REMARK  Name = ZINC08845181
REMARK  6 active torsions:
REMARK  status: ('A' for Active; 'I' for Inactive)
REMARK    1  A    between atoms: C_7  and  N_19
REMARK    2  A    between atoms: C_8  and  C_10
REMARK    3  A    between atoms: C_10  and  C_12
REMARK    4  A    between atoms: C_20  and  C_22
REMARK    5  A    between atoms: C_24  and  C_28
REMARK    6  A    between atoms: C_33  and  O_34
REMARK                            x       y       z     vdW  Elec       q    Type
REMARK                         _______ _______ _______ _____ _____    ______ ____
ROOT
ATOM      1  C   UNL     1       0.167   1.237   1.219  0.00  0.00    +0.001 A 
ATOM      2  C   UNL     1       1.306   1.991   0.974  0.00  0.00    +0.004 A 
ATOM      3  C   UNL     1       2.436   1.407   0.442  0.00  0.00    +0.047 A 
ATOM      4  C   UNL     1       2.439   0.049   0.144  0.00  0.00    +0.138 A 
ATOM      5  C   UNL     1       1.281  -0.709   0.394  0.00  0.00    +0.042 A 
ATOM      6  C   UNL     1       0.147  -0.099   0.934  0.00  0.00    +0.013 A 
ATOM      7  C   UNL     1       1.601  -2.080  -0.020  0.00  0.00    +0.091 A 
ATOM      8  C   UNL     1       2.904  -2.038  -0.478  0.00  0.00    +0.197 A 
ATOM      9  O   UNL     1       3.373  -0.775  -0.371  0.00  0.00    -0.450 OA
ENDROOT
BRANCH   7  10
ATOM     10  N   UNL     1       0.769  -3.188   0.037  0.00  0.00    -0.277 N 
ATOM     11  C   UNL     1      -0.561  -3.042  -0.129  0.00  0.00    +0.266 C 
ATOM     12  O   UNL     1      -1.040  -1.930  -0.245  0.00  0.00    -0.268 OA
ATOM     13  H   UNL     1       1.143  -4.068   0.197  0.00  0.00    +0.155 HD
BRANCH  11  14
ATOM     14  C   UNL     1      -1.432  -4.226  -0.171  0.00  0.00    +0.121 A 
ATOM     15  C   UNL     1      -2.804  -4.239  -0.340  0.00  0.00    +0.062 A 
ATOM     16  C   UNL     1      -3.169  -5.598  -0.309  0.00  0.00    +0.097 A 
ATOM     17  N   UNL     1      -2.069  -6.301  -0.135  0.00  0.00    -0.173 NA
ATOM     18  N   UNL     1      -1.044  -5.532  -0.057  0.00  0.00    -0.272 N 
ATOM     19  H   UNL     1      -0.130  -5.833   0.068  0.00  0.00    +0.189 HD
BRANCH  16  20
ATOM     20  C   UNL     1      -4.543  -6.140  -0.449  0.00  0.00    +0.044 A 
ATOM     21  C   UNL     1      -5.620  -5.277  -0.635  0.00  0.00    +0.014 A 
ATOM     22  C   UNL     1      -6.896  -5.785  -0.764  0.00  0.00    +0.001 A 
ATOM     23  C   UNL     1      -7.111  -7.151  -0.708  0.00  0.00    +0.004 A 
ATOM     24  C   UNL     1      -6.049  -8.017  -0.523  0.00  0.00    +0.046 A 
ATOM     25  C   UNL     1      -4.762  -7.519  -0.399  0.00  0.00    +0.126 A 
BRANCH  25  26
ATOM     26  O   UNL     1      -3.717  -8.370  -0.223  0.00  0.00    -0.506 OA
ATOM     27  H   UNL     1      -3.522  -8.567   0.703  0.00  0.00    +0.292 HD
ENDBRANCH  25  26
ENDBRANCH  16  20
ENDBRANCH  11  14
ENDBRANCH   7  10
BRANCH   8  28
ATOM     28  C   UNL     1       3.632  -3.143  -0.981  0.00  0.00    +0.230 C 
ATOM     29  O   UNL     1       3.077  -4.216  -1.142  0.00  0.00    -0.283 OA
BRANCH  28  30
ATOM     30  C   UNL     1       5.066  -2.996  -1.310  0.00  0.00    +0.026 A 
ATOM     31  C   UNL     1       5.741  -1.816  -0.991  0.00  0.00    +0.013 A 
ATOM     32  C   UNL     1       7.078  -1.685  -1.300  0.00  0.00    +0.021 A 
ATOM     33  C   UNL     1       7.752  -2.720  -1.927  0.00  0.00    +0.041 A 
ATOM     34  C   UNL     1       7.088  -3.893  -2.246  0.00  0.00    +0.021 A 
ATOM     35  C   UNL     1       5.752  -4.038  -1.937  0.00  0.00    +0.013 A 
ATOM     36 CL   UNL     1       9.436  -2.547  -2.314  0.00  0.00    -0.084 Cl
ENDBRANCH  28  30
ENDBRANCH   8  28
TORSDOF 6
