REMARK  Name = ZINC50362011
REMARK  12 active torsions:
REMARK  status: ('A' for Active; 'I' for Inactive)
REMARK    1  A    between atoms: C_1  and  C_2
REMARK    2  A    between atoms: C_2  and  C_3
REMARK    3  A    between atoms: C_2  and  C_4
REMARK    4  A    between atoms: C_4  and  N_5
REMARK    5  A    between atoms: N_5  and  C_6
REMARK    6  A    between atoms: N_5  and  C_10
REMARK    7  A    between atoms: C_6  and  C_7
REMARK    8  A    between atoms: C_7  and  C_8
REMARK    9  A    between atoms: C_7  and  C_9
REMARK   10  A    between atoms: C_10  and  C_12
REMARK   11  A    between atoms: C_10  and  C_14
REMARK   12  A    between atoms: C_12  and  N_13
REMARK                            x       y       z     vdW  Elec       q    Type
REMARK                         _______ _______ _______ _____ _____    ______ ____
ROOT
ATOM      1  C   UNL     1      -1.704  -1.321   0.000  0.00  0.00    -0.019 C 
ENDROOT
BRANCH   1   2
ATOM      2  C   UNL     1      -2.319  -0.232   0.841  0.00  0.00    +0.092 A 
ATOM      3  C   UNL     1      -2.829   0.924   0.379  0.00  0.00    +0.059 A 
ATOM      4  C   UNL     1      -3.296   1.644   1.503  0.00  0.00    +0.070 A 
ATOM      5  C   UNL     1      -3.043   0.883   2.586  0.00  0.00    +0.184 A 
ATOM      6  O   UNL     1      -2.456  -0.254   2.177  0.00  0.00    -0.454 OA
ATOM      7 BR   UNL     1      -3.451   1.337   4.375  0.00  0.00    -0.007 Br
ATOM      8 BR   UNL     1      -4.117   3.347   1.489  0.00  0.00    -0.046 Br
ENDBRANCH   1   2
BRANCH   1   9
ATOM      9  N   UNL     1      -0.568  -1.913   0.720  0.00  0.00    +0.385 N 
ATOM     10  H   UNL     1      -0.066  -2.534   0.103  0.00  0.00    -0.081 HD
BRANCH   9  11
ATOM     11  C   UNL     1       0.331  -0.845   1.178  0.00  0.00    -0.075 C 
BRANCH  11  13
ATOM     12  C   UNL     1       1.815   1.023   0.439  0.00  0.00    +0.005 C 
ATOM     13  C   UNL     1       0.970  -0.163  -0.032  0.00  0.00    -0.034 C 
ATOM     14  C   UNL     1       1.862  -1.163  -0.770  0.00  0.00    +0.005 C 
ENDBRANCH  11  13
ENDBRANCH   9  11
BRANCH   9  15
ATOM     15  C   UNL     1      -1.063  -2.668   1.879  0.00  0.00    -0.075 C 
BRANCH  15  16
ATOM     16  C   UNL     1      -1.450  -4.082   1.440  0.00  0.00    -0.034 C 
ATOM     17  C   UNL     1      -0.273  -4.728   0.706  0.00  0.00    +0.005 C 
ATOM     18  C   UNL     1      -1.806  -4.919   2.670  0.00  0.00    +0.005 C 
ENDBRANCH  15  16
ENDBRANCH   9  15
ENDBRANCH   1   9
BRANCH   1  19
ATOM     19  C   UNL     1      -2.750  -2.403  -0.278  0.00  0.00    -0.094 C 
BRANCH  19  20
ATOM     20  N   UNL     1      -2.222  -3.352  -1.267  0.00  0.00    +0.377 N 
ATOM     21  H   UNL     1      -2.900  -4.082  -1.427  0.00  0.00    -0.090 HD
ATOM     22  H   UNL     1      -2.038  -2.868  -2.133  0.00  0.00    -0.090 HD
ATOM     23  H   UNL     1      -1.366  -3.758  -0.919  0.00  0.00    -0.090 HD
ENDBRANCH  19  20
ENDBRANCH   1  19
TORSDOF 8
