REMARK  Name = ZINC66956504
REMARK  6 active torsions:
REMARK  status: ('A' for Active; 'I' for Inactive)
REMARK    1  A    between atoms: C_1  and  C_2
REMARK    2  A    between atoms: C_2  and  C_4
REMARK    3  A    between atoms: C_2  and  N_10
REMARK    4  A    between atoms: C_4  and  C_5
REMARK    5  A    between atoms: N_13  and  C_14
REMARK    6  A    between atoms: C_17  and  C_20
REMARK                            x       y       z     vdW  Elec       q    Type
REMARK                         _______ _______ _______ _____ _____    ______ ____
ROOT
ATOM      1  C   UNL     1       4.056  -1.069  -2.417  0.00  0.00    +0.035 A 
ATOM      2  C   UNL     1       4.835  -0.819  -1.293  0.00  0.00    +0.024 A 
ATOM      3  C   UNL     1       6.209  -0.864  -1.382  0.00  0.00    +0.013 A 
ATOM      4  C   UNL     1       6.819  -1.161  -2.602  0.00  0.00    +0.019 A 
ATOM      5  C   UNL     1       6.034  -1.412  -3.729  0.00  0.00    +0.013 A 
ATOM      6  C   UNL     1       4.660  -1.370  -3.632  0.00  0.00    +0.024 A 
ENDROOT
BRANCH   4   7
ATOM      7  C   UNL     1       8.293  -1.210  -2.701  0.00  0.00    +0.164 A 
ATOM      8  N   UNL     1       9.010  -1.158  -3.806  0.00  0.00    -0.129 NA
ATOM      9  N   UNL     1      10.264  -1.225  -3.517  0.00  0.00    -0.134 NA
ATOM     10  C   UNL     1      10.416  -1.321  -2.231  0.00  0.00    +0.134 A 
ATOM     11  N   UNL     1       9.174  -1.311  -1.669  0.00  0.00    -0.311 N 
ATOM     12  C   UNL     1       8.904  -1.400  -0.234  0.00  0.00    +0.125 C 
ATOM     13  C   UNL     1      10.163  -1.919   0.471  0.00  0.00    +0.022 C 
ATOM     14  C   UNL     1      11.377  -1.098   0.028  0.00  0.00    +0.009 C 
ATOM     15  C   UNL     1      11.697  -1.422  -1.440  0.00  0.00    +0.076 C 
ENDBRANCH   4   7
BRANCH   1  19
ATOM     16  N   UNL     1       0.727  -0.014  -1.491  0.00  0.00    -0.296 N 
ATOM     17  C   UNL     1       2.071  -0.122  -1.512  0.00  0.00    +0.304 C 
ATOM     18  O   UNL     1       2.749   0.592  -0.800  0.00  0.00    -0.253 OA
ATOM     19  N   UNL     1       2.662  -1.022  -2.324  0.00  0.00    -0.269 N 
ATOM     20  H   UNL     1       0.186  -0.584  -2.060  0.00  0.00    +0.151 HD
ATOM     21  H   UNL     1       2.120  -1.636  -2.843  0.00  0.00    +0.156 HD
BRANCH  16  23
ATOM     22  C   UNL     1       0.037   2.325  -1.307  0.00  0.00    +0.028 C 
ATOM     23  C   UNL     1       0.085   0.963  -0.610  0.00  0.00    +0.076 C 
BRANCH  23  24
ATOM     24  C   UNL     1      -1.339   0.503  -0.290  0.00  0.00    +0.064 C 
BRANCH  24  25
ATOM     25  C   UNL     1      -1.287  -0.776   0.505  0.00  0.00    -0.008 A 
ATOM     26  C   UNL     1      -1.242  -0.945   1.849  0.00  0.00    +0.011 A 
ATOM     27  C   UNL     1      -1.199  -2.228   2.362  0.00  0.00    +0.008 A 
ATOM     28  C   UNL     1      -1.204  -3.279   1.506  0.00  0.00    +0.045 A 
ATOM     29  S   UNL     1      -1.277  -2.463  -0.080  0.00  0.00    -0.102 S 
ENDBRANCH  24  25
ENDBRANCH  23  24
ENDBRANCH  16  23
ENDBRANCH   1  19
TORSDOF 5
