REMARK  Name = ZINC20877031
REMARK  13 active torsions:
REMARK  status: ('A' for Active; 'I' for Inactive)
REMARK    1  A    between atoms: C_1  and  C_2
REMARK    2  A    between atoms: C_2  and  C_4
REMARK    3  A    between atoms: C_2  and  O_30
REMARK    4  A    between atoms: C_4  and  N_5
REMARK    5  A    between atoms: N_5  and  C_6
REMARK    6  A    between atoms: C_6  and  C_7
REMARK    7  A    between atoms: C_9  and  O_28
REMARK    8  A    between atoms: C_10  and  O_14
REMARK    9  A    between atoms: O_14  and  C_15
REMARK   10  A    between atoms: C_15  and  C_16
REMARK   11  A    between atoms: C_16  and  C_18
REMARK   12  A    between atoms: C_16  and  O_27
REMARK   13  A    between atoms: O_28  and  C_29
REMARK                            x       y       z     vdW  Elec       q    Type
REMARK                         _______ _______ _______ _____ _____    ______ ____
ROOT
ATOM      1  C   UNL     1      -4.466   2.061  -4.465  0.00  0.00    -0.060 A 
ATOM      2  C   UNL     1      -4.503   2.803  -3.298  0.00  0.00    +0.051 A 
ATOM      3  C   UNL     1      -3.700   2.449  -2.227  0.00  0.00    +0.163 A 
ATOM      4  C   UNL     1      -2.848   1.354  -2.330  0.00  0.00    +0.176 A 
ATOM      5  C   UNL     1      -2.815   0.614  -3.502  0.00  0.00    +0.063 A 
ATOM      6  C   UNL     1      -3.624   0.970  -4.567  0.00  0.00    +0.021 A 
ATOM      7 BR   UNL     1      -1.665  -0.879  -3.646  0.00  0.00    -0.046 Br
ENDROOT
BRANCH   3   8
ATOM      8  O   UNL     1      -3.740   3.175  -1.077  0.00  0.00    -0.491 OA
ATOM      9  C   UNL     1      -4.638   4.286  -1.042  0.00  0.00    +0.277 C 
ENDBRANCH   3   8
BRANCH   1  10
ATOM     10  C   UNL     1      -5.345   2.444  -5.628  0.00  0.00    -0.047 C 
BRANCH  10  11
ATOM     11  N   UNL     1      -6.634   1.748  -5.517  0.00  0.00    +0.383 N 
ATOM     12  H   UNL     1      -7.111   2.038  -4.569  0.00  0.00    -0.085 HD
ATOM     13  H   UNL     1      -6.451   0.664  -5.520  0.00  0.00    -0.085 HD
BRANCH  11  14
ATOM     14  C   UNL     1      -7.519   2.099  -6.636  0.00  0.00    -0.051 C 
BRANCH  14  16
ATOM     15  C   UNL     1      -9.770   1.721  -7.653  0.00  0.00    +0.035 C 
ATOM     16  C   UNL     1      -8.848   1.356  -6.487  0.00  0.00    +0.095 C 
BRANCH  16  17
ATOM     17  O   UNL     1      -8.610  -0.053  -6.490  0.00  0.00    -0.394 OA
ATOM     18  H   UNL     1      -7.966  -0.504  -5.721  0.00  0.00    +0.210 HD
ENDBRANCH  16  17
ENDBRANCH  14  16
ENDBRANCH  11  14
ENDBRANCH  10  11
ENDBRANCH   1  10
BRANCH   4  19
ATOM     19  O   UNL     1      -2.054   1.005  -1.282  0.00  0.00    -0.484 OA
BRANCH  19  20
ATOM     20  C   UNL     1      -0.753   1.593  -1.232  0.00  0.00    +0.265 C 
BRANCH  20  21
ATOM     21  C   UNL     1      -0.013   1.086   0.008  0.00  0.00    +0.182 C 
BRANCH  21  22
ATOM     22  C   UNL     1       1.401   1.607  -0.003  0.00  0.00    -0.012 A 
ATOM     23  C   UNL     1       1.676   2.865   0.503  0.00  0.00    +0.010 A 
ATOM     24  C   UNL     1       2.972   3.346   0.499  0.00  0.00    +0.050 A 
ATOM     25  C   UNL     1       3.998   2.572  -0.020  0.00  0.00    +0.166 A 
ATOM     26  C   UNL     1       3.720   1.308  -0.534  0.00  0.00    +0.167 A 
ATOM     27  C   UNL     1       2.419   0.830  -0.523  0.00  0.00    +0.055 A 
ATOM     28  O   UNL     1       4.884   0.753  -0.981  0.00  0.00    -0.453 OA
ATOM     29  C   UNL     1       5.936   1.519  -0.366  0.00  0.00    +0.466 C 
ATOM     30  O   UNL     1       5.336   2.809  -0.146  0.00  0.00    -0.453 OA
ENDBRANCH  21  22
BRANCH  21  31
ATOM     31  O   UNL     1      -0.682   1.547   1.184  0.00  0.00    -0.384 OA
ATOM     32  H   UNL     1      -0.293   1.281   2.178  0.00  0.00    +0.210 HD
ENDBRANCH  21  31
ENDBRANCH  20  21
ENDBRANCH  19  20
ENDBRANCH   4  19
TORSDOF 11
