REMARK  Name = ZINC40088516
REMARK  6 active torsions:
REMARK  status: ('A' for Active; 'I' for Inactive)
REMARK    1  A    between atoms: C_1  and  N_2
REMARK    2  A    between atoms: N_2  and  C_3
REMARK    3  A    between atoms: N_2  and  C_11
REMARK    4  A    between atoms: C_3  and  C_4
REMARK    5  A    between atoms: C_11  and  C_12
REMARK    6  A    between atoms: N_14  and  C_15
REMARK                            x       y       z     vdW  Elec       q    Type
REMARK                         _______ _______ _______ _____ _____    ______ ____
ROOT
ATOM      1  C   UNL     1      -0.106  -0.083  -2.424  0.00  0.00    +0.197 C 
ATOM      2  O   UNL     1      -1.143   0.532  -2.298  0.00  0.00    -0.278 OA
ATOM      3  N   UNL     1       0.336  -0.414  -3.654  0.00  0.00    -0.306 N 
ATOM      4  H   UNL     1       1.166  -0.906  -3.755  0.00  0.00    +0.149 HD
ENDROOT
BRANCH   3   5
ATOM      5  C   UNL     1      -0.437  -0.030  -4.838  0.00  0.00    +0.159 C 
ATOM      6  C   UNL     1       0.490   0.052  -6.053  0.00  0.00    +0.032 C 
ATOM      7  C   UNL     1      -0.083   0.985  -7.104  0.00  0.00    +0.004 C 
ATOM      8  C   UNL     1      -1.362   0.476  -7.743  0.00  0.00    +0.019 C 
ATOM      9  C   UNL     1      -2.506   0.446  -6.727  0.00  0.00    +0.104 C 
ATOM     10  N   UNL     1      -2.460  -0.836  -6.005  0.00  0.00    -0.314 N 
ATOM     11  C   UNL     1      -1.502  -1.072  -5.110  0.00  0.00    +0.233 C 
ATOM     12  O   UNL     1      -1.479  -2.129  -4.515  0.00  0.00    -0.274 OA
ATOM     13  H   UNL     1      -3.135  -1.511  -6.179  0.00  0.00    +0.149 HD
ENDBRANCH   3   5
BRANCH   1  14
ATOM     14  C   UNL     1       0.690  -0.478  -1.207  0.00  0.00    +0.019 C 
BRANCH  14  16
ATOM     15  C   UNL     1      -0.018   1.465   0.010  0.00  0.00    -0.095 C 
ATOM     16  N   UNL     1       0.002  -0.004   0.002  0.00  0.00    +0.386 N 
ATOM     17  H   UNL     1      -0.945  -0.353   0.009  0.00  0.00    -0.081 HD
BRANCH  16  18
ATOM     18  C   UNL     1       0.713  -0.491   1.192  0.00  0.00    -0.043 C 
BRANCH  18  19
ATOM     19  C   UNL     1      -0.059  -0.109   2.429  0.00  0.00    -0.064 A 
ATOM     20  C   UNL     1       0.188   1.099   3.053  0.00  0.00    +0.003 A 
ATOM     21  C   UNL     1      -0.520   1.450   4.187  0.00  0.00    +0.015 A 
ATOM     22  C   UNL     1      -1.476   0.591   4.698  0.00  0.00    +0.018 A 
ATOM     23  C   UNL     1      -1.724  -0.618   4.073  0.00  0.00    +0.015 A 
ATOM     24  C   UNL     1      -1.019  -0.965   2.936  0.00  0.00    +0.003 A 
ATOM     25 BR   UNL     1      -2.445   1.070   6.250  0.00  0.00    -0.050 Br
ENDBRANCH  18  19
ENDBRANCH  16  18
ENDBRANCH  14  16
ENDBRANCH   1  14
TORSDOF 5
