REMARK  Name = ZINC39670837
REMARK  7 active torsions:
REMARK  status: ('A' for Active; 'I' for Inactive)
REMARK    1  A    between atoms: C_1  and  C_2
REMARK    2  A    between atoms: C_5  and  C_8
REMARK    3  A    between atoms: C_8  and  C_9
REMARK    4  A    between atoms: C_13  and  C_22
REMARK    5  A    between atoms: N_24  and  C_25
REMARK    6  A    between atoms: C_25  and  C_26
REMARK    7  A    between atoms: C_29  and  C_35
REMARK                            x       y       z     vdW  Elec       q    Type
REMARK                         _______ _______ _______ _____ _____    ______ ____
ROOT
ATOM      1  C   UNL     1       1.194  -4.798   0.082  0.00  0.00    +0.220 C 
ATOM      2  O   UNL     1       2.038  -3.927   0.117  0.00  0.00    -0.275 OA
ATOM      3  N   UNL     1       1.565  -6.093   0.033  0.00  0.00    -0.300 N 
ATOM      4  C   UNL     1       0.688  -7.286  -0.021  0.00  0.00    +0.121 C 
ATOM      5  C   UNL     1       1.397  -8.247  -1.002  0.00  0.00    +0.100 C 
ATOM      6  C   UNL     1       2.875  -7.822  -0.969  0.00  0.00    -0.004 C 
ATOM      7  C   UNL     1       2.941  -6.644   0.015  0.00  0.00    +0.115 C 
ATOM      8  C   UNL     1       3.745  -8.974  -0.475  0.00  0.00    -0.010 C 
ATOM      9  C   UNL     1       5.215  -8.546  -0.505  0.00  0.00    -0.082 C 
ATOM     10  N   UNL     1       5.590  -8.176  -1.875  0.00  0.00    +0.379 N 
ATOM     11  C   UNL     1       4.813  -7.009  -2.309  0.00  0.00    -0.082 C 
ATOM     12  C   UNL     1       3.326  -7.371  -2.354  0.00  0.00    -0.010 C 
ATOM     13  H   UNL     1       6.574  -7.954  -1.904  0.00  0.00    -0.086 HD
ATOM     14  H   UNL     1       5.405  -8.951  -2.494  0.00  0.00    -0.086 HD
ENDROOT
BRANCH   5  15
ATOM     15  C   UNL     1       0.834  -8.088  -2.391  0.00  0.00    +0.219 C 
ATOM     16  O   UNL     1       0.396  -7.014  -2.748  0.00  0.00    -0.275 OA
ATOM     17  N   UNL     1       0.818  -9.137  -3.236  0.00  0.00    -0.309 N 
ATOM     18  H   UNL     1       1.168  -9.995  -2.950  0.00  0.00    +0.149 HD
BRANCH  17  19
ATOM     19  C   UNL     1       0.270  -8.982  -4.586  0.00  0.00    +0.159 C 
BRANCH  19  20
ATOM     20  C   UNL     1       0.369 -10.294  -5.322  0.00  0.00    +0.051 A 
ATOM     21  C   UNL     1       1.373 -10.661  -6.148  0.00  0.00    +0.115 A 
ATOM     22  N   UNL     1       1.081 -11.917  -6.606  0.00  0.00    -0.305 N 
ATOM     23  C   UNL     1       1.733 -12.764  -7.454  0.00  0.00    +0.022 A 
ATOM     24  C   UNL     1       1.216 -13.976  -7.746  0.00  0.00    +0.021 A 
ATOM     25  C   UNL     1      -0.004 -14.382  -7.178  0.00  0.00    +0.005 A 
ATOM     26  C   UNL     1      -0.663 -13.546  -6.331  0.00  0.00    +0.045 A 
ATOM     27  C   UNL     1      -0.110 -12.284  -6.037  0.00  0.00    +0.116 A 
ATOM     28  N   UNL     1      -0.518 -11.290  -5.261  0.00  0.00    -0.342 N 
ATOM     29  C   UNL     1       3.042 -12.343  -8.071  0.00  0.00    +0.064 C 
ATOM     30  H   UNL     1      -1.333 -11.285  -4.735  0.00  0.00    +0.167 HD
ENDBRANCH  19  20
ENDBRANCH  17  19
ENDBRANCH   5  15
BRANCH   1  31
ATOM     31  C   UNL     1      -0.267  -4.432   0.093  0.00  0.00    +0.131 C 
BRANCH  31  36
ATOM     32  C   UNL     1      -0.816   1.317   0.312  0.00  0.00    +0.044 C 
ATOM     33  C   UNL     1      -0.673  -0.182   0.255  0.00  0.00    -0.050 A 
ATOM     34  C   UNL     1      -0.604  -0.824  -0.968  0.00  0.00    +0.003 A 
ATOM     35  C   UNL     1      -0.472  -2.199  -1.020  0.00  0.00    +0.004 A 
ATOM     36  C   UNL     1      -0.410  -2.933   0.150  0.00  0.00    -0.039 A 
ATOM     37  C   UNL     1      -0.478  -2.291   1.373  0.00  0.00    +0.004 A 
ATOM     38  C   UNL     1      -0.605  -0.915   1.425  0.00  0.00    +0.003 A 
ENDBRANCH  31  36
ENDBRANCH   1  31
TORSDOF 5
