REMARK  Name = ZINC19320171
REMARK  7 active torsions:
REMARK  status: ('A' for Active; 'I' for Inactive)
REMARK    1  A    between atoms: C_1  and  C_2
REMARK    2  A    between atoms: C_2  and  C_3
REMARK    3  A    between atoms: C_7  and  C_22
REMARK    4  A    between atoms: C_8  and  O_9
REMARK    5  A    between atoms: C_13  and  C_14
REMARK    6  A    between atoms: C_19  and  O_20
REMARK    7  A    between atoms: C_22  and  C_23
REMARK                            x       y       z     vdW  Elec       q    Type
REMARK                         _______ _______ _______ _____ _____    ______ ____
ROOT
ATOM      1  C   UNL     1      -1.433  -0.534   0.013  0.00  0.00    -0.005 C 
ATOM      2  C   UNL     1      -2.185  -0.038  -1.227  0.00  0.00    -0.065 C 
ATOM      3  N   UNL     1      -3.567  -0.528  -1.193  0.00  0.00    +0.394 N 
ATOM      4  C   UNL     1      -3.586  -1.994  -1.240  0.00  0.00    -0.065 C 
ATOM      5  C   UNL     1      -2.882  -2.557  -0.001  0.00  0.00    -0.005 C 
ATOM      6  C   UNL     1      -1.428  -2.068   0.005  0.00  0.00    +0.126 C 
ATOM      7  C   UNL     1      -3.586  -2.019   1.251  0.00  0.00    +0.090 C 
ATOM      8  N   UNL     1      -3.560  -0.549   1.213  0.00  0.00    -0.310 NA
ATOM      9  C   UNL     1      -2.161  -0.053   1.274  0.00  0.00    +0.090 C 
ATOM     10  C   UNL     1      -4.246  -0.049   0.014  0.00  0.00    +0.037 C 
ATOM     11  H   UNL     1      -4.057  -0.180  -2.003  0.00  0.00    -0.079 HD
ENDROOT
BRANCH  10  12
ATOM     12  C   UNL     1      -4.240   1.458   0.026  0.00  0.00    -0.005 A 
ATOM     13  C   UNL     1      -4.148   2.158  -1.161  0.00  0.00    +0.022 A 
ATOM     14  C   UNL     1      -4.142   3.541  -1.151  0.00  0.00    +0.018 A 
ATOM     15  C   UNL     1      -4.228   4.226   0.049  0.00  0.00    +0.019 A 
ATOM     16  C   UNL     1      -4.320   3.530   1.238  0.00  0.00    +0.047 A 
ATOM     17  C   UNL     1      -4.332   2.142   1.229  0.00  0.00    +0.120 A 
ATOM     18 BR   UNL     1      -4.015   4.497  -2.777  0.00  0.00    -0.050 Br
BRANCH  17  19
ATOM     19  O   UNL     1      -4.428   1.455   2.398  0.00  0.00    -0.507 OA
ATOM     20  H   UNL     1      -3.575   1.252   2.805  0.00  0.00    +0.292 HD
ENDBRANCH  17  19
ENDBRANCH  10  12
BRANCH   1  22
ATOM     21  C   UNL     1      -0.019   1.526   0.010  0.00  0.00    +0.004 C 
ATOM     22  C   UNL     1       0.002  -0.004   0.002  0.00  0.00    +0.005 C 
ENDBRANCH   1  22
BRANCH   6  23
ATOM     23  O   UNL     1      -0.747  -2.553   1.163  0.00  0.00    -0.391 OA
ATOM     24  H   UNL     1      -0.706  -3.517   1.221  0.00  0.00    +0.210 HD
ENDBRANCH   6  23
BRANCH   5  25
ATOM     25  C   UNL     1      -2.920  -4.086  -0.025  0.00  0.00    +0.005 C 
ATOM     26  C   UNL     1      -4.375  -4.560  -0.036  0.00  0.00    +0.004 C 
ENDBRANCH   5  25
TORSDOF 5
