REMARK  Name = ZINC40755897
REMARK  5 active torsions:
REMARK  status: ('A' for Active; 'I' for Inactive)
REMARK    1  A    between atoms: C_6  and  O_7
REMARK    2  A    between atoms: O_7  and  C_8
REMARK    3  A    between atoms: C_9  and  N_25
REMARK    4  A    between atoms: C_10  and  N_14
REMARK    5  A    between atoms: N_14  and  C_15
REMARK                            x       y       z     vdW  Elec       q    Type
REMARK                         _______ _______ _______ _____ _____    ______ ____
ROOT
ATOM      1  C   UNL     1      -1.101  -2.051  -0.102  0.00  0.00    +0.246 A 
ATOM      2  C   UNL     1      -2.267  -2.808  -0.210  0.00  0.00    +0.128 A 
ATOM      3  C   UNL     1      -2.146  -4.195  -0.324  0.00  0.00    +0.147 A 
ATOM      4  N   UNL     1      -0.931  -4.737  -0.324  0.00  0.00    -0.219 NA
ATOM      5  C   UNL     1       0.146  -3.984  -0.220  0.00  0.00    +0.227 A 
ATOM      6  N   UNL     1       0.074  -2.672  -0.117  0.00  0.00    -0.199 NA
ENDROOT
BRANCH   2   7
ATOM      7  N   UNL     1      -3.529  -2.192  -0.205  0.00  0.00    -0.351 N 
ATOM      8  H   UNL     1      -3.598  -1.228  -0.126  0.00  0.00    +0.143 HD
ATOM      9  H   UNL     1      -4.332  -2.732  -0.281  0.00  0.00    +0.143 HD
ENDBRANCH   2   7
BRANCH   3  10
ATOM     10  N   UNL     1      -3.276  -4.996  -0.434  0.00  0.00    -0.322 N 
ATOM     11  H   UNL     1      -4.158  -4.592  -0.432  0.00  0.00    +0.148 HD
BRANCH  10  12
ATOM     12  C   UNL     1      -3.135  -6.449  -0.552  0.00  0.00    +0.034 C 
ATOM     13  C   UNL     1      -2.415  -6.994   0.683  0.00  0.00    +0.029 C 
ATOM     14  C   UNL     1      -2.268  -8.512   0.560  0.00  0.00    -0.008 C 
ATOM     15  C   UNL     1      -3.653  -9.151   0.454  0.00  0.00    +0.007 C 
ATOM     16  C   UNL     1      -4.373  -8.607  -0.781  0.00  0.00    -0.008 C 
ATOM     17  C   UNL     1      -4.521  -7.089  -0.657  0.00  0.00    +0.029 C 
ATOM     18  C   UNL     1      -3.561  -8.940  -2.033  0.00  0.00    +0.007 C 
ATOM     19  C   UNL     1      -2.175  -8.300  -1.928  0.00  0.00    -0.008 C 
ATOM     20  C   UNL     1      -1.455  -8.845  -0.692  0.00  0.00    +0.007 C 
ATOM     21  C   UNL     1      -2.322  -6.783  -1.804  0.00  0.00    +0.029 C 
ENDBRANCH  10  12
ENDBRANCH   3  10
BRANCH   1  22
ATOM     22  O   UNL     1      -1.165  -0.701   0.010  0.00  0.00    -0.436 OA
BRANCH  22  28
ATOM     23  C   UNL     1       0.679   0.208  -1.188  0.00  0.00    +0.047 A 
ATOM     24  C   UNL     1       1.865   0.916  -1.192  0.00  0.00    +0.019 A 
ATOM     25  C   UNL     1       2.378   1.414  -0.008  0.00  0.00    +0.018 A 
ATOM     26  C   UNL     1       1.705   1.203   1.183  0.00  0.00    +0.019 A 
ATOM     27  C   UNL     1       0.519   0.495   1.191  0.00  0.00    +0.047 A 
ATOM     28  C   UNL     1       0.002  -0.004   0.004  0.00  0.00    +0.130 A 
ATOM     29 BR   UNL     1       4.002   2.382  -0.016  0.00  0.00    -0.050 Br
ENDBRANCH  22  28
ENDBRANCH   1  22
TORSDOF 5
