REMARK  Name = ZINC14247528
REMARK  13 active torsions:
REMARK  status: ('A' for Active; 'I' for Inactive)
REMARK    1  A    between atoms: C_1  and  C_2
REMARK    2  A    between atoms: C_2  and  C_4
REMARK    3  A    between atoms: C_2  and  S_20
REMARK    4  A    between atoms: N_6  and  C_7
REMARK    5  A    between atoms: C_10  and  S_13
REMARK    6  A    between atoms: S_13  and  N_16
REMARK    7  A    between atoms: N_16  and  C_17
REMARK    8  A    between atoms: C_17  and  C_18
REMARK    9  A    between atoms: C_17  and  C_19
REMARK   10  A    between atoms: S_20  and  C_21
REMARK   11  A    between atoms: C_25  and  C_27
REMARK   12  A    between atoms: C_27  and  C_28
REMARK   13  A    between atoms: C_27  and  C_29
REMARK                            x       y       z     vdW  Elec       q    Type
REMARK                         _______ _______ _______ _____ _____    ______ ____
ROOT
ATOM      1  C   UNL     1       0.730  -0.505   1.222  0.00  0.00    +0.230 C 
ATOM      2  O   UNL     1       1.909  -0.785   1.153  0.00  0.00    -0.274 OA
ATOM      3  N   UNL     1       0.071  -0.647   2.389  0.00  0.00    -0.285 N 
ATOM      4  H   UNL     1      -0.852  -0.361   2.463  0.00  0.00    +0.155 HD
ENDROOT
BRANCH   3   5
ATOM      5  C   UNL     1       0.720  -1.209   3.495  0.00  0.00    +0.034 A 
ATOM      6  C   UNL     1       0.015  -2.013   4.381  0.00  0.00    +0.025 A 
ATOM      7  C   UNL     1       0.658  -2.566   5.471  0.00  0.00    +0.030 A 
ATOM      8  C   UNL     1       2.002  -2.319   5.681  0.00  0.00    +0.105 A 
ATOM      9  C   UNL     1       2.707  -1.518   4.801  0.00  0.00    +0.030 A 
ATOM     10  C   UNL     1       2.071  -0.968   3.706  0.00  0.00    +0.025 A 
BRANCH   8  11
ATOM     11  S   UNL     1       2.819  -3.026   7.073  0.00  0.00    +0.059 S 
ATOM     12  O   UNL     1       3.943  -2.201   7.346  0.00  0.00    -0.153 OA
ATOM     13  O   UNL     1       1.814  -3.289   8.043  0.00  0.00    -0.153 OA
BRANCH  11  14
ATOM     14  N   UNL     1       3.414  -4.496   6.597  0.00  0.00    -0.187 NA
ATOM     15  H   UNL     1       3.071  -5.311   6.996  0.00  0.00    +0.148 HD
BRANCH  14  16
ATOM     16  C   UNL     1       4.460  -4.566   5.574  0.00  0.00    +0.070 C 
ATOM     17  C   UNL     1       5.407  -5.725   5.891  0.00  0.00    +0.025 C 
ATOM     18  C   UNL     1       3.819  -4.792   4.203  0.00  0.00    +0.025 C 
ENDBRANCH  14  16
ENDBRANCH  11  14
ENDBRANCH   8  11
ENDBRANCH   3   5
BRANCH   1  20
ATOM     19  C   UNL     1      -0.007   1.532   0.016  0.00  0.00    +0.029 C 
ATOM     20  C   UNL     1       0.003   0.002   0.004  0.00  0.00    +0.137 C 
BRANCH  20  21
ATOM     21  S   UNL     1       0.847  -0.585  -1.491  0.00  0.00    -0.074 S 
BRANCH  21  22
ATOM     22  C   UNL     1      -0.192  -0.042  -2.807  0.00  0.00    +0.185 A 
ATOM     23  N   UNL     1       0.019  -0.250  -4.125  0.00  0.00    -0.254 N 
ATOM     24  H   UNL     1       0.765  -0.722  -4.527  0.00  0.00    +0.191 HD
ATOM     25  N   UNL     1      -1.055   0.354  -4.797  0.00  0.00    -0.157 NA
ATOM     26  C   UNL     1      -1.831   0.876  -3.886  0.00  0.00    +0.154 A 
ATOM     27  N   UNL     1      -1.315   0.634  -2.681  0.00  0.00    -0.205 NA
BRANCH  26  28
ATOM     28  C   UNL     1      -3.110   1.628  -4.153  0.00  0.00    +0.053 C 
ATOM     29  C   UNL     1      -2.810   2.853  -5.019  0.00  0.00    +0.015 C 
ATOM     30  C   UNL     1      -4.095   0.715  -4.886  0.00  0.00    +0.015 C 
ENDBRANCH  26  28
ENDBRANCH  21  22
ENDBRANCH  20  21
ENDBRANCH   1  20
TORSDOF 8
