REMARK  Name = ZINC20637233
REMARK  4 active torsions:
REMARK  status: ('A' for Active; 'I' for Inactive)
REMARK    1  A    between atoms: N_4  and  C_6
REMARK    2  A    between atoms: C_6  and  C_7
REMARK    3  A    between atoms: C_14  and  C_16
REMARK    4  A    between atoms: C_16  and  C_17
REMARK                            x       y       z     vdW  Elec       q    Type
REMARK                         _______ _______ _______ _____ _____    ______ ____
ROOT
ATOM      1  C   UNL     1      -2.972   6.082   2.403  0.00  0.00    -0.010 C 
ATOM      2  C   UNL     1      -3.545   5.452   3.674  0.00  0.00    +0.005 C 
ATOM      3  C   UNL     1      -3.433   3.928   3.586  0.00  0.00    +0.019 C 
ATOM      4  C   UNL     1      -1.962   3.534   3.471  0.00  0.00    +0.108 C 
ATOM      5  N   UNL     1      -1.361   4.251   2.338  0.00  0.00    -0.301 N 
ATOM      6  C   UNL     1      -1.491   5.713   2.278  0.00  0.00    +0.109 C 
ATOM      7  C   UNL     1      -0.708   3.579   1.369  0.00  0.00    +0.216 C 
ATOM      8  O   UNL     1      -0.221   4.182   0.436  0.00  0.00    -0.276 OA
ENDROOT
BRANCH   1   9
ATOM      9  C   UNL     1      -3.115   7.604   2.477  0.00  0.00    -0.074 C 
BRANCH   9  13
ATOM     10  C   UNL     1      -3.181   8.744  -1.034  0.00  0.00    -0.020 C 
ATOM     11  C   UNL     1      -3.195  10.067  -0.234  0.00  0.00    -0.020 C 
ATOM     12  C   UNL     1      -2.865   9.664   1.215  0.00  0.00    -0.079 C 
ATOM     13  N   UNL     1      -2.647   8.201   1.220  0.00  0.00    +0.380 N 
ATOM     14  C   UNL     1      -3.413   7.674   0.062  0.00  0.00    -0.079 C 
ATOM     15  H   UNL     1      -1.578   7.953   1.150  0.00  0.00    -0.082 HD
ENDBRANCH   9  13
ENDBRANCH   1   9
BRANCH   7  16
ATOM     16  C   UNL     1      -0.584   2.079   1.445  0.00  0.00    +0.103 C 
BRANCH  16  17
ATOM     17  C   UNL     1       0.196   1.570   0.231  0.00  0.00    +0.020 C 
ATOM     18  C   UNL     1       0.229   0.024   0.222  0.00  0.00    +0.012 C 
ATOM     19  C   UNL     1       1.650  -0.248  -0.324  0.00  0.00    +0.027 C 
ATOM     20  C   UNL     1       2.439   0.993   0.023  0.00  0.00    -0.031 C 
ATOM     21  C   UNL     1       1.646   1.985   0.325  0.00  0.00    -0.027 C 
ENDBRANCH  16  17
ENDBRANCH   7  16
TORSDOF 4
