REMARK  Name = ZINC22389161
REMARK  12 active torsions:
REMARK  status: ('A' for Active; 'I' for Inactive)
REMARK    1  A    between atoms: C_1  and  O_2
REMARK    2  A    between atoms: O_2  and  C_3
REMARK    3  A    between atoms: C_6  and  S_11
REMARK    4  A    between atoms: C_8  and  O_9
REMARK    5  A    between atoms: O_9  and  C_10
REMARK    6  A    between atoms: S_11  and  N_14
REMARK    7  A    between atoms: N_14  and  C_15
REMARK    8  A    between atoms: N_14  and  C_27
REMARK    9  A    between atoms: C_15  and  C_16
REMARK   10  A    between atoms: N_18  and  C_19
REMARK   11  A    between atoms: C_19  and  C_20
REMARK   12  A    between atoms: C_20  and  C_21
REMARK                            x       y       z     vdW  Elec       q    Type
REMARK                         _______ _______ _______ _____ _____    ______ ____
ROOT
ATOM      1  N   UNL     1      -2.433   1.314   0.021  0.00  0.00    -0.191 N 
ENDROOT
BRANCH   1   2
ATOM      2  C   UNL     1      -1.229   2.027   0.019  0.00  0.00    +0.087 A 
ATOM      3  C   UNL     1      -1.243   3.415   0.031  0.00  0.00    +0.027 A 
ATOM      4  C   UNL     1      -0.053   4.117   0.023  0.00  0.00    +0.002 A 
ATOM      5  C   UNL     1       1.152   3.438   0.009  0.00  0.00    +0.003 A 
ATOM      6  C   UNL     1       1.171   2.056   0.002  0.00  0.00    +0.040 A 
ATOM      7  C   UNL     1      -0.016   1.347   0.009  0.00  0.00    +0.146 A 
ATOM      8  F   UNL     1       0.002  -0.004   0.002  0.00  0.00    -0.203 F 
ENDBRANCH   1   2
BRANCH   1   9
ATOM      9  S   UNL     1      -3.074   0.777   1.450  0.00  0.00    +0.075 S 
ATOM     10  O   UNL     1      -3.911  -0.326   1.130  0.00  0.00    -0.150 OA
ATOM     11  O   UNL     1      -1.994   0.673   2.367  0.00  0.00    -0.150 OA
BRANCH   9  15
ATOM     12  C   UNL     1      -5.785   4.053   3.016  0.00  0.00    +0.162 A 
ATOM     13  C   UNL     1      -4.446   4.030   3.370  0.00  0.00    +0.051 A 
ATOM     14  C   UNL     1      -3.623   3.026   2.895  0.00  0.00    +0.032 A 
ATOM     15  C   UNL     1      -4.130   2.050   2.058  0.00  0.00    +0.112 A 
ATOM     16  C   UNL     1      -5.466   2.067   1.701  0.00  0.00    +0.078 A 
ATOM     17  C   UNL     1      -6.297   3.068   2.178  0.00  0.00    +0.163 A 
BRANCH  12  19
ATOM     18  C   UNL     1      -6.003   6.014   4.344  0.00  0.00    +0.277 C 
ATOM     19  O   UNL     1      -6.597   5.037   3.488  0.00  0.00    -0.491 OA
ENDBRANCH  12  19
BRANCH  17  20
ATOM     20  O   UNL     1      -7.611   3.087   1.827  0.00  0.00    -0.491 OA
ATOM     21  C   UNL     1      -8.067   2.044   0.963  0.00  0.00    +0.277 C 
ENDBRANCH  17  20
ENDBRANCH   9  15
ENDBRANCH   1   9
BRANCH   1  22
ATOM     22  C   UNL     1      -3.125   1.043  -1.241  0.00  0.00    +0.227 C 
BRANCH  22  23
ATOM     23  C   UNL     1      -2.555  -0.203  -1.869  0.00  0.00    +0.232 C 
ATOM     24  O   UNL     1      -1.659  -0.805  -1.317  0.00  0.00    -0.274 OA
ATOM     25  N   UNL     1      -3.042  -0.648  -3.045  0.00  0.00    -0.314 N 
ATOM     26  H   UNL     1      -3.855  -0.102  -3.546  0.00  0.00    +0.149 HD
BRANCH  25  27
ATOM     27  C   UNL     1      -2.488  -1.860  -3.655  0.00  0.00    +0.108 C 
BRANCH  27  28
ATOM     28  C   UNL     1      -3.211  -2.143  -4.973  0.00  0.00    +0.049 C 
BRANCH  28  29
ATOM     29  C   UNL     1      -2.641  -3.389  -5.601  0.00  0.00    -0.072 C 
ATOM     30  C   UNL     1      -3.242  -4.513  -5.373  0.00  0.00    -0.028 C 
ATOM     31  C   UNL     1      -2.789  -5.835  -5.920  0.00  0.00    +0.027 C 
ATOM     32  C   UNL     1      -1.820  -5.619  -7.085  0.00  0.00    +0.004 C 
ATOM     33  C   UNL     1      -0.748  -4.614  -6.644  0.00  0.00    +0.005 C 
ATOM     34  C   UNL     1      -1.416  -3.249  -6.456  0.00  0.00    +0.030 C 
ENDBRANCH  28  29
ENDBRANCH  27  28
ENDBRANCH  25  27
ENDBRANCH  22  23
ENDBRANCH   1  22
TORSDOF 10
