REMARK  Name = ZINC32960843
REMARK  9 active torsions:
REMARK  status: ('A' for Active; 'I' for Inactive)
REMARK    1  A    between atoms: C_1  and  C_2
REMARK    2  A    between atoms: C_2  and  C_3
REMARK    3  A    between atoms: C_10  and  C_12
REMARK    4  A    between atoms: N_14  and  C_15
REMARK    5  A    between atoms: C_15  and  C_16
REMARK    6  A    between atoms: C_16  and  C_18
REMARK    7  A    between atoms: C_16  and  N_26
REMARK    8  A    between atoms: C_21  and  O_24
REMARK    9  A    between atoms: O_24  and  C_25
REMARK                            x       y       z     vdW  Elec       q    Type
REMARK                         _______ _______ _______ _____ _____    ______ ____
ROOT
ATOM      1  C   UNL     1       7.612  -1.195  -6.305  0.00  0.00    +0.094 C 
ENDROOT
BRANCH   1   4
ATOM      2  C   UNL     1       7.564   1.230  -6.072  0.00  0.00    +0.251 C 
ATOM      3  O   UNL     1       7.372   1.082  -4.879  0.00  0.00    -0.270 OA
ATOM      4  N   UNL     1       7.698   0.154  -6.872  0.00  0.00    -0.312 N 
ATOM      5  H   UNL     1       7.850   0.272  -7.822  0.00  0.00    +0.149 HD
BRANCH   2  12
ATOM      6  C   UNL     1       8.190   7.324  -7.223  0.00  0.00    -0.007 C 
ATOM      7  C   UNL     1       7.561   7.124  -8.604  0.00  0.00    +0.009 C 
ATOM      8  C   UNL     1       8.043   5.785  -9.178  0.00  0.00    +0.043 C 
ATOM      9  C   UNL     1       7.879   4.730  -8.124  0.00  0.00    -0.006 A 
ATOM     10  C   UNL     1       7.665   4.934  -6.792  0.00  0.00    -0.036 A 
ATOM     11  C   UNL     1       7.542   3.801  -6.001  0.00  0.00    +0.024 A 
ATOM     12  C   UNL     1       7.650   2.579  -6.638  0.00  0.00    +0.074 A 
ATOM     13  S   UNL     1       7.921   3.073  -8.330  0.00  0.00    -0.088 S 
ATOM     14  C   UNL     1       7.568   6.347  -6.224  0.00  0.00    +0.039 C 
BRANCH   6  16
ATOM     15  C   UNL     1       8.678   8.998  -5.434  0.00  0.00    +0.004 C 
ATOM     16  C   UNL     1       7.942   8.758  -6.753  0.00  0.00    +0.000 C 
ENDBRANCH   6  16
ENDBRANCH   2  12
ENDBRANCH   1   4
BRANCH   1  17
ATOM     17  C   UNL     1       7.695  -2.227  -7.431  0.00  0.00    -0.020 C 
BRANCH  17  18
ATOM     18  C   UNL     1       9.058  -2.164  -8.071  0.00  0.00    -0.059 A 
ATOM     19  C   UNL     1      10.133  -2.792  -7.469  0.00  0.00    +0.005 A 
ATOM     20  C   UNL     1      11.383  -2.736  -8.052  0.00  0.00    +0.046 A 
ATOM     21  C   UNL     1      11.561  -2.048  -9.244  0.00  0.00    +0.120 A 
ATOM     22  C   UNL     1      10.481  -1.419  -9.847  0.00  0.00    +0.046 A 
ATOM     23  C   UNL     1       9.231  -1.483  -9.261  0.00  0.00    +0.005 A 
BRANCH  21  24
ATOM     24  O   UNL     1      12.790  -1.991  -9.820  0.00  0.00    -0.495 OA
ATOM     25  C   UNL     1      12.899  -1.265 -11.047  0.00  0.00    +0.277 C 
ENDBRANCH  21  24
ENDBRANCH  17  18
BRANCH  17  26
ATOM     26  N   UNL     1       7.474  -3.571  -6.881  0.00  0.00    +0.385 N 
ATOM     27  C   UNL     1       7.633  -4.579  -7.951  0.00  0.00    -0.078 C 
ATOM     28  C   UNL     1       6.576  -5.665  -7.631  0.00  0.00    -0.020 C 
ATOM     29  C   UNL     1       5.395  -4.808  -7.105  0.00  0.00    -0.020 C 
ATOM     30  C   UNL     1       6.104  -3.668  -6.344  0.00  0.00    -0.078 C 
ATOM     31  H   UNL     1       8.141  -3.752  -6.145  0.00  0.00    -0.081 HD
ENDBRANCH  17  26
ENDBRANCH   1  17
TORSDOF 7
