REMARK  Name = ZINC04068214
REMARK  10 active torsions:
REMARK  status: ('A' for Active; 'I' for Inactive)
REMARK    1  A    between atoms: C_1  and  C_2
REMARK    2  A    between atoms: C_2  and  O_3
REMARK    3  A    between atoms: O_3  and  C_4
REMARK    4  A    between atoms: C_6  and  C_12
REMARK    5  A    between atoms: C_9  and  O_10
REMARK    6  A    between atoms: C_22  and  C_34
REMARK    7  A    between atoms: C_23  and  C_24
REMARK    8  A    between atoms: C_24  and  O_26
REMARK    9  A    between atoms: O_26  and  C_27
REMARK   10  A    between atoms: C_27  and  C_28
REMARK                            x       y       z     vdW  Elec       q    Type
REMARK                         _______ _______ _______ _____ _____    ______ ____
ROOT
ATOM      1  C   UNL     1       1.342  -0.734   0.265  0.00  0.00    +0.092 C 
ATOM      2  C   UNL     1       2.418   0.266   0.610  0.00  0.00    +0.024 C 
ATOM      3  C   UNL     1       2.255   1.577   0.334  0.00  0.00    +0.015 C 
ATOM      4  C   UNL     1       3.325   2.583   0.677  0.00  0.00    +0.051 C 
ATOM      5  C   UNL     1       4.700   1.915   0.605  0.00  0.00    +0.014 C 
ATOM      6  C   UNL     1       4.716   0.729   1.575  0.00  0.00    +0.080 C 
ATOM      7  C   UNL     1       3.592  -0.206   1.222  0.00  0.00    +0.162 C 
ATOM      8  O   UNL     1       3.700  -1.391   1.471  0.00  0.00    -0.292 OA
ATOM      9  N   UNL     1       1.107   2.023  -0.265  0.00  0.00    -0.321 N 
ATOM     10  C   UNL     1      -0.033   1.270  -0.234  0.00  0.00    +0.016 C 
ATOM     11  C   UNL     1       0.029  -0.049   0.019  0.00  0.00    +0.065 C 
ATOM     12  C   UNL     1      -1.368   1.920  -0.492  0.00  0.00    +0.061 C 
ATOM     13  H   UNL     1       1.096   2.997  -0.776  0.00  0.00    +0.152 HD
ENDROOT
BRANCH   1  16
ATOM     14  C   UNL     1       2.300  -3.553  -2.060  0.00  0.00    +0.163 A 
ATOM     15  C   UNL     1       1.933  -2.857  -0.919  0.00  0.00    +0.054 A 
ATOM     16  C   UNL     1       1.746  -1.488  -0.975  0.00  0.00    -0.030 A 
ATOM     17  C   UNL     1       1.935  -0.809  -2.165  0.00  0.00    +0.023 A 
ATOM     18  C   UNL     1       2.306  -1.497  -3.306  0.00  0.00    +0.063 A 
ATOM     19  C   UNL     1       2.490  -2.871  -3.258  0.00  0.00    +0.173 A 
ATOM     20 BR   UNL     1       2.563  -0.565  -4.931  0.00  0.00    -0.046 Br
BRANCH  19  21
ATOM     21  O   UNL     1       2.854  -3.549  -4.379  0.00  0.00    -0.503 OA
ATOM     22  H   UNL     1       3.003  -3.009  -5.325  0.00  0.00    +0.292 HD
ENDBRANCH  19  21
BRANCH  14  23
ATOM     23  O   UNL     1       2.478  -4.900  -2.008  0.00  0.00    -0.489 OA
BRANCH  23  25
ATOM     24  C   UNL     1       2.511  -7.038  -0.882  0.00  0.00    +0.048 C 
ATOM     25  C   UNL     1       2.266  -5.535  -0.745  0.00  0.00    +0.226 C 
ENDBRANCH  23  25
ENDBRANCH  14  23
ENDBRANCH   1  16
BRANCH  11  26
ATOM     26  C   UNL     1      -1.165  -0.806   0.054  0.00  0.00    +0.338 C 
ATOM     27  O   UNL     1      -2.243  -0.246  -0.021  0.00  0.00    -0.245 OA
BRANCH  26  28
ATOM     28  O   UNL     1      -1.109  -2.149   0.171  0.00  0.00    -0.459 OA
BRANCH  28  29
ATOM     29  C   UNL     1      -2.354  -2.850   0.200  0.00  0.00    +0.264 C 
BRANCH  29  30
ATOM     30  C   UNL     1      -2.091  -4.351   0.336  0.00  0.00    +0.156 C 
ATOM     31  C   UNL     1      -3.424  -5.126   0.253  0.00  0.00    +0.037 C 
ATOM     32  C   UNL     1      -3.227  -6.237   1.319  0.00  0.00    +0.031 C 
ATOM     33  C   UNL     1      -2.377  -5.485   2.374  0.00  0.00    +0.160 C 
ATOM     34  O   UNL     1      -1.509  -4.629   1.615  0.00  0.00    -0.373 OA
ENDBRANCH  29  30
ENDBRANCH  28  29
ENDBRANCH  26  28
ENDBRANCH  11  26
TORSDOF 8
