REMARK  Name = ZINC65458835
REMARK  8 active torsions:
REMARK  status: ('A' for Active; 'I' for Inactive)
REMARK    1  A    between atoms: C_1  and  C_2
REMARK    2  A    between atoms: C_2  and  N_3
REMARK    3  A    between atoms: N_3  and  C_4
REMARK    4  A    between atoms: C_4  and  C_5
REMARK    5  A    between atoms: C_5  and  C_6
REMARK    6  A    between atoms: C_13  and  C_16
REMARK    7  A    between atoms: C_17  and  C_19
REMARK    8  A    between atoms: N_27  and  C_29
REMARK                            x       y       z     vdW  Elec       q    Type
REMARK                         _______ _______ _______ _____ _____    ______ ____
ROOT
ATOM      1  N   UNL     1       0.731  -0.212  -1.352  0.00  0.00    -0.300 N 
ATOM      2  C   UNL     1      -0.025  -0.801  -2.300  0.00  0.00    +0.238 C 
ATOM      3  O   UNL     1       0.494  -1.515  -3.132  0.00  0.00    -0.273 OA
ENDROOT
BRANCH   2   4
ATOM      4  C   UNL     1      -1.514  -0.571  -2.327  0.00  0.00    +0.186 C 
ATOM      5  C   UNL     1      -2.232  -1.680  -1.601  0.00  0.00    -0.024 C 
ATOM      6  C   UNL     1      -3.022  -2.279  -2.476  0.00  0.00    +0.023 C 
ATOM      7  C   UNL     1      -3.915  -3.452  -2.128  0.00  0.00    +0.052 C 
ATOM      8  C   UNL     1      -3.434  -4.059  -0.806  0.00  0.00    +0.006 C 
ATOM      9  C   UNL     1      -3.280  -2.949   0.238  0.00  0.00    +0.005 C 
ATOM     10  C   UNL     1      -2.094  -2.057  -0.149  0.00  0.00    +0.034 C 
ATOM     11  N   UNL     1      -2.916  -1.691  -3.723  0.00  0.00    -0.273 N 
ATOM     12  N   UNL     1      -2.025  -0.652  -3.711  0.00  0.00    -0.225 NA
ATOM     13  C   UNL     1      -3.663  -2.124  -4.907  0.00  0.00    +0.149 C 
ATOM     14  H   UNL     1      -1.274  -0.811  -4.365  0.00  0.00    +0.146 HD
ENDBRANCH   2   4
BRANCH   1  16
ATOM     15  C   UNL     1       0.026   2.039  -0.707  0.00  0.00    +0.024 C 
ATOM     16  C   UNL     1       0.095   0.569  -0.289  0.00  0.00    +0.104 C 
ENDBRANCH   1  16
BRANCH   1  17
ATOM     17  C   UNL     1       2.189  -0.354  -1.385  0.00  0.00    +0.111 C 
BRANCH  17  18
ATOM     18  C   UNL     1       2.599  -1.590  -0.583  0.00  0.00    +0.065 C 
BRANCH  18  19
ATOM     19  C   UNL     1       4.122  -1.738  -0.617  0.00  0.00    +0.175 C 
ATOM     20  N   UNL     1       4.752  -0.635   0.119  0.00  0.00    -0.363 N 
ATOM     21  C   UNL     1       5.431  -1.158   1.100  0.00  0.00    +0.060 A 
ATOM     22  C   UNL     1       6.260  -0.574   2.163  0.00  0.00    +0.027 A 
ATOM     23  C   UNL     1       6.855  -1.383   3.062  0.00  0.00    +0.002 A 
ATOM     24  C   UNL     1       6.719  -2.783   3.030  0.00  0.00    +0.005 A 
ATOM     25  C   UNL     1       5.982  -3.420   2.098  0.00  0.00    -0.025 A 
ATOM     26  C   UNL     1       5.286  -2.639   1.066  0.00  0.00    +0.063 A 
ATOM     27  N   UNL     1       4.524  -2.975   0.064  0.00  0.00    -0.363 N 
ATOM     28  C   UNL     1       5.873  -4.923   2.114  0.00  0.00    +0.046 C 
ATOM     29  H   UNL     1       4.268  -3.877  -0.185  0.00  0.00    +0.162 HD
ATOM     30  H   UNL     1       4.677   0.309  -0.087  0.00  0.00    +0.162 HD
ENDBRANCH  18  19
ENDBRANCH  17  18
ENDBRANCH   1  17
TORSDOF 5
