REMARK  Name = ZINC45012383
REMARK  7 active torsions:
REMARK  status: ('A' for Active; 'I' for Inactive)
REMARK    1  A    between atoms: C_1  and  C_2
REMARK    2  A    between atoms: C_2  and  C_4
REMARK    3  A    between atoms: C_2  and  N_16
REMARK    4  A    between atoms: C_4  and  N_5
REMARK    5  A    between atoms: N_5  and  S_6
REMARK    6  A    between atoms: S_6  and  C_9
REMARK    7  A    between atoms: C_12  and  O_15
REMARK                            x       y       z     vdW  Elec       q    Type
REMARK                         _______ _______ _______ _____ _____    ______ ____
ROOT
ATOM      1  N   UNL     1       1.053  -1.889  -1.427  0.00  0.00    -0.191 NA
ATOM      2  H   UNL     1       0.904  -2.434  -0.639  0.00  0.00    +0.148 HD
ENDROOT
BRANCH   1   3
ATOM      3  S   UNL     1       1.591  -2.590  -2.828  0.00  0.00    +0.058 S 
ATOM      4  O   UNL     1       1.762  -3.973  -2.551  0.00  0.00    -0.153 OA
ATOM      5  O   UNL     1       0.744  -2.121  -3.868  0.00  0.00    -0.153 OA
BRANCH   3   6
ATOM      6  C   UNL     1       3.195  -1.938  -3.153  0.00  0.00    +0.105 A 
ATOM      7  C   UNL     1       3.333  -0.789  -3.910  0.00  0.00    +0.032 A 
ATOM      8  C   UNL     1       4.590  -0.277  -4.166  0.00  0.00    +0.047 A 
ATOM      9  C   UNL     1       5.715  -0.916  -3.664  0.00  0.00    +0.117 A 
ATOM     10  C   UNL     1       5.573  -2.069  -2.905  0.00  0.00    +0.047 A 
ATOM     11  C   UNL     1       4.314  -2.574  -2.647  0.00  0.00    +0.032 A 
BRANCH   9  12
ATOM     12  O   UNL     1       6.952  -0.414  -3.916  0.00  0.00    -0.507 OA
ATOM     13  H   UNL     1       7.261   0.220  -3.255  0.00  0.00    +0.292 HD
ENDBRANCH   9  12
ENDBRANCH   3   6
ENDBRANCH   1   3
BRANCH   1  14
ATOM     14  C   UNL     1       0.801  -0.447  -1.379  0.00  0.00    +0.090 C 
BRANCH  14  16
ATOM     15  C   UNL     1      -0.218   1.400  -0.042  0.00  0.00    -0.012 C 
ATOM     16  C   UNL     1      -0.023  -0.114  -0.134  0.00  0.00    -0.056 C 
BRANCH  16  17
ATOM     17  N   UNL     1       0.684  -0.590   1.063  0.00  0.00    +0.382 N 
ATOM     18  C   UNL     1      -0.170  -0.401   2.241  0.00  0.00    -0.078 C 
ATOM     19  C   UNL     1       0.528  -0.969   3.479  0.00  0.00    -0.019 C 
ATOM     20  C   UNL     1       1.859  -0.240   3.688  0.00  0.00    -0.004 C 
ATOM     21  C   UNL     1       2.711  -0.382   2.423  0.00  0.00    -0.019 C 
ATOM     22  C   UNL     1       1.932   0.165   1.225  0.00  0.00    -0.078 C 
ATOM     23  H   UNL     1       0.897  -1.571   0.958  0.00  0.00    -0.081 HD
ENDBRANCH  16  17
ENDBRANCH  14  16
ENDBRANCH   1  14
TORSDOF 6
