REMARK  Name = ZINC17072918
REMARK  6 active torsions:
REMARK  status: ('A' for Active; 'I' for Inactive)
REMARK    1  A    between atoms: C_1  and  C_2
REMARK    2  A    between atoms: C_5  and  O_9
REMARK    3  A    between atoms: C_6  and  C_8
REMARK    4  A    between atoms: O_9  and  C_10
REMARK    5  A    between atoms: C_10  and  C_12
REMARK    6  A    between atoms: C_10  and  C_13
REMARK                            x       y       z     vdW  Elec       q    Type
REMARK                         _______ _______ _______ _____ _____    ______ ____
ROOT
ATOM      1  C   UNL     1       2.372  -3.930  -0.958  0.00  0.00    +0.142 A 
ATOM      2  N   UNL     1       2.872  -4.210  -2.121  0.00  0.00    -0.155 NA
ATOM      3  N   UNL     1       2.646  -5.437  -2.740  0.00  0.00    -0.170 N 
ATOM      4  C   UNL     1       3.123  -5.834  -3.959  0.00  0.00    +0.283 A 
ATOM      5  O   UNL     1       3.823  -5.090  -4.623  0.00  0.00    -0.265 OA
ATOM      6  C   UNL     1       2.779  -7.167  -4.450  0.00  0.00    +0.067 A 
ATOM      7  C   UNL     1       3.232  -7.636  -5.686  0.00  0.00    +0.015 A 
ATOM      8  C   UNL     1       2.881  -8.890  -6.101  0.00  0.00    +0.001 A 
ATOM      9  C   UNL     1       2.081  -9.706  -5.309  0.00  0.00    +0.002 A 
ATOM     10  C   UNL     1       1.624  -9.276  -4.097  0.00  0.00    +0.028 A 
ATOM     11  C   UNL     1       1.964  -7.997  -3.645  0.00  0.00    +0.079 A 
ATOM     12  N   UNL     1       1.541  -7.523  -2.459  0.00  0.00    -0.221 NA
ATOM     13  C   UNL     1       1.865  -6.329  -2.048  0.00  0.00    +0.199 A 
ATOM     14  S   UNL     1       1.482  -5.425  -0.560  0.00  0.00    -0.029 S 
ENDROOT
BRANCH   1  15
ATOM     15  C   UNL     1       2.511  -2.667  -0.148  0.00  0.00    +0.227 C 
ATOM     16  C   UNL     1       3.051  -3.010   1.242  0.00  0.00    +0.059 C 
BRANCH  15  17
ATOM     17  O   UNL     1       1.234  -2.039  -0.021  0.00  0.00    -0.482 OA
BRANCH  17  22
ATOM     18  C   UNL     1       1.198   3.519   0.892  0.00  0.00    +0.044 C 
ATOM     19  C   UNL     1       1.208   2.032   0.648  0.00  0.00    -0.050 A 
ATOM     20  C   UNL     1       2.407   1.343   0.628  0.00  0.00    +0.007 A 
ATOM     21  C   UNL     1       2.418  -0.019   0.405  0.00  0.00    +0.046 A 
ATOM     22  C   UNL     1       1.226  -0.698   0.200  0.00  0.00    +0.124 A 
ATOM     23  C   UNL     1       0.024  -0.005   0.220  0.00  0.00    -0.009 A 
ATOM     24  C   UNL     1       0.018   1.358   0.444  0.00  0.00    +0.010 A 
ATOM     25  C   UNL     1      -1.274  -0.739  -0.002  0.00  0.00    +0.047 C 
ENDBRANCH  17  22
ENDBRANCH  15  17
ENDBRANCH   1  15
TORSDOF 3
