REMARK  Name = ZINC08881805
REMARK  11 active torsions:
REMARK  status: ('A' for Active; 'I' for Inactive)
REMARK    1  A    between atoms: C_1  and  C_2
REMARK    2  A    between atoms: N_5  and  S_11
REMARK    3  A    between atoms: C_7  and  C_10
REMARK    4  A    between atoms: S_11  and  C_14
REMARK    5  A    between atoms: C_17  and  C_20
REMARK    6  A    between atoms: N_22  and  C_23
REMARK    7  A    between atoms: C_24  and  C_35
REMARK    8  A    between atoms: C_28  and  C_33
REMARK    9  A    between atoms: C_28  and  C_34
REMARK   10  A    between atoms: C_29  and  C_31
REMARK   11  A    between atoms: C_29  and  C_32
REMARK                            x       y       z     vdW  Elec       q    Type
REMARK                         _______ _______ _______ _____ _____    ______ ____
ROOT
ATOM      1  C   UNL     1      -6.043   2.349  -3.489  0.00  0.00    +0.249 C 
ATOM      2  O   UNL     1      -5.524   3.441  -3.613  0.00  0.00    -0.270 OA
ATOM      3  N   UNL     1      -5.594   1.491  -2.551  0.00  0.00    -0.275 N 
ATOM      4  H   UNL     1      -6.009   0.620  -2.452  0.00  0.00    +0.156 HD
ENDROOT
BRANCH   3   5
ATOM      5  C   UNL     1      -4.514   1.863  -1.709  0.00  0.00    +0.090 A 
ATOM      6  C   UNL     1      -3.930   1.035  -0.657  0.00  0.00    +0.084 A 
ATOM      7  C   UNL     1      -2.923   1.686   0.098  0.00  0.00    -0.021 A 
ATOM      8  C   UNL     1      -2.575   2.997  -0.253  0.00  0.00    -0.015 A 
ATOM      9  S   UNL     1      -3.622   3.309  -1.574  0.00  0.00    -0.078 S 
ATOM     10  C   UNL     1      -1.496   3.771   0.357  0.00  0.00    -0.041 C 
ATOM     11  C   UNL     1      -0.740   1.587   1.286  0.00  0.00    -0.069 C 
ATOM     12  C   UNL     1      -2.122   1.068   1.315  0.00  0.00    +0.024 C 
ATOM     13  C   UNL     1      -0.013   1.086   0.008  0.00  0.00    -0.010 C 
ATOM     14  C   UNL     1       0.073   1.030   2.486  0.00  0.00    -0.010 C 
ATOM     15  C   UNL     1      -2.242   4.961   1.140  0.00  0.00    -0.005 C 
ATOM     16  C   UNL     1      -0.575   4.400  -0.745  0.00  0.00    -0.005 C 
ATOM     17  N   UNL     1      -0.737   3.083   1.396  0.00  0.00    +0.389 N 
ATOM     18  H   UNL     1      -1.137   3.338   2.306  0.00  0.00    -0.084 HD
ATOM     19  H   UNL     1       0.236   3.406   1.347  0.00  0.00    -0.084 HD
BRANCH   6  20
ATOM     20  C   UNL     1      -4.497  -0.203  -0.367  0.00  0.00    +0.102 C 
ATOM     21  N   UNL     1      -4.960  -1.213  -0.131  0.00  0.00    -0.191 NA
ENDBRANCH   6  20
ENDBRANCH   3   5
BRANCH   1  25
ATOM     22  C   UNL     1      -9.275   1.236  -6.010  0.00  0.00    +0.106 A 
ATOM     23  C   UNL     1      -8.686   2.480  -6.154  0.00  0.00    +0.029 A 
ATOM     24  C   UNL     1      -7.636   2.848  -5.338  0.00  0.00    +0.015 A 
ATOM     25  C   UNL     1      -7.168   1.962  -4.366  0.00  0.00    +0.037 A 
ATOM     26  C   UNL     1      -7.764   0.707  -4.230  0.00  0.00    +0.015 A 
ATOM     27  C   UNL     1      -8.816   0.353  -5.049  0.00  0.00    +0.029 A 
BRANCH  22  28
ATOM     28  S   UNL     1     -10.616   0.774  -7.057  0.00  0.00    +0.061 S 
ATOM     29  O   UNL     1     -11.349  -0.224  -6.361  0.00  0.00    -0.153 OA
ATOM     30  O   UNL     1     -11.213   1.982  -7.508  0.00  0.00    -0.153 OA
BRANCH  28  34
ATOM     31  C   UNL     1      -7.326  -1.170  -7.792  0.00  0.00    +0.039 C 
ATOM     32  C   UNL     1      -8.292  -1.665  -8.870  0.00  0.00    +0.131 C 
ATOM     33  C   UNL     1      -9.736  -1.412  -8.420  0.00  0.00    +0.140 C 
ATOM     34  N   UNL     1      -9.965   0.041  -8.391  0.00  0.00    -0.172 NA
ATOM     35  C   UNL     1      -9.604   0.822  -9.585  0.00  0.00    +0.140 C 
ATOM     36  C   UNL     1      -8.162   0.461  -9.976  0.00  0.00    +0.131 C 
ATOM     37  O   UNL     1      -8.049  -0.960 -10.089  0.00  0.00    -0.371 OA
ATOM     38  C   UNL     1      -7.821   1.110 -11.319  0.00  0.00    +0.039 C 
ENDBRANCH  28  34
ENDBRANCH  22  28
ENDBRANCH   1  25
TORSDOF 5
