REMARK  Name = ZINC36553007
REMARK  9 active torsions:
REMARK  status: ('A' for Active; 'I' for Inactive)
REMARK    1  A    between atoms: C_1  and  N_2
REMARK    2  A    between atoms: N_2  and  C_3
REMARK    3  A    between atoms: N_2  and  C_4
REMARK    4  A    between atoms: C_7  and  C_10
REMARK    5  A    between atoms: C_10  and  C_12
REMARK    6  A    between atoms: C_10  and  N_21
REMARK    7  A    between atoms: N_14  and  C_15
REMARK    8  A    between atoms: N_21  and  C_22
REMARK    9  A    between atoms: C_29  and  C_31
REMARK                            x       y       z     vdW  Elec       q    Type
REMARK                         _______ _______ _______ _____ _____    ______ ____
ROOT
ATOM      1  C   UNL     1      -0.464  -2.848  -5.787  0.00  0.00    +0.197 C 
ENDROOT
BRANCH   1   5
ATOM      2  C   UNL     1      -2.104  -1.155  -2.222  0.00  0.00    +0.029 A 
ATOM      3  C   UNL     1      -2.671  -2.296  -2.775  0.00  0.00    +0.023 A 
ATOM      4  C   UNL     1      -2.139  -2.840  -3.927  0.00  0.00    +0.008 A 
ATOM      5  C   UNL     1      -1.043  -2.250  -4.530  0.00  0.00    -0.018 A 
ATOM      6  C   UNL     1      -0.476  -1.114  -3.982  0.00  0.00    +0.008 A 
ATOM      7  C   UNL     1      -1.007  -0.561  -2.833  0.00  0.00    +0.023 A 
BRANCH   2   9
ATOM      8  C   UNL     1      -2.046   0.606  -0.478  0.00  0.00    +0.129 C 
ATOM      9  N   UNL     1      -2.641  -0.601  -1.057  0.00  0.00    -0.336 N 
ATOM     10  C   UNL     1      -3.798  -1.228  -0.413  0.00  0.00    +0.129 C 
ENDBRANCH   2   9
ENDBRANCH   1   5
BRANCH   1  11
ATOM     11  C   UNL     1      -1.526  -2.895  -6.856  0.00  0.00    +0.239 C 
ATOM     12  O   UNL     1      -1.460  -2.147  -7.809  0.00  0.00    -0.273 OA
ATOM     13  N   UNL     1      -2.548  -3.767  -6.752  0.00  0.00    -0.311 N 
ATOM     14  H   UNL     1      -2.600  -4.364  -5.990  0.00  0.00    +0.149 HD
BRANCH  13  15
ATOM     15  C   UNL     1      -3.580  -3.813  -7.791  0.00  0.00    +0.073 C 
ATOM     16  C   UNL     1      -4.645  -2.755  -7.498  0.00  0.00    +0.022 C 
ATOM     17  C   UNL     1      -5.723  -2.802  -8.583  0.00  0.00    +0.002 C 
ATOM     18  C   UNL     1      -6.371  -4.188  -8.598  0.00  0.00    +0.000 C 
ATOM     19  C   UNL     1      -5.305  -5.246  -8.891  0.00  0.00    +0.002 C 
ATOM     20  C   UNL     1      -4.227  -5.199  -7.806  0.00  0.00    +0.022 C 
ENDBRANCH  13  15
ENDBRANCH   1  11
BRANCH   1  21
ATOM     21  N   UNL     1       0.657  -2.024  -6.248  0.00  0.00    -0.254 N 
ATOM     22  C   UNL     1       1.882  -2.569  -6.383  0.00  0.00    +0.241 C 
ATOM     23  O   UNL     1       2.830  -1.866  -6.664  0.00  0.00    -0.273 OA
BRANCH  21  24
ATOM     24  C   UNL     1       0.455  -0.672  -6.548  0.00  0.00    +0.039 A 
ATOM     25  C   UNL     1      -0.749  -0.060  -6.224  0.00  0.00    +0.023 A 
ATOM     26  C   UNL     1      -0.946   1.274  -6.522  0.00  0.00    +0.003 A 
ATOM     27  C   UNL     1       0.054   2.001  -7.141  0.00  0.00    +0.020 A 
ATOM     28  C   UNL     1       1.255   1.395  -7.465  0.00  0.00    +0.043 A 
ATOM     29  C   UNL     1       1.460   0.061  -7.164  0.00  0.00    +0.043 A 
ATOM     30 CL   UNL     1       2.507   2.311  -8.242  0.00  0.00    -0.083 Cl
ENDBRANCH  21  24
BRANCH  22  31
ATOM     31  C   UNL     1       2.074  -4.050  -6.184  0.00  0.00    +0.160 C 
ATOM     32  C   UNL     1       2.458  -4.348  -4.718  0.00  0.00    +0.041 C 
ATOM     33  C   UNL     1       4.003  -4.359  -4.792  0.00  0.00    +0.098 C 
ATOM     34  C   UNL     1       4.302  -4.704  -6.234  0.00  0.00    +0.214 C 
ATOM     35  O   UNL     1       5.377  -5.086  -6.648  0.00  0.00    -0.276 OA
ATOM     36  N   UNL     1       3.203  -4.528  -6.991  0.00  0.00    -0.304 N 
ATOM     37  H   UNL     1       3.161  -4.696  -7.946  0.00  0.00    +0.149 HD
ENDBRANCH  22  31
ENDBRANCH   1  21
TORSDOF 7
