REMARK  Name = ZINC05124923
REMARK  3 active torsions:
REMARK  status: ('A' for Active; 'I' for Inactive)
REMARK    1  A    between atoms: C_1  and  C_2
REMARK    2  A    between atoms: C_2  and  O_3
REMARK    3  A    between atoms: O_3  and  C_4
REMARK                            x       y       z     vdW  Elec       q    Type
REMARK                         _______ _______ _______ _____ _____    ______ ____
ROOT
ATOM      1  C   UNL     1      -2.194   3.607   0.038  0.00  0.00    +0.161 C 
ATOM      2  C   UNL     1      -3.577   4.200   0.051  0.00  0.00    +0.078 A 
ATOM      3  C   UNL     1      -4.208   4.476   1.253  0.00  0.00    +0.139 A 
ATOM      4  C   UNL     1      -5.468   5.059   1.263  0.00  0.00    +0.047 A 
ATOM      5  C   UNL     1      -6.102   5.361   0.074  0.00  0.00    +0.007 A 
ATOM      6  C   UNL     1      -5.482   5.077  -1.127  0.00  0.00    +0.047 A 
ATOM      7  C   UNL     1      -4.222   4.492  -1.140  0.00  0.00    +0.139 A 
ATOM      8  O   UNL     1      -3.627   4.209  -2.322  0.00  0.00    -0.455 OA
ATOM      9  C   UNL     1      -2.669   3.252  -2.381  0.00  0.00    +0.137 A 
ATOM     10  C   UNL     1      -1.936   2.894  -1.247  0.00  0.00    +0.061 A 
ATOM     11  C   UNL     1      -0.967   1.921  -1.388  0.00  0.00    +0.104 A 
ATOM     12  C   UNL     1      -0.720   1.320  -2.609  0.00  0.00    +0.028 A 
ATOM     13  C   UNL     1      -1.449   1.679  -3.725  0.00  0.00    +0.005 A 
ATOM     14  C   UNL     1      -2.426   2.645  -3.605  0.00  0.00    +0.047 A 
ATOM     15  S   UNL     1      -0.017   1.417   0.010  0.00  0.00    +0.026 S 
ATOM     16  O   UNL     1       0.002  -0.004   0.002  0.00  0.00    -0.164 OA
ATOM     17  O   UNL     1       1.170   2.198   0.003  0.00  0.00    -0.164 OA
ATOM     18  C   UNL     1      -0.940   1.906   1.431  0.00  0.00    +0.104 A 
ATOM     19  C   UNL     1      -1.917   2.880   1.311  0.00  0.00    +0.061 A 
ATOM     20  C   UNL     1      -2.634   3.225   2.459  0.00  0.00    +0.137 A 
ATOM     21  C   UNL     1      -2.370   2.607   3.673  0.00  0.00    +0.047 A 
ATOM     22  C   UNL     1      -1.375   1.640   3.775  0.00  0.00    +0.005 A 
ATOM     23  C   UNL     1      -0.669   1.292   2.640  0.00  0.00    +0.028 A 
ATOM     24  O   UNL     1      -3.599   4.176   2.423  0.00  0.00    -0.455 OA
ENDROOT
BRANCH   1  25
ATOM     25  O   UNL     1      -1.302   4.724   0.047  0.00  0.00    -0.359 OA
BRANCH  25  27
ATOM     26  C   UNL     1      -0.409   6.697   1.119  0.00  0.00    +0.034 C 
ATOM     27  C   UNL     1      -1.404   5.538   1.217  0.00  0.00    +0.158 C 
ENDBRANCH  25  27
ENDBRANCH   1  25
TORSDOF 2
