REMARK  Name = ZINC25074235
REMARK  9 active torsions:
REMARK  status: ('A' for Active; 'I' for Inactive)
REMARK    1  A    between atoms: C_1  and  C_2
REMARK    2  A    between atoms: C_2  and  C_3
REMARK    3  A    between atoms: C_3  and  N_4
REMARK    4  A    between atoms: N_4  and  C_5
REMARK    5  A    between atoms: N_4  and  C_18
REMARK    6  A    between atoms: C_5  and  C_6
REMARK    7  A    between atoms: C_19  and  N_34
REMARK    8  A    between atoms: N_20  and  C_27
REMARK    9  A    between atoms: C_27  and  C_28
REMARK                            x       y       z     vdW  Elec       q    Type
REMARK                         _______ _______ _______ _____ _____    ______ ____
ROOT
ATOM      1  C   UNL     1      -6.264   5.159   1.481  0.00  0.00    +0.134 A 
ATOM      2  C   UNL     1      -7.076   4.746   2.501  0.00  0.00    +0.127 A 
ATOM      3  N   UNL     1      -8.331   5.297   2.630  0.00  0.00    -0.276 N 
ATOM      4  C   UNL     1      -8.759   6.226   1.756  0.00  0.00    +0.331 A 
ATOM      5  O   UNL     1      -9.873   6.699   1.883  0.00  0.00    -0.246 OA
ATOM      6  N   UNL     1      -7.975   6.640   0.744  0.00  0.00    -0.273 N 
ATOM      7  H   UNL     1      -8.343   7.401   0.040  0.00  0.00    +0.173 HD
ATOM      8  C   UNL     1      -6.738   6.132   0.582  0.00  0.00    +0.277 A 
ATOM      9  O   UNL     1      -6.034   6.513  -0.338  0.00  0.00    -0.266 OA
ENDROOT
BRANCH   2  10
ATOM     10  N   UNL     1      -6.642   3.792   3.393  0.00  0.00    -0.343 N 
ATOM     11  H   UNL     1      -7.299   3.463   4.211  0.00  0.00    +0.144 HD
ATOM     12  H   UNL     1      -5.636   3.358   3.287  0.00  0.00    +0.144 HD
ENDBRANCH   2  10
BRANCH   1  13
ATOM     13  N   UNL     1      -4.968   4.613   1.329  0.00  0.00    -0.317 N 
BRANCH  13  14
ATOM     14  C   UNL     1      -3.942   5.660   1.414  0.00  0.00    +0.105 C 
BRANCH  14  16
ATOM     15  C   UNL     1      -2.857   7.337   2.915  0.00  0.00    +0.005 C 
ATOM     16  C   UNL     1      -3.926   6.246   2.827  0.00  0.00    +0.015 C 
ENDBRANCH  14  16
ENDBRANCH  13  14
BRANCH  13  17
ATOM     17  C   UNL     1      -4.856   3.867   0.069  0.00  0.00    +0.160 C 
BRANCH  17  18
ATOM     18  C   UNL     1      -3.559   3.099   0.052  0.00  0.00    +0.066 A 
ATOM     19  C   UNL     1      -3.574   1.718   0.044  0.00  0.00    +0.095 A 
ATOM     20  C   UNL     1      -2.357   1.028   0.029  0.00  0.00    +0.259 A 
ATOM     21  O   UNL     1      -2.336  -0.193   0.022  0.00  0.00    -0.267 OA
ATOM     22  N   UNL     1      -1.206   1.733   0.017  0.00  0.00    -0.267 N 
ATOM     23  C   UNL     1      -0.013   1.076   0.008  0.00  0.00    +0.116 A 
ATOM     24  C   UNL     1       1.154   1.761   0.001  0.00  0.00    +0.058 A 
ATOM     25  C   UNL     1       1.147   3.164   0.009  0.00  0.00    +0.025 A 
ATOM     26  C   UNL     1      -0.041   3.830   0.024  0.00  0.00    +0.048 A 
ATOM     27  C   UNL     1      -1.244   3.099   0.031  0.00  0.00    +0.141 A 
ATOM     28  N   UNL     1      -2.406   3.750   0.045  0.00  0.00    -0.232 NA
ATOM     29 CL   UNL     1       2.663   0.902  -0.018  0.00  0.00    -0.082 Cl
ENDBRANCH  17  18
ENDBRANCH  13  17
ENDBRANCH   1  13
BRANCH   3  30
ATOM     30  C   UNL     1      -9.207   4.865   3.722  0.00  0.00    +0.163 C 
BRANCH  30  31
ATOM     31  C   UNL     1     -10.037   3.693   3.266  0.00  0.00    -0.028 A 
ATOM     32  C   UNL     1     -11.270   3.905   2.678  0.00  0.00    +0.005 A 
ATOM     33  C   UNL     1     -12.029   2.830   2.255  0.00  0.00    +0.000 A 
ATOM     34  C   UNL     1     -11.560   1.542   2.431  0.00  0.00    +0.000 A 
ATOM     35  C   UNL     1     -10.330   1.329   3.025  0.00  0.00    +0.000 A 
ATOM     36  C   UNL     1      -9.569   2.404   3.443  0.00  0.00    +0.005 A 
ENDBRANCH  30  31
ENDBRANCH   3  30
TORSDOF 8
