REMARK  Name = ZINC36897416
REMARK  5 active torsions:
REMARK  status: ('A' for Active; 'I' for Inactive)
REMARK    1  A    between atoms: C_1  and  C_2
REMARK    2  A    between atoms: C_5  and  C_21
REMARK    3  A    between atoms: C_6  and  N_8
REMARK    4  A    between atoms: N_8  and  C_9
REMARK    5  A    between atoms: C_9  and  C_10
REMARK                            x       y       z     vdW  Elec       q    Type
REMARK                         _______ _______ _______ _____ _____    ______ ____
ROOT
ATOM      1  C   UNL     1       0.048  -2.074   3.664  0.00  0.00    +0.137 C 
ENDROOT
BRANCH   1   2
ATOM      2  C   UNL     1       0.067  -3.061   4.803  0.00  0.00    -0.026 A 
ATOM      3  C   UNL     1      -1.123  -3.534   5.326  0.00  0.00    +0.054 A 
ATOM      4  C   UNL     1      -1.109  -4.443   6.373  0.00  0.00    +0.163 A 
ATOM      5  C   UNL     1       0.104  -4.880   6.893  0.00  0.00    +0.176 A 
ATOM      6  C   UNL     1       1.294  -4.401   6.365  0.00  0.00    +0.063 A 
ATOM      7  C   UNL     1       1.273  -3.497   5.318  0.00  0.00    +0.024 A 
ATOM      8 BR   UNL     1       2.946  -4.989   7.072  0.00  0.00    -0.046 Br
ATOM      9  O   UNL     1       0.140  -5.777   7.916  0.00  0.00    -0.484 OA
ATOM     10  C   UNL     1      -1.069  -5.949   8.664  0.00  0.00    +0.270 C 
ATOM     11  C   UNL     1      -2.232  -6.086   7.673  0.00  0.00    +0.270 C 
ATOM     12  O   UNL     1      -2.288  -4.895   6.880  0.00  0.00    -0.485 OA
ENDBRANCH   1   2
BRANCH   1  13
ATOM     13  N   UNL     1       0.051  -2.796   2.390  0.00  0.00    -0.340 N 
ATOM     14  H   UNL     1       0.064  -3.766   2.383  0.00  0.00    +0.146 HD
BRANCH  13  20
ATOM     15  C   UNL     1      -0.018   1.503   0.010  0.00  0.00    +0.044 C 
ATOM     16  C   UNL     1       0.002  -0.004   0.002  0.00  0.00    -0.049 A 
ATOM     17  C   UNL     1       0.006  -0.688  -1.200  0.00  0.00    +0.004 A 
ATOM     18  C   UNL     1       0.024  -2.071  -1.212  0.00  0.00    +0.005 A 
ATOM     19  C   UNL     1       0.039  -2.773  -0.023  0.00  0.00    -0.030 A 
ATOM     20  C   UNL     1       0.036  -2.089   1.186  0.00  0.00    +0.031 A 
ATOM     21  C   UNL     1       0.023  -0.700   1.194  0.00  0.00    +0.026 A 
ATOM     22  C   UNL     1       0.059  -4.280  -0.037  0.00  0.00    +0.045 C 
ENDBRANCH  13  20
ENDBRANCH   1  13
TORSDOF 3
