REMARK  Name = ZINC03765630
REMARK  8 active torsions:
REMARK  status: ('A' for Active; 'I' for Inactive)
REMARK    1  A    between atoms: C_1  and  C_2
REMARK    2  A    between atoms: C_2  and  N_3
REMARK    3  A    between atoms: C_5  and  C_12
REMARK    4  A    between atoms: C_12  and  C_13
REMARK    5  A    between atoms: C_13  and  C_14
REMARK    6  A    between atoms: C_14  and  C_16
REMARK    7  A    between atoms: C_14  and  N_17
REMARK    8  A    between atoms: C_18  and  C_20
REMARK                            x       y       z     vdW  Elec       q    Type
REMARK                         _______ _______ _______ _____ _____    ______ ____
ROOT
ATOM      1  C   UNL     1      -0.302  -2.027   7.445  0.00  0.00    +0.070 C 
ATOM      2  C   UNL     1      -1.194  -1.644   8.627  0.00  0.00    +0.028 C 
ENDROOT
BRANCH   1   3
ATOM      3  N   UNL     1       1.062  -2.270   7.920  0.00  0.00    -0.309 N 
ATOM      4  C   UNL     1       1.402  -3.482   8.402  0.00  0.00    +0.246 C 
ATOM      5  O   UNL     1       0.577  -4.373   8.443  0.00  0.00    -0.270 OA
ATOM      6  H   UNL     1       1.721  -1.559   7.887  0.00  0.00    +0.149 HD
BRANCH   4   7
ATOM      7  C   UNL     1       2.778  -3.726   8.881  0.00  0.00    +0.055 A 
ATOM      8  C   UNL     1       3.729  -2.704   8.836  0.00  0.00    +0.016 A 
ATOM      9  C   UNL     1       5.011  -2.938   9.284  0.00  0.00    +0.021 A 
ATOM     10  C   UNL     1       5.358  -4.185   9.780  0.00  0.00    +0.042 A 
ATOM     11  C   UNL     1       4.422  -5.203   9.828  0.00  0.00    +0.040 A 
ATOM     12  C   UNL     1       3.132  -4.980   9.387  0.00  0.00    +0.054 A 
ATOM     13 CL   UNL     1       1.956  -6.255   9.456  0.00  0.00    -0.083 Cl
ATOM     14 CL   UNL     1       6.975  -4.471  10.343  0.00  0.00    -0.083 Cl
ENDBRANCH   4   7
ENDBRANCH   1   3
BRANCH   1  15
ATOM     15  C   UNL     1      -0.291  -0.888   6.424  0.00  0.00    +0.027 C 
BRANCH  15  16
ATOM     16  C   UNL     1       0.497  -1.319   5.186  0.00  0.00    +0.039 C 
BRANCH  16  19
ATOM     17  N   UNL     1      -0.020   1.094   2.454  0.00  0.00    -0.347 N 
ATOM     18  C   UNL     1      -0.337  -0.042   3.149  0.00  0.00    +0.090 A 
ATOM     19  C   UNL     1       0.508  -0.197   4.180  0.00  0.00    -0.022 A 
ATOM     20  C   UNL     1       1.442   0.931   4.143  0.00  0.00    +0.003 A 
ATOM     21  C   UNL     1       1.067   1.709   3.033  0.00  0.00    +0.049 A 
ATOM     22  C   UNL     1       1.786   2.862   2.735  0.00  0.00    +0.026 A 
ATOM     23  C   UNL     1       2.855   3.225   3.525  0.00  0.00    +0.002 A 
ATOM     24  C   UNL     1       3.223   2.452   4.617  0.00  0.00    +0.001 A 
ATOM     25  C   UNL     1       2.525   1.320   4.933  0.00  0.00    +0.010 A 
BRANCH  17  27
ATOM     26  C   UNL     1      -0.013   1.086   0.008  0.00  0.00    +0.027 C 
ATOM     27  C   UNL     1      -0.729   1.579   1.267  0.00  0.00    +0.118 C 
ENDBRANCH  17  27
ENDBRANCH  16  19
ENDBRANCH  15  16
ENDBRANCH   1  15
TORSDOF 6
