REMARK  Name = ZINC04708753
REMARK  6 active torsions:
REMARK  status: ('A' for Active; 'I' for Inactive)
REMARK    1  A    between atoms: C_2  and  C_3
REMARK    2  A    between atoms: C_3  and  N_4
REMARK    3  A    between atoms: C_7  and  C_12
REMARK    4  A    between atoms: N_21  and  C_23
REMARK    5  A    between atoms: C_23  and  C_24
REMARK    6  A    between atoms: C_24  and  N_56
REMARK                            x       y       z     vdW  Elec       q    Type
REMARK                         _______ _______ _______ _____ _____    ______ ____
ROOT
ATOM      1  N   UNL     1      -4.712   5.042  -4.121  0.00  0.00    -0.253 N 
ATOM      2  C   UNL     1      -3.549   4.711  -3.486  0.00  0.00    +0.043 C 
ATOM      3  C   UNL     1      -2.352   4.905  -4.076  0.00  0.00    +0.058 C 
ATOM      4  C   UNL     1      -2.340   5.502  -5.468  0.00  0.00    +0.142 C 
ATOM      5  N   UNL     1      -3.647   5.824  -6.066  0.00  0.00    -0.288 N 
ATOM      6  C   UNL     1      -4.760   5.571  -5.351  0.00  0.00    +0.307 C 
ATOM      7  O   UNL     1      -5.844   5.833  -5.836  0.00  0.00    -0.252 OA
ATOM      8  C   UNL     1      -1.311   4.492  -3.219  0.00  0.00    +0.247 C 
ATOM      9  O   UNL     1      -0.126   4.559  -3.493  0.00  0.00    -0.270 OA
ATOM     10  N   UNL     1      -1.797   4.012  -2.060  0.00  0.00    -0.294 N 
ATOM     11  C   UNL     1      -3.262   4.113  -2.127  0.00  0.00    +0.159 C 
ATOM     12  H   UNL     1      -3.705   6.208  -6.955  0.00  0.00    +0.151 HD
ENDROOT
BRANCH   4  13
ATOM     13  C   UNL     1      -1.526   6.770  -5.424  0.00  0.00    -0.021 A 
ATOM     14  C   UNL     1      -0.215   6.765  -5.862  0.00  0.00    +0.006 A 
ATOM     15  C   UNL     1       0.533   7.927  -5.822  0.00  0.00    +0.002 A 
ATOM     16  C   UNL     1      -0.031   9.095  -5.342  0.00  0.00    +0.020 A 
ATOM     17  C   UNL     1      -1.343   9.100  -4.903  0.00  0.00    +0.041 A 
ATOM     18  C   UNL     1      -2.092   7.938  -4.950  0.00  0.00    +0.025 A 
ATOM     19 CL   UNL     1      -2.050  10.566  -4.301  0.00  0.00    -0.084 Cl
ENDBRANCH   4  13
BRANCH   1  20
ATOM     20  C   UNL     1      -5.976   4.803  -3.420  0.00  0.00    +0.141 C 
BRANCH  20  22
ATOM     21  C   UNL     1      -7.512   6.593  -2.792  0.00  0.00    +0.005 C 
ATOM     22  C   UNL     1      -6.345   6.025  -2.619  0.00  0.00    -0.015 C 
ENDBRANCH  20  22
ENDBRANCH   1  20
BRANCH  10  23
ATOM     23  C   UNL     1      -1.012   3.492  -0.938  0.00  0.00    +0.090 C 
BRANCH  23  24
ATOM     24  C   UNL     1      -0.804   1.986  -1.115  0.00  0.00    -0.060 C 
BRANCH  24  30
ATOM     25  C   UNL     1       1.344   2.014   0.000  0.00  0.00    -0.079 C 
ATOM     26  C   UNL     1       2.086   1.565   1.261  0.00  0.00    -0.019 C 
ATOM     27  C   UNL     1       2.133   0.035   1.302  0.00  0.00    -0.004 C 
ATOM     28  C   UNL     1       0.704  -0.513   1.263  0.00  0.00    -0.019 C 
ATOM     29  C   UNL     1       0.002  -0.004   0.002  0.00  0.00    -0.079 C 
ATOM     30  N   UNL     1      -0.032   1.474   0.035  0.00  0.00    +0.381 N 
ATOM     31  H   UNL     1      -0.487   1.777   0.904  0.00  0.00    -0.082 HD
ENDBRANCH  24  30
ENDBRANCH  23  24
ENDBRANCH  10  23
TORSDOF 6
