REMARK  Name = ZINC10002624
REMARK  12 active torsions:
REMARK  status: ('A' for Active; 'I' for Inactive)
REMARK    1  A    between atoms: C_1  and  C_2
REMARK    2  A    between atoms: C_2  and  C_3
REMARK    3  A    between atoms: C_2  and  C_4
REMARK    4  A    between atoms: C_4  and  C_5
REMARK    5  A    between atoms: C_5  and  C_7
REMARK    6  A    between atoms: C_5  and  N_23
REMARK    7  A    between atoms: N_9  and  N_10
REMARK    8  A    between atoms: C_11  and  C_12
REMARK    9  A    between atoms: C_15  and  O_19
REMARK   10  A    between atoms: O_19  and  C_20
REMARK   11  A    between atoms: C_20  and  C_21
REMARK   12  A    between atoms: C_24  and  C_26
REMARK                            x       y       z     vdW  Elec       q    Type
REMARK                         _______ _______ _______ _____ _____    ______ ____
ROOT
ATOM      1  C   UNL     1       3.230  -5.071  -0.792  0.00  0.00    +0.253 C 
ATOM      2  O   UNL     1       4.064  -4.343  -1.288  0.00  0.00    -0.272 OA
ATOM      3  N   UNL     1       3.346  -6.408  -0.913  0.00  0.00    -0.205 N 
ATOM      4  H   UNL     1       2.680  -6.991  -0.516  0.00  0.00    +0.177 HD
ENDROOT
BRANCH   3   5
ATOM      5  N   UNL     1       4.429  -6.957  -1.612  0.00  0.00    -0.188 NA
ATOM      6  C   UNL     1       4.541  -8.245  -1.728  0.00  0.00    +0.138 C 
BRANCH   6   7
ATOM      7  C   UNL     1       5.681  -8.822  -2.464  0.00  0.00    -0.004 A 
ATOM      8  C   UNL     1       6.639  -7.984  -3.041  0.00  0.00    +0.013 A 
ATOM      9  C   UNL     1       7.706  -8.528  -3.724  0.00  0.00    +0.047 A 
ATOM     10  C   UNL     1       7.824  -9.906  -3.848  0.00  0.00    +0.135 A 
ATOM     11  C   UNL     1       6.871 -10.743  -3.280  0.00  0.00    +0.060 A 
ATOM     12  C   UNL     1       5.803 -10.208  -2.591  0.00  0.00    +0.028 A 
ATOM     13 BR   UNL     1       7.038 -12.619  -3.453  0.00  0.00    -0.046 Br
BRANCH  10  14
ATOM     14  O   UNL     1       8.874 -10.438  -4.526  0.00  0.00    -0.487 OA
BRANCH  14  15
ATOM     15  C   UNL     1       9.817  -9.520  -5.084  0.00  0.00    +0.256 C 
BRANCH  15  16
ATOM     16  C   UNL     1      10.904 -10.286  -5.794  0.00  0.00    +0.006 C 
ATOM     17  C   UNL     1      11.307  -9.904  -6.980  0.00  0.00    +0.007 C 
ENDBRANCH  15  16
ENDBRANCH  14  15
ENDBRANCH  10  14
ENDBRANCH   6   7
ENDBRANCH   3   5
BRANCH   1  18
ATOM     18  C   UNL     1       2.065  -4.481  -0.040  0.00  0.00    +0.161 C 
BRANCH  18  19
ATOM     19  N   UNL     1       2.173  -3.020  -0.041  0.00  0.00    -0.300 N 
ATOM     20  C   UNL     1       1.077  -2.263   0.169  0.00  0.00    +0.245 C 
ATOM     21  O   UNL     1      -0.014  -2.789   0.269  0.00  0.00    -0.270 OA
ATOM     22  H   UNL     1       3.033  -2.597  -0.192  0.00  0.00    +0.150 HD
BRANCH  20  23
ATOM     23  C   UNL     1       1.203  -0.795   0.277  0.00  0.00    +0.037 A 
ATOM     24  C   UNL     1       0.070  -0.008   0.494  0.00  0.00    +0.014 A 
ATOM     25  C   UNL     1       0.194   1.361   0.594  0.00  0.00    +0.021 A 
ATOM     26  C   UNL     1       1.439   1.957   0.479  0.00  0.00    +0.041 A 
ATOM     27  C   UNL     1       2.567   1.182   0.264  0.00  0.00    +0.021 A 
ATOM     28  C   UNL     1       2.456  -0.188   0.163  0.00  0.00    +0.014 A 
ATOM     29 CL   UNL     1       1.587   3.682   0.605  0.00  0.00    -0.084 Cl
ENDBRANCH  20  23
ENDBRANCH  18  19
BRANCH  18  30
ATOM     30  C   UNL     1       2.077  -4.992   1.402  0.00  0.00    +0.034 C 
BRANCH  30  32
ATOM     31  C   UNL     1       3.219  -4.793   3.615  0.00  0.00    +0.007 C 
ATOM     32  C   UNL     1       3.306  -4.442   2.128  0.00  0.00    -0.015 C 
ATOM     33  C   UNL     1       4.571  -5.062   1.532  0.00  0.00    +0.007 C 
ENDBRANCH  30  32
ENDBRANCH  18  30
ENDBRANCH   1  18
TORSDOF 10
