REMARK  Name = ZINC19755941
REMARK  7 active torsions:
REMARK  status: ('A' for Active; 'I' for Inactive)
REMARK    1  A    between atoms: C_1  and  C_2
REMARK    2  A    between atoms: C_2  and  C_3
REMARK    3  A    between atoms: C_2  and  C_4
REMARK    4  A    between atoms: C_9  and  N_10
REMARK    5  A    between atoms: C_11  and  C_13
REMARK    6  A    between atoms: C_13  and  N_14
REMARK    7  A    between atoms: C_22  and  N_24
REMARK                            x       y       z     vdW  Elec       q    Type
REMARK                         _______ _______ _______ _____ _____    ______ ____
ROOT
ATOM      1  C   UNL     1      -0.128   1.547  -0.098  0.00  0.00    +0.201 C 
ENDROOT
BRANCH   1   2
ATOM      2  N   UNL     1      -0.975   1.661   1.097  0.00  0.00    -0.315 N 
ATOM      3  C   UNL     1      -2.156   0.797   0.989  0.00  0.00    +0.146 C 
ATOM      4  C   UNL     1      -2.933   0.863   2.310  0.00  0.00    +0.248 C 
ATOM      5  O   UNL     1      -2.093   0.333   3.341  0.00  0.00    -0.488 OA
ATOM      6  C   UNL     1      -0.799   0.757   3.356  0.00  0.00    +0.143 A 
ATOM      7  C   UNL     1      -0.238   1.404   2.261  0.00  0.00    +0.073 A 
ATOM      8  C   UNL     1       1.091   1.813   2.311  0.00  0.00    +0.028 A 
ATOM      9  C   UNL     1       1.850   1.582   3.441  0.00  0.00    +0.025 A 
ATOM     10  C   UNL     1       1.288   0.939   4.536  0.00  0.00    +0.028 A 
ATOM     11  C   UNL     1      -0.036   0.528   4.491  0.00  0.00    +0.070 A 
BRANCH  10  12
ATOM     12  N   UNL     1       2.057   0.707   5.683  0.00  0.00    -0.358 N 
ATOM     13  H   UNL     1       1.611   0.197   6.549  0.00  0.00    +0.142 HD
ATOM     14  H   UNL     1       3.106   1.034   5.717  0.00  0.00    +0.142 HD
ENDBRANCH  10  12
ENDBRANCH   1   2
BRANCH   1  16
ATOM     15  N   UNL     1       1.079  -0.240  -1.310  0.00  0.00    -0.284 N 
ATOM     16  C   UNL     1       0.381   0.134  -0.220  0.00  0.00    +0.235 C 
ATOM     17  O   UNL     1       0.163  -0.668   0.665  0.00  0.00    -0.274 OA
ATOM     18  H   UNL     1       1.352   0.506  -2.071  0.00  0.00    +0.155 HD
BRANCH  15  24
ATOM     19  C   UNL     1       2.505  -1.905  -2.324  0.00  0.00    -0.024 A 
ATOM     20  C   UNL     1       2.875  -3.226  -2.485  0.00  0.00    +0.006 A 
ATOM     21  C   UNL     1       2.202  -4.222  -1.802  0.00  0.00    +0.000 A 
ATOM     22  C   UNL     1       1.157  -3.899  -0.955  0.00  0.00    +0.002 A 
ATOM     23  C   UNL     1       0.786  -2.580  -0.786  0.00  0.00    +0.023 A 
ATOM     24  C   UNL     1       1.456  -1.578  -1.475  0.00  0.00    +0.037 A 
BRANCH  19  26
ATOM     25  C   UNL     1       4.738  -0.926  -2.777  0.00  0.00    +0.012 C 
ATOM     26  C   UNL     1       3.240  -0.820  -3.068  0.00  0.00    +0.015 C 
ATOM     27  C   UNL     1       3.000  -0.980  -4.571  0.00  0.00    +0.012 C 
ENDBRANCH  19  26
ENDBRANCH  15  24
ENDBRANCH   1  16
TORSDOF 5
