REMARK  Name = ZINC24639616
REMARK  8 active torsions:
REMARK  status: ('A' for Active; 'I' for Inactive)
REMARK    1  A    between atoms: C_1  and  O_2
REMARK    2  A    between atoms: O_2  and  C_3
REMARK    3  A    between atoms: C_6  and  C_9
REMARK    4  A    between atoms: C_11  and  S_14
REMARK    5  A    between atoms: S_14  and  C_15
REMARK    6  A    between atoms: C_15  and  C_16
REMARK    7  A    between atoms: C_19  and  C_29
REMARK    8  A    between atoms: C_22  and  C_24
REMARK                            x       y       z     vdW  Elec       q    Type
REMARK                         _______ _______ _______ _____ _____    ______ ____
ROOT
ATOM      1  C   UNL     1       3.273   2.283   2.167  0.00  0.00    +0.246 C 
ATOM      2  O   UNL     1       2.369   1.727   2.754  0.00  0.00    -0.273 OA
ATOM      3  N   UNL     1       3.423   2.107   0.839  0.00  0.00    -0.184 N 
ATOM      4  C   UNL     1       2.565   1.272  -0.016  0.00  0.00    +0.143 C 
ATOM      5  C   UNL     1       3.182   1.434  -1.419  0.00  0.00    +0.088 C 
ATOM      6  C   UNL     1       4.352   2.366  -1.198  0.00  0.00    +0.075 C 
ATOM      7  N   UNL     1       4.416   2.686   0.051  0.00  0.00    -0.180 NA
ENDROOT
BRANCH   6   8
ATOM      8  C   UNL     1       5.270   2.835  -2.240  0.00  0.00    +0.035 A 
ATOM      9  C   UNL     1       6.358   3.683  -2.128  0.00  0.00    +0.017 A 
ATOM     10  C   UNL     1       7.076   3.979  -3.264  0.00  0.00    +0.008 A 
ATOM     11  C   UNL     1       6.697   3.436  -4.450  0.00  0.00    +0.046 A 
ATOM     12  S   UNL     1       5.280   2.455  -3.985  0.00  0.00    -0.095 S 
ENDBRANCH   6   8
BRANCH   4  13
ATOM     13  C   UNL     1       1.146   1.780   0.001  0.00  0.00    +0.013 A 
ATOM     14  C   UNL     1      -0.013   1.076   0.008  0.00  0.00    +0.013 A 
ATOM     15  C   UNL     1      -1.213   1.761   0.017  0.00  0.00    +0.008 A 
ATOM     16  C   UNL     1      -1.196   3.116   0.030  0.00  0.00    +0.045 A 
ATOM     17  S   UNL     1       0.555   3.464   0.015  0.00  0.00    -0.100 S 
ENDBRANCH   4  13
BRANCH   1  18
ATOM     18  C   UNL     1       4.230   3.169   2.922  0.00  0.00    +0.175 C 
BRANCH  18  19
ATOM     19  S   UNL     1       3.768   3.202   4.672  0.00  0.00    -0.077 S 
BRANCH  19  22
ATOM     20  C   UNL     1       6.262   5.508   6.604  0.00  0.00    +0.182 A 
ATOM     21  N   UNL     1       5.162   4.681   6.594  0.00  0.00    -0.201 NA
ATOM     22  C   UNL     1       5.014   4.279   5.297  0.00  0.00    +0.185 A 
ATOM     23  N   UNL     1       5.974   4.847   4.602  0.00  0.00    -0.253 N 
ATOM     24  N   UNL     1       6.710   5.566   5.371  0.00  0.00    -0.152 NA
ATOM     25  H   UNL     1       6.201   4.782   3.527  0.00  0.00    +0.191 HD
BRANCH  20  29
ATOM     26  C   UNL     1       7.898   7.496   9.984  0.00  0.00    +0.120 A 
ATOM     27  C   UNL     1       8.479   7.663   8.734  0.00  0.00    +0.046 A 
ATOM     28  C   UNL     1       7.951   7.020   7.635  0.00  0.00    +0.015 A 
ATOM     29  C   UNL     1       6.832   6.199   7.780  0.00  0.00    +0.021 A 
ATOM     30  C   UNL     1       6.247   6.037   9.037  0.00  0.00    +0.015 A 
ATOM     31  C   UNL     1       6.784   6.680  10.132  0.00  0.00    +0.046 A 
BRANCH  26  33
ATOM     32  C   UNL     1       7.775   7.915  12.320  0.00  0.00    +0.277 C 
ATOM     33  O   UNL     1       8.422   8.131  11.065  0.00  0.00    -0.495 OA
ENDBRANCH  26  33
ENDBRANCH  20  29
ENDBRANCH  19  22
ENDBRANCH  18  19
ENDBRANCH   1  18
TORSDOF 7
