REMARK  Name = ZINC12547057
REMARK  9 active torsions:
REMARK  status: ('A' for Active; 'I' for Inactive)
REMARK    1  A    between atoms: C_1  and  C_2
REMARK    2  A    between atoms: C_7  and  O_8
REMARK    3  A    between atoms: O_8  and  C_9
REMARK    4  A    between atoms: C_9  and  C_10
REMARK    5  A    between atoms: N_12  and  N_13
REMARK    6  A    between atoms: C_14  and  C_15
REMARK    7  A    between atoms: C_17  and  C_26
REMARK    8  A    between atoms: C_17  and  C_27
REMARK    9  A    between atoms: N_24  and  C_25
REMARK                            x       y       z     vdW  Elec       q    Type
REMARK                         _______ _______ _______ _____ _____    ______ ____
ROOT
ATOM      1  N   UNL     1       4.292   3.977   0.031  0.00  0.00    -0.188 NA
ATOM      2  C   UNL     1       3.659   2.844  -0.081  0.00  0.00    +0.132 C 
ENDROOT
BRANCH   2   3
ATOM      3  C   UNL     1       2.202   2.807   0.026  0.00  0.00    +0.041 C 
ATOM      4  C   UNL     1       1.558   1.627   0.024  0.00  0.00    +0.022 C 
ATOM      5  C   UNL     1       0.060   1.415  -0.017  0.00  0.00    +0.030 C 
ATOM      6  C   UNL     1      -0.105  -0.087  -0.002  0.00  0.00    -0.015 A 
ATOM      7  C   UNL     1      -1.217  -0.900  -0.024  0.00  0.00    +0.006 A 
ATOM      8  C   UNL     1      -1.067  -2.276  -0.002  0.00  0.00    +0.000 A 
ATOM      9  C   UNL     1       0.199  -2.830   0.043  0.00  0.00    +0.002 A 
ATOM     10  C   UNL     1       1.314  -2.019   0.065  0.00  0.00    +0.024 A 
ATOM     11  C   UNL     1       1.172  -0.632   0.043  0.00  0.00    +0.038 A 
ATOM     12  N   UNL     1       2.133   0.377   0.058  0.00  0.00    -0.306 N 
ATOM     13  C   UNL     1       3.578   0.137   0.104  0.00  0.00    +0.135 C 
ATOM     14  C   UNL     1      -0.529   2.005  -1.300  0.00  0.00    +0.022 C 
ATOM     15  C   UNL     1      -0.603   2.039   1.213  0.00  0.00    +0.022 C 
ENDBRANCH   2   3
BRANCH   1  18
ATOM     16  C   UNL     1       6.343   5.185   0.044  0.00  0.00    +0.270 C 
ATOM     17  O   UNL     1       5.722   6.210   0.238  0.00  0.00    -0.270 OA
ATOM     18  N   UNL     1       5.688   4.013  -0.071  0.00  0.00    -0.204 N 
ATOM     19  H   UNL     1       6.184   3.194  -0.226  0.00  0.00    +0.177 HD
BRANCH  16  20
ATOM     20  C   UNL     1       7.845   5.224  -0.066  0.00  0.00    +0.326 C 
BRANCH  20  21
ATOM     21  O   UNL     1       8.300   6.570   0.090  0.00  0.00    -0.482 OA
BRANCH  21  28
ATOM     22  C   UNL     1       9.219   9.223   0.395  0.00  0.00    +0.047 C 
ATOM     23  C   UNL     1      10.151   8.062   0.159  0.00  0.00    -0.007 A 
ATOM     24  C   UNL     1      11.514   8.274   0.084  0.00  0.00    +0.027 A 
ATOM     25  C   UNL     1      12.370   7.209  -0.132  0.00  0.00    +0.041 A 
ATOM     26  C   UNL     1      11.863   5.930  -0.274  0.00  0.00    +0.023 A 
ATOM     27  C   UNL     1      10.501   5.713  -0.196  0.00  0.00    +0.047 A 
ATOM     28  C   UNL     1       9.640   6.780   0.016  0.00  0.00    +0.124 A 
ATOM     29 CL   UNL     1      14.082   7.479  -0.225  0.00  0.00    -0.084 Cl
ENDBRANCH  21  28
ENDBRANCH  20  21
ENDBRANCH  16  20
ENDBRANCH   1  18
TORSDOF 5
