REMARK  Name = ZINC06812205
REMARK  8 active torsions:
REMARK  status: ('A' for Active; 'I' for Inactive)
REMARK    1  A    between atoms: C_1  and  C_2
REMARK    2  A    between atoms: C_2  and  C_3
REMARK    3  A    between atoms: C_3  and  C_4
REMARK    4  A    between atoms: C_10  and  C_26
REMARK    5  A    between atoms: C_12  and  C_15
REMARK    6  A    between atoms: N_17  and  C_18
REMARK    7  A    between atoms: C_23  and  C_24
REMARK    8  A    between atoms: C_24  and  C_25
REMARK                            x       y       z     vdW  Elec       q    Type
REMARK                         _______ _______ _______ _____ _____    ______ ____
ROOT
ATOM      1  C   UNL     1       6.687  -4.002   0.165  0.00  0.00    +0.151 A 
ATOM      2  N   UNL     1       7.168  -3.943  -1.047  0.00  0.00    -0.132 NA
ATOM      3  N   UNL     1       6.496  -3.098  -1.750  0.00  0.00    -0.121 NA
ATOM      4  C   UNL     1       5.551  -2.577  -1.017  0.00  0.00    +0.209 A 
ATOM      5  N   UNL     1       5.641  -3.127   0.230  0.00  0.00    -0.225 N 
ATOM      6  N   UNL     1       4.857  -2.850   1.304  0.00  0.00    -0.272 N 
ATOM      7  C   UNL     1       3.558  -2.275   0.953  0.00  0.00    +0.140 C 
ATOM      8  C   UNL     1       3.744  -0.963   0.179  0.00  0.00    +0.166 C 
ATOM      9  S   UNL     1       4.343  -1.379  -1.486  0.00  0.00    -0.069 S 
ATOM     10  H   UNL     1       4.746  -3.664   1.890  0.00  0.00    +0.167 HD
ENDROOT
BRANCH   7  11
ATOM     11  C   UNL     1       2.777  -2.004   2.213  0.00  0.00    -0.024 A 
ATOM     12  C   UNL     1       3.414  -1.483   3.323  0.00  0.00    +0.005 A 
ATOM     13  C   UNL     1       2.696  -1.230   4.477  0.00  0.00    +0.000 A 
ATOM     14  C   UNL     1       1.343  -1.507   4.524  0.00  0.00    +0.000 A 
ATOM     15  C   UNL     1       0.706  -2.033   3.415  0.00  0.00    +0.000 A 
ATOM     16  C   UNL     1       1.423  -2.281   2.259  0.00  0.00    +0.005 A 
ENDBRANCH   7  11
BRANCH   8  17
ATOM     17  C   UNL     1       2.426  -0.238   0.081  0.00  0.00    +0.233 C 
ATOM     18  O   UNL     1       1.388  -0.864   0.088  0.00  0.00    -0.274 OA
ATOM     19  N   UNL     1       2.403   1.107  -0.014  0.00  0.00    -0.284 N 
ATOM     20  H   UNL     1       3.233   1.603  -0.085  0.00  0.00    +0.155 HD
BRANCH  19  21
ATOM     21  C   UNL     1       1.180   1.786  -0.010  0.00  0.00    +0.037 A 
ATOM     22  C   UNL     1       0.064   1.215  -0.608  0.00  0.00    +0.023 A 
ATOM     23  C   UNL     1      -1.140   1.891  -0.607  0.00  0.00    +0.002 A 
ATOM     24  C   UNL     1      -1.238   3.131  -0.003  0.00  0.00    +0.000 A 
ATOM     25  C   UNL     1      -0.130   3.702   0.594  0.00  0.00    +0.005 A 
ATOM     26  C   UNL     1       1.079   3.034   0.591  0.00  0.00    -0.026 A 
BRANCH  26  27
ATOM     27  C   UNL     1       2.287   3.658   1.241  0.00  0.00    +0.033 C 
ATOM     28  C   UNL     1       3.110   4.397   0.184  0.00  0.00    +0.009 C 
ENDBRANCH  26  27
ENDBRANCH  19  21
ENDBRANCH   8  17
BRANCH   1  29
ATOM     29  C   UNL     1       7.194  -4.873   1.286  0.00  0.00    +0.078 C 
BRANCH  29  31
ATOM     30  C   UNL     1       6.977  -7.101   2.395  0.00  0.00    +0.004 C 
ATOM     31  C   UNL     1       6.463  -6.216   1.257  0.00  0.00    +0.004 C 
ENDBRANCH  29  31
ENDBRANCH   1  29
TORSDOF 6
