REMARK  Name = ZINC53851087
REMARK  6 active torsions:
REMARK  status: ('A' for Active; 'I' for Inactive)
REMARK    1  A    between atoms: C_1  and  C_2
REMARK    2  A    between atoms: C_2  and  C_3
REMARK    3  A    between atoms: C_2  and  N_4
REMARK    4  A    between atoms: C_5  and  C_7
REMARK    5  A    between atoms: C_7  and  C_8
REMARK    6  A    between atoms: C_17  and  C_19
REMARK                            x       y       z     vdW  Elec       q    Type
REMARK                         _______ _______ _______ _____ _____    ______ ____
ROOT
ATOM      1  C   UNL     1      -3.992  -1.214  -2.545  0.00  0.00    +0.119 A 
ATOM      2  N   UNL     1      -5.262  -1.656  -2.744  0.00  0.00    -0.310 N 
ATOM      3  H   UNL     1      -5.809  -1.930  -1.992  0.00  0.00    +0.170 HD
ATOM      4  C   UNL     1      -5.757  -1.709  -4.004  0.00  0.00    +0.266 A 
ATOM      5  O   UNL     1      -6.893  -2.100  -4.215  0.00  0.00    -0.267 OA
ATOM      6  C   UNL     1      -4.932  -1.304  -5.053  0.00  0.00    +0.102 A 
ATOM      7  C   UNL     1      -3.620  -0.851  -4.820  0.00  0.00    +0.086 A 
ATOM      8  N   UNL     1      -3.216  -0.830  -3.506  0.00  0.00    -0.233 NA
ATOM      9  C   UNL     1      -2.898  -0.475  -5.956  0.00  0.00    +0.044 A 
ATOM     10  C   UNL     1      -3.476  -0.562  -7.189  0.00  0.00    +0.024 A 
ATOM     11  S   UNL     1      -5.105  -1.191  -6.814  0.00  0.00    -0.081 S 
ENDROOT
BRANCH  10  12
ATOM     12  C   UNL     1      -2.899  -0.220  -8.506  0.00  0.00    +0.007 A 
ATOM     13  C   UNL     1      -2.271   1.012  -8.697  0.00  0.00    +0.012 A 
ATOM     14  C   UNL     1      -1.734   1.326  -9.928  0.00  0.00    +0.021 A 
ATOM     15  C   UNL     1      -1.816   0.422 -10.974  0.00  0.00    +0.042 A 
ATOM     16  C   UNL     1      -2.437  -0.802 -10.792  0.00  0.00    +0.040 A 
ATOM     17  C   UNL     1      -2.974  -1.130  -9.562  0.00  0.00    +0.051 A 
ATOM     18 CL   UNL     1      -3.746  -2.668  -9.332  0.00  0.00    -0.083 Cl
ATOM     19 CL   UNL     1      -1.138   0.825 -12.520  0.00  0.00    -0.083 Cl
ENDBRANCH  10  12
BRANCH   1  20
ATOM     20  C   UNL     1      -3.465  -1.164  -1.134  0.00  0.00    +0.170 C 
BRANCH  20  22
ATOM     21  N   UNL     1      -1.372  -0.511   0.012  0.00  0.00    -0.313 N 
ATOM     22  C   UNL     1      -2.051  -0.643  -1.145  0.00  0.00    +0.221 C 
ATOM     23  O   UNL     1      -1.524  -0.341  -2.194  0.00  0.00    -0.275 OA
ATOM     24  H   UNL     1      -1.794  -0.752   0.852  0.00  0.00    +0.149 HD
BRANCH  21  26
ATOM     25  C   UNL     1      -0.019   1.526   0.010  0.00  0.00    +0.027 C 
ATOM     26  C   UNL     1       0.002  -0.004   0.002  0.00  0.00    +0.067 C 
ATOM     27  C   UNL     1       0.742  -0.511   1.242  0.00  0.00    +0.027 C 
ENDBRANCH  21  26
ENDBRANCH  20  22
ENDBRANCH   1  20
TORSDOF 4
