REMARK  Name = ZINC00978935
REMARK  10 active torsions:
REMARK  status: ('A' for Active; 'I' for Inactive)
REMARK    1  A    between atoms: C_1  and  O_2
REMARK    2  A    between atoms: O_2  and  C_3
REMARK    3  A    between atoms: C_5  and  C_13
REMARK    4  A    between atoms: C_7  and  O_11
REMARK    5  A    between atoms: C_8  and  O_9
REMARK    6  A    between atoms: O_9  and  C_10
REMARK    7  A    between atoms: O_11  and  C_12
REMARK    8  A    between atoms: C_24  and  S_29
REMARK    9  A    between atoms: S_29  and  N_32
REMARK   10  A    between atoms: N_32  and  C_33
REMARK                            x       y       z     vdW  Elec       q    Type
REMARK                         _______ _______ _______ _____ _____    ______ ____
ROOT
ATOM      1  C   UNL     1      -0.532   1.985  -0.778  0.00  0.00    +0.105 C 
ATOM      2  C   UNL     1       0.209   1.478   0.446  0.00  0.00    +0.029 C 
ATOM      3  C   UNL     1       1.735   1.646   0.460  0.00  0.00    +0.033 C 
ATOM      4  C   UNL     1       2.167   0.462   1.327  0.00  0.00    -0.030 C 
ATOM      5  C   UNL     1       1.258  -0.504   1.261  0.00  0.00    -0.023 C 
ATOM      6  C   UNL     1       0.176  -0.076   0.337  0.00  0.00    +0.049 C 
ATOM      7  C   UNL     1      -1.225  -0.514   0.517  0.00  0.00    -0.018 A 
ATOM      8  C   UNL     1      -1.556  -1.692   1.150  0.00  0.00    +0.034 A 
ATOM      9  C   UNL     1      -2.881  -2.064   1.283  0.00  0.00    +0.109 A 
ATOM     10  C   UNL     1      -3.881  -1.252   0.780  0.00  0.00    +0.030 A 
ATOM     11  C   UNL     1      -3.560  -0.068   0.149  0.00  0.00    +0.025 A 
ATOM     12  C   UNL     1      -2.232   0.319   0.015  0.00  0.00    +0.031 A 
ATOM     13  N   UNL     1      -1.932   1.535  -0.610  0.00  0.00    -0.336 N 
ATOM     14  H   UNL     1      -2.654   2.093  -0.938  0.00  0.00    +0.147 HD
ENDROOT
BRANCH   1  17
ATOM     15  C   UNL     1       0.497   5.495  -1.729  0.00  0.00    +0.165 A 
ATOM     16  C   UNL     1       0.439   4.111  -1.671  0.00  0.00    +0.055 A 
ATOM     17  C   UNL     1      -0.473   3.489  -0.838  0.00  0.00    -0.020 A 
ATOM     18  C   UNL     1      -1.333   4.245  -0.063  0.00  0.00    +0.055 A 
ATOM     19  C   UNL     1      -1.278   5.629  -0.111  0.00  0.00    +0.165 A 
ATOM     20  C   UNL     1      -0.363   6.258  -0.947  0.00  0.00    +0.204 A 
BRANCH  15  22
ATOM     21  C   UNL     1       2.245   5.258  -3.324  0.00  0.00    +0.277 C 
ATOM     22  O   UNL     1       1.393   6.105  -2.549  0.00  0.00    -0.491 OA
ENDBRANCH  15  22
BRANCH  20  23
ATOM     23  O   UNL     1      -0.309   7.617  -1.002  0.00  0.00    -0.488 OA
ATOM     24  C   UNL     1      -1.142   8.260  -1.968  0.00  0.00    +0.277 C 
ENDBRANCH  20  23
BRANCH  19  25
ATOM     25  O   UNL     1      -2.121   6.371   0.656  0.00  0.00    -0.491 OA
ATOM     26  C   UNL     1      -3.034   5.659   1.492  0.00  0.00    +0.277 C 
ENDBRANCH  19  25
ENDBRANCH   1  17
BRANCH   9  27
ATOM     27  S   UNL     1      -3.296  -3.572   2.095  0.00  0.00    +0.072 S 
ATOM     28  O   UNL     1      -2.209  -3.882   2.956  0.00  0.00    -0.150 OA
ATOM     29  O   UNL     1      -4.626  -3.424   2.571  0.00  0.00    -0.150 OA
BRANCH  27  30
ATOM     30  N   UNL     1      -3.336  -4.756   0.938  0.00  0.00    -0.213 N 
ATOM     31  H   UNL     1      -4.157  -5.247   0.775  0.00  0.00    +0.174 HD
BRANCH  30  32
ATOM     32  C   UNL     1      -2.188  -5.048   0.195  0.00  0.00    +0.083 A 
ATOM     33  C   UNL     1      -0.936  -4.977   0.793  0.00  0.00    +0.027 A 
ATOM     34  C   UNL     1       0.196  -5.271   0.058  0.00  0.00    +0.002 A 
ATOM     35  C   UNL     1       0.086  -5.625  -1.274  0.00  0.00    +0.003 A 
ATOM     36  C   UNL     1      -1.157  -5.692  -1.875  0.00  0.00    +0.040 A 
ATOM     37  C   UNL     1      -2.296  -5.404  -1.145  0.00  0.00    +0.146 A 
ATOM     38  F   UNL     1      -3.511  -5.469  -1.732  0.00  0.00    -0.204 F 
ENDBRANCH  30  32
ENDBRANCH  27  30
ENDBRANCH   9  27
TORSDOF 7
