REMARK  Name = ZINC09332303
REMARK  2 active torsions:
REMARK  status: ('A' for Active; 'I' for Inactive)
REMARK    1  A    between atoms: C_4  and  C_7
REMARK    2  A    between atoms: C_12  and  C_20
REMARK                            x       y       z     vdW  Elec       q    Type
REMARK                         _______ _______ _______ _____ _____    ______ ____
ROOT
ATOM      1  C   UNL     1       3.711  -0.707  -0.038  0.00  0.00    +0.032 C 
ATOM      2  C   UNL     1       3.817  -1.604   1.198  0.00  0.00    +0.060 C 
ATOM      3  C   UNL     1       5.116  -2.374   1.157  0.00  0.00    +0.020 C 
ATOM      4  C   UNL     1       5.677  -2.727  -0.019  0.00  0.00    +0.041 C 
ATOM      5  C   UNL     1       6.977  -3.497  -0.091  0.00  0.00    +0.175 C 
ATOM      6  N   UNL     1       7.305  -4.045   1.219  0.00  0.00    -0.221 N 
ATOM      7  C   UNL     1       6.695  -3.656   2.365  0.00  0.00    +0.218 A 
ATOM      8  N   UNL     1       7.222  -4.329   3.351  0.00  0.00    -0.201 NA
ATOM      9  C   UNL     1       8.160  -5.155   2.877  0.00  0.00    +0.247 A 
ATOM     10  N   UNL     1       8.242  -5.014   1.577  0.00  0.00    -0.156 NA
ATOM     11  N   UNL     1       5.692  -2.700   2.361  0.00  0.00    -0.287 N 
ATOM     12  C   UNL     1       5.067  -2.386  -1.240  0.00  0.00    +0.164 C 
ATOM     13  O   UNL     1       5.585  -2.738  -2.282  0.00  0.00    -0.292 OA
ATOM     14  C   UNL     1       3.791  -1.593  -1.286  0.00  0.00    +0.088 C 
ATOM     15  H   UNL     1       5.405  -2.275   3.184  0.00  0.00    +0.155 HD
ENDROOT
BRANCH   5  16
ATOM     16  C   UNL     1       8.082  -2.572  -0.534  0.00  0.00    -0.016 A 
ATOM     17  C   UNL     1       8.397  -1.459   0.224  0.00  0.00    +0.006 A 
ATOM     18  C   UNL     1       9.409  -0.610  -0.181  0.00  0.00    +0.003 A 
ATOM     19  C   UNL     1      10.108  -0.872  -1.345  0.00  0.00    +0.038 A 
ATOM     20  C   UNL     1       9.793  -1.986  -2.105  0.00  0.00    +0.124 A 
ATOM     21  C   UNL     1       8.782  -2.839  -1.694  0.00  0.00    +0.044 A 
ATOM     22  F   UNL     1      10.475  -2.243  -3.242  0.00  0.00    -0.205 F 
ENDBRANCH   5  16
BRANCH   1  26
ATOM     23  C   UNL     1      -0.017   1.378   0.010  0.00  0.00    +0.000 A 
ATOM     24  C   UNL     1       1.171   2.086   0.002  0.00  0.00    +0.000 A 
ATOM     25  C   UNL     1       2.377   1.411  -0.013  0.00  0.00    +0.004 A 
ATOM     26  C   UNL     1       2.396   0.029  -0.020  0.00  0.00    -0.044 A 
ATOM     27  C   UNL     1       1.208  -0.679  -0.012  0.00  0.00    +0.004 A 
ATOM     28  C   UNL     1       0.002  -0.004   0.002  0.00  0.00    +0.000 A 
ENDBRANCH   1  26
TORSDOF 2
