REMARK  Name = ZINC01585755
REMARK  8 active torsions:
REMARK  status: ('A' for Active; 'I' for Inactive)
REMARK    1  A    between atoms: C_1  and  C_2
REMARK    2  A    between atoms: C_2  and  C_3
REMARK    3  A    between atoms: N_5  and  C_6
REMARK    4  A    between atoms: C_7  and  O_20
REMARK    5  A    between atoms: C_9  and  N_14
REMARK    6  A    between atoms: C_10  and  O_13
REMARK    7  A    between atoms: C_15  and  C_17
REMARK    8  A    between atoms: C_17  and  C_18
REMARK                            x       y       z     vdW  Elec       q    Type
REMARK                         _______ _______ _______ _____ _____    ______ ____
ROOT
ATOM      1  C   UNL     1      -1.090  -2.090   0.152  0.00  0.00    +0.094 A 
ATOM      2  C   UNL     1      -1.958  -2.799   0.978  0.00  0.00    +0.155 A 
ATOM      3  C   UNL     1      -1.881  -4.181   1.038  0.00  0.00    +0.086 A 
ATOM      4  C   UNL     1      -0.939  -4.859   0.276  0.00  0.00    +0.094 A 
ATOM      5  C   UNL     1      -0.072  -4.149  -0.551  0.00  0.00    +0.155 A 
ATOM      6  C   UNL     1      -0.151  -2.767  -0.614  0.00  0.00    +0.086 A 
ATOM      7 BR   UNL     1       1.022  -1.803  -1.741  0.00  0.00    -0.044 Br
ATOM      8 BR   UNL     1      -3.059  -5.146   2.160  0.00  0.00    -0.044 Br
ENDROOT
BRANCH   1  11
ATOM      9  C   UNL     1      -1.211   0.033   1.228  0.00  0.00    +0.217 C 
ATOM     10  O   UNL     1      -1.281  -0.528   2.301  0.00  0.00    -0.275 OA
ATOM     11  N   UNL     1      -1.167  -0.690   0.091  0.00  0.00    -0.282 N 
ATOM     12  H   UNL     1      -1.190  -0.243  -0.769  0.00  0.00    +0.155 HD
BRANCH   9  14
ATOM     13  C   UNL     1      -1.234   2.109   2.583  0.00  0.00    +0.013 C 
ATOM     14  C   UNL     1      -1.172   1.538   1.165  0.00  0.00    +0.093 C 
ENDBRANCH   9  14
ENDBRANCH   1  11
BRANCH   4  15
ATOM     15  N   UNL     1      -0.862  -6.258   0.337  0.00  0.00    -0.282 N 
ATOM     16  C   UNL     1       0.331  -6.860   0.515  0.00  0.00    +0.217 C 
ATOM     17  O   UNL     1       1.349  -6.201   0.514  0.00  0.00    -0.275 OA
ATOM     18  H   UNL     1      -1.667  -6.793   0.250  0.00  0.00    +0.155 HD
BRANCH  16  19
ATOM     19  C   UNL     1       0.399  -8.352   0.716  0.00  0.00    +0.093 C 
ATOM     20  C   UNL     1       1.858  -8.776   0.894  0.00  0.00    +0.013 C 
ENDBRANCH  16  19
ENDBRANCH   4  15
BRANCH   5  21
ATOM     21  O   UNL     1       0.851  -4.812  -1.299  0.00  0.00    -0.504 OA
ATOM     22  H   UNL     1       0.536  -5.065  -2.178  0.00  0.00    +0.292 HD
ENDBRANCH   5  21
BRANCH   2  23
ATOM     23  O   UNL     1      -2.881  -2.136   1.725  0.00  0.00    -0.504 OA
ATOM     24  H   UNL     1      -3.728  -2.005   1.278  0.00  0.00    +0.292 HD
ENDBRANCH   2  23
TORSDOF 6
