REMARK  Name = ZINC20849390
REMARK  8 active torsions:
REMARK  status: ('A' for Active; 'I' for Inactive)
REMARK    1  A    between atoms: C_1  and  C_2
REMARK    2  A    between atoms: C_7  and  N_8
REMARK    3  A    between atoms: C_15  and  C_28
REMARK    4  A    between atoms: C_20  and  C_24
REMARK    5  A    between atoms: C_22  and  O_23
REMARK    6  A    between atoms: C_24  and  C_25
REMARK    7  A    between atoms: C_24  and  C_26
REMARK    8  A    between atoms: C_24  and  C_27
REMARK                            x       y       z     vdW  Elec       q    Type
REMARK                         _______ _______ _______ _____ _____    ______ ____
ROOT
ATOM      1  N   UNL     1      -2.945   1.610   6.009  0.00  0.00    -0.244 N 
ATOM      2  C   UNL     1      -2.247   0.471   5.980  0.00  0.00    +0.141 C 
ATOM      3  S   UNL     1      -3.008  -0.980   6.476  0.00  0.00    -0.018 S 
ATOM      4  N   UNL     1      -0.967   0.425   5.574  0.00  0.00    -0.319 N 
ATOM      5  C   UNL     1      -0.315   1.645   5.072  0.00  0.00    +0.111 C 
ATOM      6  C   UNL     1      -0.831   2.826   5.911  0.00  0.00    +0.096 C 
ATOM      7  C   UNL     1      -2.348   2.903   5.686  0.00  0.00    +0.183 C 
ATOM      8  O   UNL     1      -2.590   3.248   4.324  0.00  0.00    -0.464 OA
ATOM      9  C   UNL     1      -1.879   2.617   3.354  0.00  0.00    +0.169 A 
ATOM     10  C   UNL     1      -0.770   1.844   3.643  0.00  0.00    +0.019 A 
ATOM     11  C   UNL     1      -0.064   1.230   2.624  0.00  0.00    +0.013 A 
ATOM     12  C   UNL     1      -0.467   1.379   1.310  0.00  0.00    -0.038 A 
ATOM     13  C   UNL     1      -1.575   2.148   1.011  0.00  0.00    +0.053 A 
ATOM     14  C   UNL     1      -2.286   2.764   2.027  0.00  0.00    +0.159 A 
ATOM     15  C   UNL     1      -2.942   3.979   6.596  0.00  0.00    +0.079 C 
ATOM     16  H   UNL     1      -0.406  -0.521   5.617  0.00  0.00    +0.148 HD
ENDROOT
BRANCH   1  23
ATOM     17  C   UNL     1      -3.613   1.619   8.774  0.00  0.00    +0.046 C 
ATOM     18  C   UNL     1      -4.668   1.559   7.700  0.00  0.00    -0.026 A 
ATOM     19  C   UNL     1      -6.005   1.512   8.046  0.00  0.00    +0.043 A 
ATOM     20  C   UNL     1      -6.975   1.452   7.060  0.00  0.00    +0.124 A 
ATOM     21  C   UNL     1      -6.607   1.444   5.725  0.00  0.00    +0.040 A 
ATOM     22  C   UNL     1      -5.273   1.497   5.374  0.00  0.00    +0.026 A 
ATOM     23  C   UNL     1      -4.298   1.557   6.362  0.00  0.00    +0.042 A 
ATOM     24  F   UNL     1      -8.281   1.401   7.401  0.00  0.00    -0.205 F 
ENDBRANCH   1  23
BRANCH  12  25
ATOM     25  C   UNL     1       0.306   0.708   0.204  0.00  0.00    -0.013 C 
ATOM     26  C   UNL     1       0.300  -0.806   0.423  0.00  0.00    +0.015 C 
ATOM     27  C   UNL     1       1.749   1.218   0.208  0.00  0.00    +0.015 C 
ATOM     28  C   UNL     1      -0.345   1.032  -1.142  0.00  0.00    +0.015 C 
ENDBRANCH  12  25
BRANCH  14  29
ATOM     29  O   UNL     1      -3.380   3.516   1.731  0.00  0.00    -0.503 OA
ATOM     30  H   UNL     1      -3.701   3.633   0.686  0.00  0.00    +0.292 HD
ENDBRANCH  14  29
TORSDOF 3
