REMARK  Name = ZINC05005281
REMARK  6 active torsions:
REMARK  status: ('A' for Active; 'I' for Inactive)
REMARK    1  A    between atoms: C_2  and  C_3
REMARK    2  A    between atoms: C_3  and  C_4
REMARK    3  A    between atoms: C_8  and  C_11
REMARK    4  A    between atoms: C_9  and  O_10
REMARK    5  A    between atoms: N_12  and  N_13
REMARK    6  A    between atoms: C_16  and  C_19
REMARK                            x       y       z     vdW  Elec       q    Type
REMARK                         _______ _______ _______ _____ _____    ______ ____
ROOT
ATOM      1  N   UNL     1       1.024  -6.817  -0.817  0.00  0.00    -0.215 N 
ATOM      2  C   UNL     1       1.635  -7.202   0.364  0.00  0.00    +0.178 A 
ATOM      3  N   UNL     1       2.245  -8.336   0.658  0.00  0.00    -0.223 NA
ATOM      4  C   UNL     1       2.781  -8.538   1.853  0.00  0.00    +0.087 A 
ATOM      5  C   UNL     1       2.701  -7.553   2.800  0.00  0.00    +0.077 A 
ATOM      6  S   UNL     1       1.814  -6.293   1.893  0.00  0.00    -0.059 S 
ATOM      7  H   UNL     1       1.004  -7.424  -1.573  0.00  0.00    +0.176 HD
ENDROOT
BRANCH   4   8
ATOM      8  C   UNL     1       3.460  -9.818   2.161  0.00  0.00    +0.086 A 
ATOM      9  C   UNL     1       3.558 -10.819   1.225  0.00  0.00    +0.028 A 
ATOM     10  C   UNL     1       4.248 -12.050   1.622  0.00  0.00    +0.018 A 
ATOM     11  C   UNL     1       4.624 -13.002   0.669  0.00  0.00    +0.011 A 
ATOM     12  C   UNL     1       5.269 -14.140   1.066  0.00  0.00    +0.001 A 
ATOM     13  C   UNL     1       5.553 -14.358   2.406  0.00  0.00    +0.004 A 
ATOM     14  C   UNL     1       5.189 -13.432   3.363  0.00  0.00    +0.047 A 
ATOM     15  C   UNL     1       4.533 -12.271   2.982  0.00  0.00    +0.139 A 
ATOM     16  O   UNL     1       4.161 -11.351   3.905  0.00  0.00    -0.422 OA
ATOM     17  C   UNL     1       4.064 -10.067   3.482  0.00  0.00    +0.347 A 
ATOM     18  O   UNL     1       4.459  -9.146   4.174  0.00  0.00    -0.244 OA
ENDBRANCH   4   8
BRANCH   1  20
ATOM     19  C   UNL     1      -0.139  -5.189  -2.028  0.00  0.00    +0.142 C 
ATOM     20  N   UNL     1       0.434  -5.550  -0.920  0.00  0.00    -0.188 NA
BRANCH  19  25
ATOM     21  C   UNL     1      -1.318  -1.726  -1.159  0.00  0.00    -0.002 A 
ATOM     22  C   UNL     1      -1.926  -1.349  -2.342  0.00  0.00    +0.007 A 
ATOM     23  C   UNL     1      -1.955  -2.215  -3.421  0.00  0.00    +0.001 A 
ATOM     24  C   UNL     1      -1.376  -3.464  -3.326  0.00  0.00    +0.013 A 
ATOM     25  C   UNL     1      -0.759  -3.857  -2.136  0.00  0.00    +0.036 A 
ATOM     26  C   UNL     1      -0.728  -2.974  -1.048  0.00  0.00    +0.129 A 
BRANCH  26  27
ATOM     27  O   UNL     1      -0.126  -3.343   0.113  0.00  0.00    -0.506 OA
ATOM     28  H   UNL     1      -0.716  -3.785   0.738  0.00  0.00    +0.292 HD
ENDBRANCH  26  27
BRANCH  21  29
ATOM     29  C   UNL     1      -1.293  -0.775   0.010  0.00  0.00    +0.065 C 
BRANCH  29  31
ATOM     30  C   UNL     1      -0.016   1.306   0.009  0.00  0.00    +0.004 C 
ATOM     31  C   UNL     1       0.002  -0.004   0.002  0.00  0.00    -0.030 C 
ENDBRANCH  29  31
ENDBRANCH  21  29
ENDBRANCH  19  25
ENDBRANCH   1  20
TORSDOF 6
