REMARK  Name = ZINC03552438
REMARK  6 active torsions:
REMARK  status: ('A' for Active; 'I' for Inactive)
REMARK    1  A    between atoms: C_1  and  C_2
REMARK    2  A    between atoms: C_2  and  C_4
REMARK    3  A    between atoms: C_2  and  S_16
REMARK    4  A    between atoms: N_6  and  C_7
REMARK    5  A    between atoms: C_11  and  N_13
REMARK    6  A    between atoms: S_16  and  C_17
REMARK                            x       y       z     vdW  Elec       q    Type
REMARK                         _______ _______ _______ _____ _____    ______ ____
ROOT
ATOM      1  C   UNL     1       0.757   5.983  -0.049  0.00  0.00    +0.230 C 
ATOM      2  O   UNL     1       1.667   5.184  -0.125  0.00  0.00    -0.274 OA
ATOM      3  N   UNL     1      -0.516   5.571  -0.208  0.00  0.00    -0.285 N 
ATOM      4  H   UNL     1      -1.238   6.220  -0.217  0.00  0.00    +0.155 HD
ENDROOT
BRANCH   3   5
ATOM      5  C   UNL     1      -0.797   4.209  -0.361  0.00  0.00    +0.036 A 
ATOM      6  C   UNL     1      -0.019   3.261   0.290  0.00  0.00    +0.023 A 
ATOM      7  C   UNL     1      -0.299   1.917   0.137  0.00  0.00    +0.004 A 
ATOM      8  C   UNL     1      -1.353   1.516  -0.663  0.00  0.00    +0.033 A 
ATOM      9  C   UNL     1      -2.126   2.457  -1.317  0.00  0.00    +0.128 A 
ATOM     10  C   UNL     1      -1.855   3.803  -1.163  0.00  0.00    +0.056 A 
BRANCH   9  11
ATOM     11  N   UNL     1      -3.249   2.023  -2.178  0.00  0.00    +0.056 N 
ATOM     12  O   UNL     1      -3.492   0.837  -2.310  0.00  0.00    -0.126 OA
ATOM     13  O   UNL     1      -3.931   2.852  -2.753  0.00  0.00    -0.126 OA
ENDBRANCH   9  11
ENDBRANCH   3   5
BRANCH   1  15
ATOM     14  C   UNL     1       0.931   7.708   1.724  0.00  0.00    +0.029 C 
ATOM     15  C   UNL     1       1.052   7.435   0.223  0.00  0.00    +0.134 C 
BRANCH  15  16
ATOM     16  S   UNL     1       2.735   7.825  -0.328  0.00  0.00    -0.113 S 
BRANCH  16  17
ATOM     17  C   UNL     1       2.864   9.568  -0.106  0.00  0.00    +0.009 A 
ATOM     18  C   UNL     1       2.404  10.432  -1.094  0.00  0.00    +0.016 A 
ATOM     19  C   UNL     1       2.502  11.797  -0.914  0.00  0.00    +0.016 A 
ATOM     20  C   UNL     1       3.067  12.306   0.242  0.00  0.00    +0.018 A 
ATOM     21  C   UNL     1       3.530  11.449   1.224  0.00  0.00    +0.016 A 
ATOM     22  C   UNL     1       3.430  10.083   1.054  0.00  0.00    +0.016 A 
ATOM     23 BR   UNL     1       3.205  14.177   0.480  0.00  0.00    -0.050 Br
ENDBRANCH  16  17
ENDBRANCH  15  16
ENDBRANCH   1  15
TORSDOF 5
