REMARK  Name = ZINC10434671
REMARK  8 active torsions:
REMARK  status: ('A' for Active; 'I' for Inactive)
REMARK    1  A    between atoms: C_4  and  C_7
REMARK    2  A    between atoms: C_7  and  C_8
REMARK    3  A    between atoms: C_13  and  C_14
REMARK    4  A    between atoms: C_13  and  N_65
REMARK    5  A    between atoms: C_14  and  C_16
REMARK    6  A    between atoms: C_14  and  O_28
REMARK    7  A    between atoms: C_16  and  O_17
REMARK    8  A    between atoms: O_17  and  C_18
REMARK                            x       y       z     vdW  Elec       q    Type
REMARK                         _______ _______ _______ _____ _____    ______ ____
ROOT
ATOM      1  C   UNL     1      -2.747   7.769  -2.225  0.00  0.00    -0.045 C 
ENDROOT
BRANCH   1   7
ATOM      2  C   UNL     1      -1.876  11.918  -2.780  0.00  0.00    -0.010 C 
ATOM      3  C   UNL     1      -3.259  11.380  -3.160  0.00  0.00    -0.015 C 
ATOM      4  C   UNL     1      -3.175   9.865  -3.357  0.00  0.00    -0.078 C 
ATOM      5  C   UNL     1      -1.363   9.699  -1.757  0.00  0.00    -0.078 C 
ATOM      6  C   UNL     1      -1.393  11.209  -1.512  0.00  0.00    -0.015 C 
ATOM      7  N   UNL     1      -2.727   9.241  -2.095  0.00  0.00    +0.381 N 
ATOM      8  H   UNL     1      -3.368   9.518  -1.341  0.00  0.00    -0.082 HD
BRANCH   2   9
ATOM      9  C   UNL     1      -1.966  13.424  -2.523  0.00  0.00    +0.038 C 
BRANCH   9  13
ATOM     10  C   UNL     1       1.946  14.982  -1.804  0.00  0.00    +0.000 A 
ATOM     11  C   UNL     1       1.446  14.937  -3.092  0.00  0.00    +0.000 A 
ATOM     12  C   UNL     1       0.179  14.433  -3.325  0.00  0.00    +0.003 A 
ATOM     13  C   UNL     1      -0.586  13.973  -2.269  0.00  0.00    -0.047 A 
ATOM     14  C   UNL     1      -0.087  14.023  -0.981  0.00  0.00    +0.003 A 
ATOM     15  C   UNL     1       1.180  14.523  -0.749  0.00  0.00    +0.000 A 
ENDBRANCH   9  13
ENDBRANCH   2   9
ENDBRANCH   1   7
BRANCH   1  16
ATOM     16  C   UNL     1      -2.166   7.148  -0.953  0.00  0.00    +0.124 C 
BRANCH  16  17
ATOM     17  O   UNL     1      -2.920   7.586   0.179  0.00  0.00    -0.391 OA
ATOM     18  H   UNL     1      -3.856   7.344   0.145  0.00  0.00    +0.210 HD
ENDBRANCH  16  17
BRANCH  16  19
ATOM     19  C   UNL     1      -2.235   5.623  -1.052  0.00  0.00    +0.190 C 
BRANCH  19  20
ATOM     20  O   UNL     1      -1.587   5.042   0.081  0.00  0.00    -0.371 OA
BRANCH  20  21
ATOM     21  C   UNL     1      -1.595   3.613   0.086  0.00  0.00    +0.070 C 
ATOM     22  C   UNL     1      -0.875   3.095  -1.160  0.00  0.00    +0.038 C 
ATOM     23  C   UNL     1      -0.883   1.565  -1.155  0.00  0.00    -0.008 C 
ATOM     24  C   UNL     1      -0.167   1.055   0.098  0.00  0.00    +0.007 C 
ATOM     25  C   UNL     1      -0.888   1.573   1.344  0.00  0.00    -0.008 C 
ATOM     26  C   UNL     1      -0.879   3.103   1.339  0.00  0.00    +0.038 C 
ATOM     27  C   UNL     1      -2.333   1.071   1.343  0.00  0.00    +0.007 C 
ATOM     28  C   UNL     1      -3.049   1.581   0.090  0.00  0.00    -0.008 C 
ATOM     29  C   UNL     1      -2.328   1.063  -1.156  0.00  0.00    +0.007 C 
ATOM     30  C   UNL     1      -3.041   3.111   0.085  0.00  0.00    +0.038 C 
ENDBRANCH  20  21
ENDBRANCH  19  20
ENDBRANCH  16  19
ENDBRANCH   1  16
TORSDOF 8
