REMARK  Name = ZINC32709481
REMARK  4 active torsions:
REMARK  status: ('A' for Active; 'I' for Inactive)
REMARK    1  A    between atoms: C_1  and  N_2
REMARK    2  A    between atoms: N_5  and  N_8
REMARK    3  A    between atoms: C_12  and  C_15
REMARK    4  A    between atoms: C_15  and  C_16
REMARK                            x       y       z     vdW  Elec       q    Type
REMARK                         _______ _______ _______ _____ _____    ______ ____
ROOT
ATOM      1  N   UNL     1       1.448  -3.871  -0.034  0.00  0.00    -0.245 N 
ATOM      2  C   UNL     1       2.680  -4.501  -0.011  0.00  0.00    +0.252 A 
ATOM      3  N   UNL     1       2.739  -5.827  -0.024  0.00  0.00    -0.172 NA
ATOM      4  C   UNL     1       3.925  -6.426  -0.002  0.00  0.00    +0.297 A 
ATOM      5  C   UNL     1       5.074  -5.636   0.035  0.00  0.00    +0.134 A 
ATOM      6  N   UNL     1       4.952  -4.322   0.046  0.00  0.00    -0.145 NA
ATOM      7  N   UNL     1       3.789  -3.773   0.019  0.00  0.00    -0.111 NA
ATOM      8  O   UNL     1       4.016  -7.779  -0.015  0.00  0.00    -0.264 OA
ATOM      9  H   UNL     1       0.634  -4.398  -0.055  0.00  0.00    +0.169 HD
ENDROOT
BRANCH   1  14
ATOM     10  C   UNL     1      -0.018   1.465   0.010  0.00  0.00    -0.096 C 
ATOM     11  N   UNL     1       0.002  -0.004   0.002  0.00  0.00    +0.380 N 
ATOM     12  C   UNL     1       0.688  -0.477  -1.207  0.00  0.00    -0.062 C 
ATOM     13  C   UNL     1       0.693  -2.008  -1.226  0.00  0.00    +0.087 C 
ATOM     14  N   UNL     1       1.378  -2.507  -0.025  0.00  0.00    -0.230 NA
ATOM     15  C   UNL     1       0.717  -2.021   1.194  0.00  0.00    +0.087 C 
ATOM     16  C   UNL     1       0.713  -0.490   1.192  0.00  0.00    -0.062 C 
ATOM     17  H   UNL     1      -0.945  -0.353   0.010  0.00  0.00    -0.082 HD
ENDBRANCH   1  14
BRANCH   5  18
ATOM     18  C   UNL     1       6.439  -6.275   0.061  0.00  0.00    +0.098 C 
BRANCH  18  19
ATOM     19  C   UNL     1       6.928  -6.473  -1.351  0.00  0.00    -0.041 A 
ATOM     20  C   UNL     1       6.641  -7.645  -2.024  0.00  0.00    +0.005 A 
ATOM     21  C   UNL     1       7.089  -7.827  -3.319  0.00  0.00    +0.020 A 
ATOM     22  C   UNL     1       7.827  -6.835  -3.941  0.00  0.00    +0.041 A 
ATOM     23  C   UNL     1       8.114  -5.662  -3.266  0.00  0.00    +0.020 A 
ATOM     24  C   UNL     1       7.660  -5.479  -1.974  0.00  0.00    +0.005 A 
ATOM     25 CL   UNL     1       8.391  -7.063  -5.566  0.00  0.00    -0.084 Cl
ENDBRANCH  18  19
ENDBRANCH   5  18
TORSDOF 3
