REMARK  Name = ZINC63165609
REMARK  8 active torsions:
REMARK  status: ('A' for Active; 'I' for Inactive)
REMARK    1  A    between atoms: C_6  and  C_10
REMARK    2  A    between atoms: C_10  and  C_11
REMARK    3  A    between atoms: C_11  and  C_12
REMARK    4  A    between atoms: C_12  and  C_13
REMARK    5  A    between atoms: C_13  and  C_14
REMARK    6  A    between atoms: C_14  and  N_15
REMARK    7  A    between atoms: N_15  and  S_16
REMARK    8  A    between atoms: S_16  and  C_19
REMARK                            x       y       z     vdW  Elec       q    Type
REMARK                         _______ _______ _______ _____ _____    ______ ____
ROOT
ATOM      1  C   UNL     1       2.961  -6.385  -2.541  0.00  0.00    +0.017 C 
ENDROOT
BRANCH   1   2
ATOM      2  C   UNL     1       3.486  -4.948  -2.553  0.00  0.00    +0.001 C 
BRANCH   2   3
ATOM      3  C   UNL     1       3.016  -4.223  -1.290  0.00  0.00    +0.004 C 
BRANCH   3   4
ATOM      4  C   UNL     1       3.542  -2.787  -1.302  0.00  0.00    +0.047 C 
BRANCH   4  10
ATOM      5  C   UNL     1      -0.016   1.344   0.009  0.00  0.00    +0.002 A 
ATOM      6  C   UNL     1       1.158   2.118   0.002  0.00  0.00    +0.002 A 
ATOM      7  C   UNL     1       2.389   1.570  -0.013  0.00  0.00    +0.027 A 
ATOM      8  C   UNL     1       2.533   0.108  -0.022  0.00  0.00    +0.060 A 
ATOM      9  N   UNL     1       3.569  -0.680  -0.036  0.00  0.00    -0.363 N 
ATOM     10  C   UNL     1       3.071  -2.062  -0.039  0.00  0.00    +0.174 C 
ATOM     11  N   UNL     1       1.606  -1.974  -0.024  0.00  0.00    -0.363 N 
ATOM     12  C   UNL     1       1.290  -0.712  -0.014  0.00  0.00    +0.060 A 
ATOM     13  C   UNL     1       0.002  -0.004   0.002  0.00  0.00    +0.027 A 
ATOM     14  H   UNL     1       4.499  -0.405  -0.045  0.00  0.00    +0.162 HD
ATOM     15  H   UNL     1       0.987  -2.721  -0.022  0.00  0.00    +0.162 HD
ENDBRANCH   4  10
ENDBRANCH   3   4
ENDBRANCH   2   3
ENDBRANCH   1   2
BRANCH   1  16
ATOM     16  C   UNL     1       3.431  -7.110  -3.804  0.00  0.00    +0.106 C 
BRANCH  16  17
ATOM     17  N   UNL     1       2.928  -8.486  -3.793  0.00  0.00    -0.190 NA
ATOM     18  H   UNL     1       2.578  -8.868  -2.973  0.00  0.00    +0.148 HD
BRANCH  17  19
ATOM     19  S   UNL     1       2.957  -9.390  -5.181  0.00  0.00    +0.061 S 
ATOM     20  O   UNL     1       2.435 -10.668  -4.844  0.00  0.00    -0.153 OA
ATOM     21  O   UNL     1       2.391  -8.581  -6.203  0.00  0.00    -0.153 OA
BRANCH  19  22
ATOM     22  C   UNL     1       4.649  -9.633  -5.609  0.00  0.00    +0.133 A 
ATOM     23  C   UNL     1       5.176 -10.879  -5.596  0.00  0.00    +0.031 A 
ATOM     24  C   UNL     1       6.511 -11.109  -5.930  0.00  0.00    +0.004 A 
ATOM     25  C   UNL     1       7.337 -10.096  -6.281  0.00  0.00    +0.031 A 
ATOM     26  C   UNL     1       6.852  -8.760  -6.316  0.00  0.00    +0.102 A 
ATOM     27  C   UNL     1       5.455  -8.521  -5.973  0.00  0.00    +0.126 A 
ATOM     28  N   UNL     1       5.110  -7.234  -6.046  0.00  0.00    -0.189 NA
ATOM     29  S   UNL     1       6.439  -6.454  -6.509  0.00  0.00    +0.117 S 
ATOM     30  N   UNL     1       7.512  -7.646  -6.635  0.00  0.00    -0.191 NA
ENDBRANCH  19  22
ENDBRANCH  17  19
ENDBRANCH  16  17
ENDBRANCH   1  16
TORSDOF 8
