REMARK  Name = ZINC25670108
REMARK  7 active torsions:
REMARK  status: ('A' for Active; 'I' for Inactive)
REMARK    1  A    between atoms: C_1  and  C_2
REMARK    2  A    between atoms: C_2  and  O_3
REMARK    3  A    between atoms: O_3  and  C_4
REMARK    4  A    between atoms: C_4  and  C_6
REMARK    5  A    between atoms: C_7  and  C_22
REMARK    6  A    between atoms: C_12  and  C_14
REMARK    7  A    between atoms: C_17  and  O_21
REMARK                            x       y       z     vdW  Elec       q    Type
REMARK                         _______ _______ _______ _____ _____    ______ ____
ROOT
ATOM      1  C   UNL     1       2.938   5.203   1.383  0.00  0.00    +0.078 C 
ATOM      2  C   UNL     1       2.829   6.522   1.654  0.00  0.00    +0.019 C 
ATOM      3  N   UNL     1       2.502   7.417   0.676  0.00  0.00    -0.300 N 
ATOM      4  C   UNL     1       2.269   7.074  -0.597  0.00  0.00    +0.135 C 
ATOM      5  S   UNL     1       1.868   8.299  -1.724  0.00  0.00    -0.019 S 
ATOM      6  N   UNL     1       2.339   5.796  -1.020  0.00  0.00    -0.315 N 
ATOM      7  C   UNL     1       2.685   4.752  -0.041  0.00  0.00    +0.141 C 
ATOM      8  C   UNL     1       3.072   7.013   3.057  0.00  0.00    +0.061 C 
ATOM      9  H   UNL     1       2.418   8.487   0.916  0.00  0.00    +0.154 HD
ATOM     10  H   UNL     1       2.145   5.525  -2.068  0.00  0.00    +0.149 HD
ENDROOT
BRANCH   7  11
ATOM     11  C   UNL     1       1.563   3.747  -0.018  0.00  0.00    -0.021 A 
ATOM     12  C   UNL     1       0.251   4.178   0.062  0.00  0.00    +0.009 A 
ATOM     13  C   UNL     1      -0.780   3.259   0.083  0.00  0.00    +0.047 A 
ATOM     14  C   UNL     1      -0.499   1.902   0.019  0.00  0.00    +0.131 A 
ATOM     15  C   UNL     1       0.818   1.471  -0.057  0.00  0.00    +0.060 A 
ATOM     16  C   UNL     1       1.846   2.395  -0.077  0.00  0.00    +0.024 A 
ATOM     17 BR   UNL     1       1.205  -0.378  -0.139  0.00  0.00    -0.047 Br
BRANCH  14  18
ATOM     18  O   UNL     1      -1.512   0.996   0.033  0.00  0.00    -0.506 OA
ATOM     19  H   UNL     1      -1.289  -0.080  -0.018  0.00  0.00    +0.292 HD
ENDBRANCH  14  18
ENDBRANCH   7  11
BRANCH   1  20
ATOM     20  C   UNL     1       3.276   4.274   2.395  0.00  0.00    +0.339 C 
ATOM     21  O   UNL     1       3.586   4.669   3.504  0.00  0.00    -0.245 OA
BRANCH  20  22
ATOM     22  O   UNL     1       3.257   2.951   2.131  0.00  0.00    -0.462 OA
BRANCH  22  24
ATOM     23  C   UNL     1       3.531   0.622   2.714  0.00  0.00    +0.048 C 
ATOM     24  C   UNL     1       3.610   2.071   3.199  0.00  0.00    +0.229 C 
ENDBRANCH  22  24
ENDBRANCH  20  22
ENDBRANCH   1  20
TORSDOF 5
