REMARK  Name = ZINC17216027
REMARK  11 active torsions:
REMARK  status: ('A' for Active; 'I' for Inactive)
REMARK    1  A    between atoms: C_1  and  C_2
REMARK    2  A    between atoms: C_2  and  C_4
REMARK    3  A    between atoms: C_7  and  N_10
REMARK    4  A    between atoms: C_11  and  C_13
REMARK    5  A    between atoms: C_13  and  C_19
REMARK    6  A    between atoms: N_14  and  N_15
REMARK    7  A    between atoms: N_15  and  C_16
REMARK    8  A    between atoms: C_16  and  N_18
REMARK    9  A    between atoms: C_19  and  C_20
REMARK   10  A    between atoms: C_20  and  C_22
REMARK   11  A    between atoms: C_23  and  C_24
REMARK                            x       y       z     vdW  Elec       q    Type
REMARK                         _______ _______ _______ _____ _____    ______ ____
ROOT
ATOM      1  C   UNL     1       4.698   1.600   0.173  0.00  0.00    +0.128 C 
ATOM      2  N   UNL     1       4.364   0.346   0.066  0.00  0.00    -0.180 NA
ENDROOT
BRANCH   1   4
ATOM      3  N   UNL     1       6.357   3.255   0.841  0.00  0.00    -0.280 N 
ATOM      4  C   UNL     1       5.947   1.971   0.842  0.00  0.00    +0.264 C 
ATOM      5  O   UNL     1       6.614   1.120   1.400  0.00  0.00    -0.268 OA
ATOM      6  H   UNL     1       5.715   4.037   0.408  0.00  0.00    +0.155 HD
BRANCH   3  10
ATOM      7  C   UNL     1      10.043   4.260   2.472  0.00  0.00    +0.017 A 
ATOM      8  C   UNL     1       9.126   5.265   2.137  0.00  0.00    +0.013 A 
ATOM      9  C   UNL     1       7.915   4.929   1.600  0.00  0.00    +0.024 A 
ATOM     10  C   UNL     1       7.592   3.592   1.387  0.00  0.00    +0.034 A 
ATOM     11  C   UNL     1       8.498   2.590   1.724  0.00  0.00    +0.024 A 
ATOM     12  C   UNL     1       9.714   2.916   2.256  0.00  0.00    +0.013 A 
BRANCH   7  14
ATOM     13  C   UNL     1      12.362   3.540   3.334  0.00  0.00    +0.091 C 
ATOM     14  C   UNL     1      11.346   4.616   3.049  0.00  0.00    +0.160 C 
ATOM     15  O   UNL     1      11.604   5.775   3.295  0.00  0.00    -0.292 OA
ENDBRANCH   7  14
ENDBRANCH   3  10
ENDBRANCH   1   4
BRANCH   2  16
ATOM     16  N   UNL     1       5.275  -0.654   0.427  0.00  0.00    -0.218 N 
ATOM     17  H   UNL     1       6.303  -0.385   0.712  0.00  0.00    +0.176 HD
BRANCH  16  18
ATOM     18  C   UNL     1       4.893  -1.947   0.426  0.00  0.00    +0.147 C 
ATOM     19  S   UNL     1       6.006  -3.170   0.868  0.00  0.00    -0.017 S 
BRANCH  18  20
ATOM     20  N   UNL     1       3.633  -2.276   0.076  0.00  0.00    -0.339 N 
ATOM     21  H   UNL     1       3.321  -3.331   0.075  0.00  0.00    +0.144 HD
ATOM     22  H   UNL     1       2.918  -1.490  -0.207  0.00  0.00    +0.144 HD
ENDBRANCH  18  20
ENDBRANCH  16  18
ENDBRANCH   2  16
BRANCH   1  23
ATOM     23  C   UNL     1       3.799   2.670  -0.392  0.00  0.00    +0.141 C 
BRANCH  23  24
ATOM     24  C   UNL     1       2.590   2.029  -1.023  0.00  0.00    +0.162 C 
ATOM     25  O   UNL     1       2.470   0.820  -1.015  0.00  0.00    -0.292 OA
BRANCH  24  26
ATOM     26  C   UNL     1       1.598   2.832  -1.623  0.00  0.00    +0.047 C 
ATOM     27  C   UNL     1       0.512   2.256  -2.189  0.00  0.00    +0.011 C 
BRANCH  27  28
ATOM     28  C   UNL     1      -0.519   3.093  -2.820  0.00  0.00    -0.025 A 
ATOM     29  C   UNL     1      -0.387   4.487  -2.827  0.00  0.00    +0.008 A 
ATOM     30  C   UNL     1      -1.355   5.264  -3.426  0.00  0.00    +0.001 A 
ATOM     31  C   UNL     1      -2.462   4.671  -4.009  0.00  0.00    +0.000 A 
ATOM     32  C   UNL     1      -2.603   3.294  -4.002  0.00  0.00    +0.001 A 
ATOM     33  C   UNL     1      -1.640   2.502  -3.412  0.00  0.00    +0.008 A 
ENDBRANCH  27  28
ENDBRANCH  24  26
ENDBRANCH  23  24
ENDBRANCH   1  23
TORSDOF 10
