REMARK  Name = ZINC14009379
REMARK  11 active torsions:
REMARK  status: ('A' for Active; 'I' for Inactive)
REMARK    1  A    between atoms: C_1  and  C_2
REMARK    2  A    between atoms: C_5  and  N_8
REMARK    3  A    between atoms: C_9  and  C_11
REMARK    4  A    between atoms: C_11  and  N_12
REMARK    5  A    between atoms: C_16  and  C_17
REMARK    6  A    between atoms: C_19  and  C_34
REMARK    7  A    between atoms: N_20  and  C_23
REMARK    8  A    between atoms: C_21  and  C_22
REMARK    9  A    between atoms: C_25  and  N_31
REMARK   10  A    between atoms: C_28  and  O_29
REMARK   11  A    between atoms: O_29  and  C_30
REMARK                            x       y       z     vdW  Elec       q    Type
REMARK                         _______ _______ _______ _____ _____    ______ ____
ROOT
ATOM      1  N   UNL     1       1.358  -0.397  -0.396  0.00  0.00    -0.212 N 
ATOM      2  C   UNL     1       0.133   0.029  -0.028  0.00  0.00    +0.269 C 
ATOM      3  O   UNL     1      -0.841  -0.662   0.208  0.00  0.00    -0.268 OA
ATOM      4  C   UNL     1       0.208   1.494   0.030  0.00  0.00    +0.098 C 
ATOM      5  C   UNL     1      -0.788   2.359   0.352  0.00  0.00    +0.038 C 
ATOM      6  N   UNL     1       1.530   1.809  -0.324  0.00  0.00    -0.265 N 
ATOM      7  C   UNL     1       2.174   0.654  -0.568  0.00  0.00    +0.314 C 
ATOM      8  O   UNL     1       3.341   0.573  -0.900  0.00  0.00    -0.252 OA
ATOM      9  H   UNL     1       1.909   2.700  -0.383  0.00  0.00    +0.157 HD
ENDROOT
BRANCH   5  10
ATOM     10  C   UNL     1      -0.496   3.787   0.512  0.00  0.00    -0.002 A 
ATOM     11  C   UNL     1       0.823   4.404   0.695  0.00  0.00    +0.031 A 
ATOM     12  C   UNL     1       0.617   5.729   0.794  0.00  0.00    +0.022 A 
ATOM     13  N   UNL     1      -0.722   5.984   0.696  0.00  0.00    -0.314 N 
ATOM     14  C   UNL     1      -1.408   4.826   0.525  0.00  0.00    +0.028 A 
ATOM     15  C   UNL     1      -2.902   4.695   0.378  0.00  0.00    +0.064 C 
ATOM     16  C   UNL     1       1.691   6.768   0.989  0.00  0.00    +0.064 C 
BRANCH  13  17
ATOM     17  C   UNL     1      -1.304   7.258   0.762  0.00  0.00    +0.091 A 
ATOM     18  C   UNL     1      -1.700   7.779   1.985  0.00  0.00    +0.062 A 
ATOM     19  C   UNL     1      -2.273   9.035   2.047  0.00  0.00    +0.128 A 
ATOM     20  C   UNL     1      -2.452   9.775   0.893  0.00  0.00    +0.036 A 
ATOM     21  C   UNL     1      -2.060   9.263  -0.329  0.00  0.00    +0.050 A 
ATOM     22  C   UNL     1      -1.479   8.007  -0.400  0.00  0.00    +0.144 A 
BRANCH  19  23
ATOM     23  N   UNL     1      -2.696   9.590   3.353  0.00  0.00    +0.056 N 
ATOM     24  O   UNL     1      -2.539   8.939   4.370  0.00  0.00    -0.126 OA
ATOM     25  O   UNL     1      -3.201  10.697   3.410  0.00  0.00    -0.126 OA
ENDBRANCH  19  23
BRANCH  22  26
ATOM     26  O   UNL     1      -1.087   7.503  -1.600  0.00  0.00    -0.493 OA
ATOM     27  C   UNL     1      -1.298   8.327  -2.749  0.00  0.00    +0.277 C 
ENDBRANCH  22  26
ENDBRANCH  13  17
ENDBRANCH   5  10
BRANCH   1  28
ATOM     28  C   UNL     1       1.741  -1.799  -0.580  0.00  0.00    +0.214 C 
BRANCH  28  30
ATOM     29  N   UNL     1       1.768  -3.461  -2.412  0.00  0.00    -0.284 N 
ATOM     30  C   UNL     1       1.488  -2.205  -2.009  0.00  0.00    +0.235 C 
ATOM     31  O   UNL     1       1.033  -1.403  -2.796  0.00  0.00    -0.274 OA
ATOM     32  H   UNL     1       2.055  -4.125  -1.766  0.00  0.00    +0.155 HD
BRANCH  29  37
ATOM     33  C   UNL     1       1.272  -4.860  -7.887  0.00  0.00    +0.044 C 
ATOM     34  C   UNL     1       1.403  -4.488  -6.433  0.00  0.00    -0.050 A 
ATOM     35  C   UNL     1       1.783  -3.206  -6.080  0.00  0.00    +0.005 A 
ATOM     36  C   UNL     1       1.905  -2.862  -4.748  0.00  0.00    +0.023 A 
ATOM     37  C   UNL     1       1.645  -3.806  -3.762  0.00  0.00    +0.033 A 
ATOM     38  C   UNL     1       1.269  -5.094  -4.120  0.00  0.00    +0.023 A 
ATOM     39  C   UNL     1       1.145  -5.430  -5.454  0.00  0.00    +0.005 A 
ENDBRANCH  29  37
ENDBRANCH  28  30
ENDBRANCH   1  28
TORSDOF 7
