REMARK  Name = ZINC24904285
REMARK  7 active torsions:
REMARK  status: ('A' for Active; 'I' for Inactive)
REMARK    1  A    between atoms: C_1  and  C_2
REMARK    2  A    between atoms: C_4  and  C_7
REMARK    3  A    between atoms: C_7  and  N_8
REMARK    4  A    between atoms: N_8  and  C_9
REMARK    5  A    between atoms: C_12  and  N_15
REMARK    6  A    between atoms: C_20  and  C_31
REMARK    7  A    between atoms: C_23  and  C_26
REMARK                            x       y       z     vdW  Elec       q    Type
REMARK                         _______ _______ _______ _____ _____    ______ ____
ROOT
ATOM      1  N   UNL     1      -2.064   3.470   5.807  0.00  0.00    -0.326 N 
ATOM      2  C   UNL     1      -2.719   3.215   4.614  0.00  0.00    +0.128 A 
ATOM      3  C   UNL     1      -1.992   2.760   3.493  0.00  0.00    +0.041 A 
ATOM      4  C   UNL     1      -0.605   2.552   3.540  0.00  0.00    +0.015 A 
ATOM      5  C   UNL     1       0.018   2.111   2.405  0.00  0.00    +0.033 A 
ATOM      6  C   UNL     1      -0.722   1.881   1.250  0.00  0.00    +0.144 A 
ATOM      7  N   UNL     1      -2.020   2.082   1.210  0.00  0.00    -0.242 NA
ATOM      8  C   UNL     1      -2.683   2.506   2.284  0.00  0.00    +0.084 A 
ATOM      9  C   UNL     1      -4.085   2.724   2.261  0.00  0.00    +0.027 A 
ATOM     10  C   UNL     1      -4.704   3.171   3.414  0.00  0.00    +0.123 A 
ATOM     11  N   UNL     1      -4.023   3.397   4.527  0.00  0.00    -0.239 NA
ATOM     12  H   UNL     1      -0.977   3.317   5.881  0.00  0.00    +0.148 HD
ENDROOT
BRANCH   1  16
ATOM     13  C   UNL     1      -0.835   5.734   8.171  0.00  0.00    -0.071 C 
ATOM     14  C   UNL     1      -0.684   4.213   8.243  0.00  0.00    -0.014 C 
ATOM     15  C   UNL     1      -2.070   3.563   8.251  0.00  0.00    +0.020 C 
ATOM     16  C   UNL     1      -2.818   3.942   6.971  0.00  0.00    +0.072 C 
ATOM     17  C   UNL     1      -2.968   5.462   6.899  0.00  0.00    +0.020 C 
ATOM     18  C   UNL     1      -1.583   6.112   6.891  0.00  0.00    -0.014 C 
BRANCH  13  19
ATOM     19  N   UNL     1       0.495   6.358   8.163  0.00  0.00    +0.385 N 
ATOM     20  H   UNL     1       0.873   6.370   7.130  0.00  0.00    -0.085 HD
ATOM     21  H   UNL     1       1.169   5.759   8.793  0.00  0.00    -0.085 HD
BRANCH  19  22
ATOM     22  C   UNL     1       0.435   7.732   8.679  0.00  0.00    -0.022 C 
BRANCH  22  26
ATOM     23  C   UNL     1       4.654  10.269   7.386  0.00  0.00    +0.089 C 
ATOM     24  C   UNL     1       3.614   9.431   8.084  0.00  0.00    +0.134 A 
ATOM     25  C   UNL     1       2.369   9.142   7.634  0.00  0.00    +0.068 A 
ATOM     26  C   UNL     1       1.815   8.338   8.656  0.00  0.00    +0.067 A 
ATOM     27  N   UNL     1       2.733   8.220   9.571  0.00  0.00    -0.085 NA
ATOM     28  O   UNL     1       3.740   8.820   9.271  0.00  0.00    -0.360 OA
ENDBRANCH  22  26
ENDBRANCH  19  22
ENDBRANCH  13  19
ENDBRANCH   1  16
BRANCH   9  29
ATOM     29  C   UNL     1      -4.869   2.478   1.028  0.00  0.00    -0.007 A 
ATOM     30  C   UNL     1      -6.024   1.701   1.062  0.00  0.00    +0.016 A 
ATOM     31  C   UNL     1      -6.715   1.503  -0.083  0.00  0.00    +0.046 A 
ATOM     32  S   UNL     1      -5.742   2.407  -1.274  0.00  0.00    -0.104 S 
ATOM     33  C   UNL     1      -4.472   3.003  -0.170  0.00  0.00    +0.053 A 
ENDBRANCH   9  29
BRANCH   6  34
ATOM     34  C   UNL     1      -0.017   1.395   0.010  0.00  0.00    +0.434 C 
ATOM     35  F   UNL     1       0.002  -0.004   0.002  0.00  0.00    -0.164 F 
ATOM     36  F   UNL     1       1.296   1.879  -0.000  0.00  0.00    -0.164 F 
ATOM     37  F   UNL     1      -0.694   1.858  -1.124  0.00  0.00    -0.164 F 
ENDBRANCH   6  34
TORSDOF 6
