REMARK  Name = ZINC15354171
REMARK  4 active torsions:
REMARK  status: ('A' for Active; 'I' for Inactive)
REMARK    1  A    between atoms: C_6  and  C_7
REMARK    2  A    between atoms: N_8  and  N_9
REMARK    3  A    between atoms: C_10  and  C_12
REMARK    4  A    between atoms: C_14  and  N_20
REMARK                            x       y       z     vdW  Elec       q    Type
REMARK                         _______ _______ _______ _____ _____    ______ ____
ROOT
ATOM      1  N   UNL     1       3.590   6.229  -0.001  0.00  0.00    -0.202 N 
ATOM      2  C   UNL     1       3.566   7.577   0.006  0.00  0.00    +0.283 C 
ATOM      3  O   UNL     1       2.502   8.166   0.020  0.00  0.00    -0.267 OA
ATOM      4  H   UNL     1       4.552   5.696  -0.013  0.00  0.00    +0.178 HD
ENDROOT
BRANCH   2   5
ATOM      5  C   UNL     1       4.834   8.339  -0.002  0.00  0.00    +0.149 A 
ATOM      6  C   UNL     1       4.802   9.731  -0.001  0.00  0.00    +0.094 A 
ATOM      7  C   UNL     1       6.006  10.435  -0.003  0.00  0.00    +0.067 A 
ATOM      8  C   UNL     1       7.197   9.710  -0.018  0.00  0.00    +0.100 A 
ATOM      9  C   UNL     1       7.146   8.325  -0.025  0.00  0.00    +0.150 A 
ATOM     10  N   UNL     1       5.993   7.689  -0.017  0.00  0.00    -0.228 NA
ATOM     11 CL   UNL     1       8.625   7.415  -0.043  0.00  0.00    -0.060 Cl
ATOM     12 CL   UNL     1       8.725  10.532  -0.029  0.00  0.00    -0.078 Cl
ATOM     13 CL   UNL     1       3.286  10.577   0.011  0.00  0.00    -0.079 Cl
BRANCH   7  14
ATOM     14  N   UNL     1       6.019  11.828   0.004  0.00  0.00    -0.356 N 
ATOM     15  H   UNL     1       6.977  12.369   0.002  0.00  0.00    +0.142 HD
ATOM     16  H   UNL     1       5.071  12.387   0.011  0.00  0.00    +0.142 HD
ENDBRANCH   7  14
ENDBRANCH   2   5
BRANCH   1  18
ATOM     17  C   UNL     1       2.412   4.209   0.001  0.00  0.00    +0.138 C 
ATOM     18  N   UNL     1       2.389   5.507   0.007  0.00  0.00    -0.187 NA
BRANCH  17  24
ATOM     19  C   UNL     1      -0.075   4.124   0.024  0.00  0.00    +0.012 A 
ATOM     20  C   UNL     1      -1.254   3.409   0.031  0.00  0.00    +0.042 A 
ATOM     21  C   UNL     1      -1.228   2.024   0.019  0.00  0.00    +0.158 A 
ATOM     22  C   UNL     1      -0.016   1.347   0.009  0.00  0.00    +0.159 A 
ATOM     23  C   UNL     1       1.170   2.052   0.002  0.00  0.00    +0.050 A 
ATOM     24  C   UNL     1       1.149   3.449   0.009  0.00  0.00    -0.003 A 
ATOM     25  F   UNL     1       0.002  -0.004   0.002  0.00  0.00    -0.202 F 
ATOM     26  F   UNL     1      -2.387   1.329   0.021  0.00  0.00    -0.202 F 
ENDBRANCH  17  24
ENDBRANCH   1  18
TORSDOF 4
