REMARK  Name = ZINC05157034
REMARK  10 active torsions:
REMARK  status: ('A' for Active; 'I' for Inactive)
REMARK    1  A    between atoms: C_1  and  C_2
REMARK    2  A    between atoms: C_2  and  N_3
REMARK    3  A    between atoms: N_3  and  C_4
REMARK    4  A    between atoms: N_3  and  C_6
REMARK    5  A    between atoms: C_4  and  C_5
REMARK    6  A    between atoms: C_9  and  C_12
REMARK    7  A    between atoms: C_20  and  O_34
REMARK    8  A    between atoms: N_23  and  C_24
REMARK    9  A    between atoms: C_24  and  C_25
REMARK   10  A    between atoms: N_27  and  C_28
REMARK                            x       y       z     vdW  Elec       q    Type
REMARK                         _______ _______ _______ _____ _____    ______ ____
ROOT
ATOM      1  C   UNL     1      -3.979  -1.537   5.030  0.00  0.00    -0.031 C 
ATOM      2  C   UNL     1      -4.824  -0.322   5.415  0.00  0.00    +0.011 C 
ATOM      3  C   UNL     1      -3.925   0.891   5.655  0.00  0.00    +0.005 C 
ATOM      4  C   UNL     1      -4.792   2.090   6.050  0.00  0.00    +0.000 C 
ATOM      5  C   UNL     1      -5.786   2.398   4.930  0.00  0.00    +0.003 C 
ATOM      6  C   UNL     1      -6.676   1.178   4.679  0.00  0.00    +0.035 C 
ATOM      7  C   UNL     1      -5.799  -0.008   4.277  0.00  0.00    +0.066 C 
ATOM      8  C   UNL     1      -6.668  -1.238   4.012  0.00  0.00    +0.016 C 
ATOM      9  C   UNL     1      -5.762  -2.428   3.682  0.00  0.00    -0.075 C 
ATOM     10  N   UNL     1      -4.858  -2.692   4.807  0.00  0.00    +0.390 N 
ATOM     11  H   UNL     1      -5.402  -2.864   5.640  0.00  0.00    -0.080 HD
ENDROOT
BRANCH   1  15
ATOM     12  C   UNL     1      -1.808  -0.687   1.448  0.00  0.00    +0.030 A 
ATOM     13  C   UNL     1      -1.633   0.109   2.573  0.00  0.00    +0.023 A 
ATOM     14  C   UNL     1      -2.336  -0.169   3.729  0.00  0.00    +0.004 A 
ATOM     15  C   UNL     1      -3.214  -1.237   3.767  0.00  0.00    -0.060 A 
ATOM     16  C   UNL     1      -3.390  -2.031   2.648  0.00  0.00    +0.004 A 
ATOM     17  C   UNL     1      -2.694  -1.756   1.488  0.00  0.00    +0.023 A 
BRANCH  12  18
ATOM     18  N   UNL     1      -1.098  -0.409   0.277  0.00  0.00    -0.330 N 
BRANCH  18  20
ATOM     19  C   UNL     1      -0.904   1.978  -0.217  0.00  0.00    +0.024 C 
ATOM     20  C   UNL     1      -0.164   0.719   0.237  0.00  0.00    +0.102 C 
ENDBRANCH  18  20
BRANCH  18  21
ATOM     21  C   UNL     1      -1.288  -1.245  -0.910  0.00  0.00    +0.102 C 
ATOM     22  C   UNL     1      -0.289  -2.404  -0.884  0.00  0.00    +0.024 C 
ENDBRANCH  18  21
ENDBRANCH  12  18
ENDBRANCH   1  15
BRANCH   7  23
ATOM     23  O   UNL     1      -5.064   0.321   3.096  0.00  0.00    -0.388 OA
ATOM     24  H   UNL     1      -5.619   0.532   2.333  0.00  0.00    +0.210 HD
ENDBRANCH   7  23
BRANCH  10  25
ATOM     25  C   UNL     1      -4.041  -3.876   4.509  0.00  0.00    +0.020 C 
BRANCH  25  26
ATOM     26  C   UNL     1      -4.936  -5.078   4.355  0.00  0.00    +0.201 C 
ATOM     27  O   UNL     1      -6.137  -4.961   4.481  0.00  0.00    -0.278 OA
ATOM     28  N   UNL     1      -4.403  -6.284   4.076  0.00  0.00    -0.287 N 
ATOM     29  H   UNL     1      -3.439  -6.392   4.040  0.00  0.00    +0.155 HD
BRANCH  28  30
ATOM     30  C   UNL     1      -5.238  -7.381   3.840  0.00  0.00    +0.033 A 
ATOM     31  C   UNL     1      -4.871  -8.349   2.913  0.00  0.00    +0.023 A 
ATOM     32  C   UNL     1      -5.699  -9.430   2.682  0.00  0.00    +0.002 A 
ATOM     33  C   UNL     1      -6.891  -9.550   3.372  0.00  0.00    +0.000 A 
ATOM     34  C   UNL     1      -7.260  -8.589   4.295  0.00  0.00    +0.002 A 
ATOM     35  C   UNL     1      -6.434  -7.508   4.535  0.00  0.00    +0.023 A 
ENDBRANCH  28  30
ENDBRANCH  25  26
ENDBRANCH  10  25
TORSDOF 8
