REMARK  Name = ZINC48765052
REMARK  5 active torsions:
REMARK  status: ('A' for Active; 'I' for Inactive)
REMARK    1  A    between atoms: C_6  and  C_7
REMARK    2  A    between atoms: C_7  and  C_8
REMARK    3  A    between atoms: C_8  and  N_9
REMARK    4  A    between atoms: N_9  and  C_10
REMARK    5  A    between atoms: C_15  and  N_16
REMARK                            x       y       z     vdW  Elec       q    Type
REMARK                         _______ _______ _______ _____ _____    ______ ____
ROOT
ATOM      1  C   UNL     1      -3.619  -2.130  -2.632  0.00  0.00    +0.050 A 
ATOM      2  C   UNL     1      -3.019  -1.766  -3.834  0.00  0.00    +0.026 A 
ATOM      3  C   UNL     1      -3.622  -2.112  -5.029  0.00  0.00    +0.019 A 
ATOM      4  C   UNL     1      -4.806  -2.811  -5.016  0.00  0.00    +0.041 A 
ATOM      5  C   UNL     1      -5.446  -3.199  -3.819  0.00  0.00    +0.100 A 
ATOM      6  C   UNL     1      -4.807  -2.837  -2.609  0.00  0.00    +0.073 A 
ATOM      7  N   UNL     1      -6.596  -3.876  -4.020  0.00  0.00    -0.246 NA
ATOM      8  C   UNL     1      -7.049  -4.133  -5.212  0.00  0.00    +0.157 A 
ATOM      9  S   UNL     1      -5.910  -3.452  -6.248  0.00  0.00    -0.075 S 
ENDROOT
BRANCH   6  10
ATOM     10  N   UNL     1      -5.383  -3.194  -1.383  0.00  0.00    -0.355 N 
ATOM     11  H   UNL     1      -4.949  -2.944  -0.552  0.00  0.00    +0.142 HD
ATOM     12  H   UNL     1      -6.217  -3.690  -1.365  0.00  0.00    +0.142 HD
ENDBRANCH   6  10
BRANCH   1  13
ATOM     13  N   UNL     1      -3.004  -1.778  -1.420  0.00  0.00    -0.342 N 
ATOM     14  H   UNL     1      -3.413  -2.030  -0.578  0.00  0.00    +0.146 HD
BRANCH  13  15
ATOM     15  C   UNL     1      -1.745  -1.028  -1.429  0.00  0.00    +0.106 C 
BRANCH  15  16
ATOM     16  C   UNL     1      -1.293  -0.775   0.011  0.00  0.00    +0.054 C 
BRANCH  16  22
ATOM     17  C   UNL     1      -0.017   1.378   0.010  0.00  0.00    +0.005 A 
ATOM     18  C   UNL     1       1.171   2.086   0.002  0.00  0.00    +0.020 A 
ATOM     19  C   UNL     1       2.378   1.410  -0.013  0.00  0.00    +0.041 A 
ATOM     20  C   UNL     1       2.396   0.027  -0.021  0.00  0.00    +0.020 A 
ATOM     21  C   UNL     1       1.208  -0.679  -0.013  0.00  0.00    +0.005 A 
ATOM     22  C   UNL     1       0.002  -0.004   0.002  0.00  0.00    -0.046 A 
ATOM     23 CL   UNL     1       3.870   2.298  -0.023  0.00  0.00    -0.084 Cl
ENDBRANCH  16  22
ENDBRANCH  15  16
ENDBRANCH  13  15
ENDBRANCH   1  13
TORSDOF 5
