REMARK  Name = ZINC16676618
REMARK  6 active torsions:
REMARK  status: ('A' for Active; 'I' for Inactive)
REMARK    1  A    between atoms: C_1  and  C_2
REMARK    2  A    between atoms: C_2  and  C_28
REMARK    3  A    between atoms: N_7  and  C_10
REMARK    4  A    between atoms: C_13  and  S_16
REMARK    5  A    between atoms: S_16  and  N_19
REMARK    6  A    between atoms: N_19  and  C_20
REMARK                            x       y       z     vdW  Elec       q    Type
REMARK                         _______ _______ _______ _____ _____    ______ ____
ROOT
ATOM      1  C   UNL     1       1.629   4.582   3.461  0.00  0.00    +0.059 A 
ATOM      2  C   UNL     1       2.156   3.300   3.542  0.00  0.00    +0.027 A 
ATOM      3  C   UNL     1       2.087   2.456   2.451  0.00  0.00    +0.030 A 
ATOM      4  C   UNL     1       1.495   2.887   1.278  0.00  0.00    +0.109 A 
ATOM      5  C   UNL     1       0.974   4.165   1.192  0.00  0.00    +0.030 A 
ATOM      6  C   UNL     1       1.034   5.012   2.282  0.00  0.00    +0.027 A 
ENDROOT
BRANCH   1  13
ATOM      7  C   UNL     1       2.839   5.768   7.979  0.00  0.00    +0.022 C 
ATOM      8  C   UNL     1       1.812   6.130   6.904  0.00  0.00    +0.064 C 
ATOM      9  C   UNL     1       2.202   7.477   6.241  0.00  0.00    +0.205 C 
ATOM     10  S   UNL     1       1.678   7.112   4.516  0.00  0.00    +0.053 S 
ATOM     11  O   UNL     1       2.690   7.481   3.589  0.00  0.00    -0.155 OA
ATOM     12  O   UNL     1       0.319   7.475   4.311  0.00  0.00    -0.155 OA
ATOM     13  N   UNL     1       1.697   5.439   4.565  0.00  0.00    -0.143 N 
ATOM     14  C   UNL     1       1.783   5.065   5.850  0.00  0.00    +0.246 C 
ATOM     15  O   UNL     1       1.841   3.892   6.152  0.00  0.00    -0.273 OA
ATOM     16  C   UNL     1       0.425   6.252   7.539  0.00  0.00    +0.022 C 
ENDBRANCH   1  13
BRANCH   4  17
ATOM     17  S   UNL     1       1.410   1.808  -0.113  0.00  0.00    +0.072 S 
ATOM     18  O   UNL     1       2.458   0.861   0.043  0.00  0.00    -0.150 OA
ATOM     19  O   UNL     1       1.296   2.635  -1.262  0.00  0.00    -0.150 OA
BRANCH  17  20
ATOM     20  N   UNL     1      -0.011   0.966   0.007  0.00  0.00    -0.213 N 
ATOM     21  H   UNL     1       0.003  -0.002   0.071  0.00  0.00    +0.174 HD
BRANCH  20  22
ATOM     22  C   UNL     1      -1.232   1.650   0.011  0.00  0.00    +0.083 A 
ATOM     23  C   UNL     1      -1.392   2.791  -0.763  0.00  0.00    +0.028 A 
ATOM     24  C   UNL     1      -2.598   3.464  -0.757  0.00  0.00    +0.017 A 
ATOM     25  C   UNL     1      -3.647   3.003   0.019  0.00  0.00    +0.021 A 
ATOM     26  C   UNL     1      -3.491   1.867   0.792  0.00  0.00    +0.055 A 
ATOM     27  C   UNL     1      -2.288   1.185   0.786  0.00  0.00    +0.147 A 
ATOM     28  F   UNL     1      -2.138   0.071   1.537  0.00  0.00    -0.203 F 
ATOM     29 BR   UNL     1      -5.295   3.929   0.023  0.00  0.00    -0.050 Br
ENDBRANCH  20  22
ENDBRANCH  17  20
ENDBRANCH   4  17
TORSDOF 4
