REMARK  Name = ZINC36252250
REMARK  5 active torsions:
REMARK  status: ('A' for Active; 'I' for Inactive)
REMARK    1  A    between atoms: C_1  and  C_2
REMARK    2  A    between atoms: C_8  and  C_10
REMARK    3  A    between atoms: C_10  and  S_11
REMARK    4  A    between atoms: S_11  and  C_12
REMARK    5  A    between atoms: C_22  and  C_26
REMARK                            x       y       z     vdW  Elec       q    Type
REMARK                         _______ _______ _______ _____ _____    ______ ____
ROOT
ATOM      1  C   UNL     1       0.510  -7.905   4.031  0.00  0.00    +0.191 A 
ATOM      2  N   UNL     1       0.489  -7.300   5.213  0.00  0.00    -0.207 NA
ATOM      3  C   UNL     1       0.136  -7.932   6.319  0.00  0.00    +0.129 A 
ATOM      4  C   UNL     1      -0.234  -9.305   6.248  0.00  0.00    +0.051 A 
ATOM      5  C   UNL     1      -0.658 -10.196   7.331  0.00  0.00    -0.025 A 
ATOM      6  C   UNL     1      -0.957 -11.466   6.996  0.00  0.00    -0.004 A 
ATOM      7  S   UNL     1      -0.698 -11.556   5.245  0.00  0.00    -0.073 S 
ATOM      8  C   UNL     1      -0.188  -9.881   4.964  0.00  0.00    +0.115 A 
ATOM      9  N   UNL     1       0.171  -9.181   3.905  0.00  0.00    -0.214 NA
ATOM     10  C   UNL     1      -1.411 -12.563   7.910  0.00  0.00    +0.046 C 
ATOM     11  C   UNL     1      -1.848 -11.935   9.241  0.00  0.00    -0.009 C 
ATOM     12  C   UNL     1      -0.768 -10.950   9.697  0.00  0.00    +0.008 C 
ATOM     13  C   UNL     1      -0.762  -9.726   8.780  0.00  0.00    +0.037 C 
ATOM     14  C   UNL     1      -2.024 -13.032  10.293  0.00  0.00    +0.008 C 
ATOM     15  N   UNL     1       0.128  -7.268   7.532  0.00  0.00    -0.343 N 
ATOM     16  H   UNL     1      -0.346  -7.646   8.289  0.00  0.00    +0.144 HD
ATOM     17  H   UNL     1       0.596  -6.423   7.626  0.00  0.00    +0.144 HD
ENDROOT
BRANCH   1  18
ATOM     18  S   UNL     1       0.991  -6.993   2.602  0.00  0.00    -0.077 S 
BRANCH  18  19
ATOM     19  C   UNL     1       1.357  -5.335   3.242  0.00  0.00    +0.173 C 
BRANCH  19  27
ATOM     20  C   UNL     1       3.614   1.036   0.292  0.00  0.00    +0.066 C 
ATOM     21  C   UNL     1       3.211  -0.416   0.251  0.00  0.00    +0.047 A 
ATOM     22  C   UNL     1       3.197  -1.114  -0.912  0.00  0.00    +0.071 A 
ATOM     23  S   UNL     1       2.656  -2.714  -0.333  0.00  0.00    -0.060 S 
ATOM     24  C   UNL     1       2.508  -2.332   1.300  0.00  0.00    +0.165 A 
ATOM     25  N   UNL     1       2.862  -1.066   1.345  0.00  0.00    -0.230 NA
ATOM     26  N   UNL     1       2.111  -3.156   2.347  0.00  0.00    -0.264 N 
ATOM     27  C   UNL     1       1.787  -4.442   2.107  0.00  0.00    +0.229 C 
ATOM     28  O   UNL     1       1.841  -4.880   0.977  0.00  0.00    -0.275 OA
ATOM     29  H   UNL     1       2.068  -2.805   3.250  0.00  0.00    +0.157 HD
ENDBRANCH  19  27
ENDBRANCH  18  19
ENDBRANCH   1  18
TORSDOF 3
