REMARK  Name = ZINC41607562
REMARK  7 active torsions:
REMARK  status: ('A' for Active; 'I' for Inactive)
REMARK    1  A    between atoms: C_1  and  C_2
REMARK    2  A    between atoms: C_2  and  C_4
REMARK    3  A    between atoms: C_2  and  S_16
REMARK    4  A    between atoms: N_6  and  C_7
REMARK    5  A    between atoms: C_10  and  C_13
REMARK    6  A    between atoms: C_13  and  C_15
REMARK    7  A    between atoms: S_16  and  C_17
REMARK                            x       y       z     vdW  Elec       q    Type
REMARK                         _______ _______ _______ _____ _____    ______ ____
ROOT
ATOM      1  C   UNL     1      -0.022   1.532  -0.005  0.00  0.00    +0.029 C 
ATOM      2  C   UNL     1       0.004   0.002   0.001  0.00  0.00    +0.137 C 
ENDROOT
BRANCH   2   3
ATOM      3  C   UNL     1       0.708  -0.493  -1.236  0.00  0.00    +0.230 C 
ATOM      4  O   UNL     1       0.066  -0.797  -2.218  0.00  0.00    -0.274 OA
ATOM      5  N   UNL     1       2.051  -0.599  -1.250  0.00  0.00    -0.285 N 
ATOM      6  H   UNL     1       2.570  -0.295  -0.488  0.00  0.00    +0.155 HD
BRANCH   5   7
ATOM      7  C   UNL     1       2.696  -1.147  -2.357  0.00  0.00    +0.033 A 
ATOM      8  C   UNL     1       3.839  -1.922  -2.182  0.00  0.00    +0.024 A 
ATOM      9  C   UNL     1       4.476  -2.463  -3.269  0.00  0.00    +0.013 A 
ATOM     10  C   UNL     1       3.975  -2.234  -4.557  0.00  0.00    +0.017 A 
ATOM     11  C   UNL     1       2.825  -1.453  -4.728  0.00  0.00    +0.013 A 
ATOM     12  C   UNL     1       2.191  -0.921  -3.635  0.00  0.00    +0.024 A 
BRANCH  10  13
ATOM     13  C   UNL     1       4.654  -2.811  -5.724  0.00  0.00    +0.160 C 
ATOM     14  O   UNL     1       5.594  -3.561  -5.569  0.00  0.00    -0.292 OA
ATOM     15  C   UNL     1       4.182  -2.470  -7.114  0.00  0.00    +0.091 C 
ENDBRANCH  10  13
ENDBRANCH   5   7
ENDBRANCH   2   3
BRANCH   2  16
ATOM     16  S   UNL     1      -1.696  -0.631   0.025  0.00  0.00    -0.075 S 
BRANCH  16  17
ATOM     17  C   UNL     1      -2.329  -0.096   1.579  0.00  0.00    +0.170 A 
ATOM     18  N   UNL     1      -3.606  -0.414   1.927  0.00  0.00    -0.302 N 
ATOM     19  H   UNL     1      -4.162  -0.931   1.323  0.00  0.00    +0.171 HD
ATOM     20  C   UNL     1      -4.095  -0.006   3.117  0.00  0.00    +0.255 A 
ATOM     21  O   UNL     1      -5.237  -0.282   3.446  0.00  0.00    -0.267 OA
ATOM     22  C   UNL     1      -3.264   0.742   3.971  0.00  0.00    +0.038 A 
ATOM     23  C   UNL     1      -1.993   1.032   3.572  0.00  0.00    +0.052 A 
ATOM     24  N   UNL     1      -1.556   0.601   2.388  0.00  0.00    -0.228 NA
ATOM     25  C   UNL     1      -1.288   1.839   4.642  0.00  0.00    +0.056 C 
ATOM     26  C   UNL     1      -2.415   2.376   5.550  0.00  0.00    +0.011 C 
ATOM     27  C   UNL     1      -3.529   1.326   5.341  0.00  0.00    +0.043 C 
ENDBRANCH  16  17
ENDBRANCH   2  16
TORSDOF 5
