REMARK  Name = ZINC09292305
REMARK  7 active torsions:
REMARK  status: ('A' for Active; 'I' for Inactive)
REMARK    1  A    between atoms: C_4  and  C_7
REMARK    2  A    between atoms: C_7  and  O_8
REMARK    3  A    between atoms: O_8  and  C_9
REMARK    4  A    between atoms: C_12  and  C_15
REMARK    5  A    between atoms: C_22  and  N_36
REMARK    6  A    between atoms: C_23  and  C_34
REMARK    7  A    between atoms: C_24  and  C_26
REMARK                            x       y       z     vdW  Elec       q    Type
REMARK                         _______ _______ _______ _____ _____    ______ ____
ROOT
ATOM      1  C   UNL     1       9.005  -3.667   1.975  0.00  0.00    +0.100 A 
ATOM      2  C   UNL     1       9.933  -3.452   2.998  0.00  0.00    +0.054 A 
ATOM      3  C   UNL     1      10.976  -4.312   2.809  0.00  0.00    +0.223 A 
ATOM      4  N   UNL     1      10.713  -5.040   1.704  0.00  0.00    -0.246 N 
ATOM      5  H   UNL     1      11.280  -5.731   1.328  0.00  0.00    +0.192 HD
ATOM      6  N   UNL     1       9.471  -4.626   1.198  0.00  0.00    -0.171 NA
ATOM      7  O   UNL     1      12.048  -4.357   3.640  0.00  0.00    -0.423 OA
ATOM      8  C   UNL     1      11.946  -3.722   4.825  0.00  0.00    +0.200 C 
ATOM      9  C   UNL     1      10.966  -2.840   5.125  0.00  0.00    +0.098 C 
ATOM     10  C   UNL     1       9.881  -2.474   4.144  0.00  0.00    +0.104 C 
ENDROOT
BRANCH  10  11
ATOM     11  C   UNL     1      10.110  -1.076   3.629  0.00  0.00    +0.002 A 
ATOM     12  C   UNL     1      11.288  -0.764   2.975  0.00  0.00    +0.046 A 
ATOM     13  C   UNL     1      11.498   0.520   2.504  0.00  0.00    +0.020 A 
ATOM     14  C   UNL     1      10.531   1.490   2.686  0.00  0.00    +0.003 A 
ATOM     15  C   UNL     1       9.353   1.179   3.339  0.00  0.00    +0.020 A 
ATOM     16  C   UNL     1       9.140  -0.106   3.806  0.00  0.00    +0.046 A 
ATOM     17 CL   UNL     1       7.657  -0.499   4.620  0.00  0.00    -0.083 Cl
ATOM     18 CL   UNL     1      12.504  -1.982   2.748  0.00  0.00    -0.083 Cl
ENDBRANCH  10  11
BRANCH   1  22
ATOM     19  C   UNL     1       5.319  -1.605   1.466  0.00  0.00    +0.121 A 
ATOM     20  C   UNL     1       6.047  -2.006   0.355  0.00  0.00    +0.046 A 
ATOM     21  C   UNL     1       7.242  -2.675   0.517  0.00  0.00    +0.013 A 
ATOM     22  C   UNL     1       7.719  -2.947   1.798  0.00  0.00    +0.003 A 
ATOM     23  C   UNL     1       6.986  -2.542   2.912  0.00  0.00    +0.013 A 
ATOM     24  C   UNL     1       5.794  -1.870   2.744  0.00  0.00    +0.046 A 
BRANCH  19  25
ATOM     25  O   UNL     1       4.141  -0.946   1.304  0.00  0.00    -0.487 OA
BRANCH  25  26
ATOM     26  C   UNL     1       3.711  -0.707  -0.038  0.00  0.00    +0.264 C 
BRANCH  26  30
ATOM     27  C   UNL     1      -0.017   1.378   0.010  0.00  0.00    +0.000 A 
ATOM     28  C   UNL     1       1.171   2.086   0.002  0.00  0.00    +0.000 A 
ATOM     29  C   UNL     1       2.377   1.411  -0.013  0.00  0.00    +0.007 A 
ATOM     30  C   UNL     1       2.396   0.029  -0.020  0.00  0.00    -0.010 A 
ATOM     31  C   UNL     1       1.208  -0.679  -0.012  0.00  0.00    +0.007 A 
ATOM     32  C   UNL     1       0.002  -0.004   0.002  0.00  0.00    +0.000 A 
ENDBRANCH  26  30
ENDBRANCH  25  26
ENDBRANCH  19  25
ENDBRANCH   1  22
BRANCH   8  33
ATOM     33  N   UNL     1      12.893  -3.987   5.784  0.00  0.00    -0.328 N 
ATOM     34  H   UNL     1      13.608  -4.615   5.598  0.00  0.00    +0.145 HD
ATOM     35  H   UNL     1      12.846  -3.546   6.646  0.00  0.00    +0.145 HD
ENDBRANCH   8  33
BRANCH   9  36
ATOM     36  C   UNL     1      10.959  -2.232   6.421  0.00  0.00    +0.101 C 
ATOM     37  N   UNL     1      10.952  -1.749   7.449  0.00  0.00    -0.191 NA
ENDBRANCH   9  36
TORSDOF 7
