REMARK  Name = ZINC35325573
REMARK  9 active torsions:
REMARK  status: ('A' for Active; 'I' for Inactive)
REMARK    1  A    between atoms: C_1  and  C_2
REMARK    2  A    between atoms: C_7  and  N_12
REMARK    3  A    between atoms: C_9  and  C_11
REMARK    4  A    between atoms: C_13  and  C_15
REMARK    5  A    between atoms: C_15  and  C_39
REMARK    6  A    between atoms: N_28  and  C_29
REMARK    7  A    between atoms: C_29  and  C_30
REMARK    8  A    between atoms: C_30  and  C_31
REMARK    9  A    between atoms: C_31  and  N_32
REMARK                            x       y       z     vdW  Elec       q    Type
REMARK                         _______ _______ _______ _____ _____    ______ ____
ROOT
ATOM      1  C   UNL     1       2.685  -4.035   3.730  0.00  0.00    +0.129 C 
ATOM      2  C   UNL     1       1.683  -4.707   4.668  0.00  0.00    +0.159 C 
ATOM      3  N   UNL     1       0.907  -3.681   5.368  0.00  0.00    -0.317 N 
ATOM      4  C   UNL     1      -0.356  -3.694   5.851  0.00  0.00    +0.069 A 
ATOM      5  C   UNL     1      -1.367  -4.653   5.848  0.00  0.00    +0.028 A 
ATOM      6  C   UNL     1      -2.562  -4.309   6.454  0.00  0.00    +0.002 A 
ATOM      7  C   UNL     1      -2.759  -3.069   7.042  0.00  0.00    +0.002 A 
ATOM      8  C   UNL     1      -1.785  -2.105   7.061  0.00  0.00    +0.030 A 
ATOM      9  C   UNL     1      -0.561  -2.421   6.453  0.00  0.00    +0.090 A 
ATOM     10  N   UNL     1       0.564  -1.718   6.300  0.00  0.00    -0.223 NA
ATOM     11  C   UNL     1       1.439  -2.435   5.658  0.00  0.00    +0.198 A 
ATOM     12  C   UNL     1       2.816  -2.090   5.226  0.00  0.00    +0.283 C 
ATOM     13  O   UNL     1       3.373  -1.081   5.612  0.00  0.00    -0.267 OA
ATOM     14  N   UNL     1       3.420  -2.956   4.380  0.00  0.00    -0.279 N 
ATOM     15  C   UNL     1       3.681  -5.087   3.237  0.00  0.00    +0.043 C 
ENDROOT
BRANCH   1  17
ATOM     16  N   UNL     1       1.429  -2.229   2.598  0.00  0.00    -0.310 N 
ATOM     17  C   UNL     1       1.942  -3.475   2.545  0.00  0.00    +0.238 C 
ATOM     18  O   UNL     1       1.806  -4.144   1.543  0.00  0.00    -0.273 OA
ATOM     19  H   UNL     1       1.538  -1.694   3.399  0.00  0.00    +0.149 HD
BRANCH  16  25
ATOM     20  C   UNL     1       0.090   1.941   0.304  0.00  0.00    +0.008 C 
ATOM     21  C   UNL     1       0.022   0.413   0.273  0.00  0.00    -0.009 C 
ATOM     22  C   UNL     1      -1.440  -0.034   0.330  0.00  0.00    +0.003 C 
ATOM     23  C   UNL     1      -1.509  -1.562   0.299  0.00  0.00    +0.002 C 
ATOM     24  C   UNL     1      -0.755  -2.131   1.502  0.00  0.00    +0.022 C 
ATOM     25  C   UNL     1       0.708  -1.685   1.446  0.00  0.00    +0.076 C 
ATOM     26  C   UNL     1       0.776  -0.156   1.477  0.00  0.00    +0.009 C 
ATOM     27  C   UNL     1       0.136   0.357   2.768  0.00  0.00    +0.009 C 
ENDBRANCH  16  25
ENDBRANCH   1  17
BRANCH  14  28
ATOM     28  C   UNL     1       4.852  -2.806   4.108  0.00  0.00    +0.107 C 
BRANCH  28  29
ATOM     29  C   UNL     1       5.049  -1.881   2.905  0.00  0.00    +0.000 C 
BRANCH  29  30
ATOM     30  C   UNL     1       6.544  -1.724   2.622  0.00  0.00    -0.077 C 
BRANCH  30  31
ATOM     31  N   UNL     1       6.730  -0.943   1.392  0.00  0.00    +0.380 N 
ATOM     32  C   UNL     1       8.153  -1.004   1.003  0.00  0.00    -0.079 C 
ATOM     33  C   UNL     1       8.248  -0.760  -0.482  0.00  0.00    -0.019 C 
ATOM     34  C   UNL     1       8.557   0.717  -0.791  0.00  0.00    -0.002 C 
ATOM     35  C   UNL     1       7.768   1.671   0.128  0.00  0.00    -0.002 C 
ATOM     36  C   UNL     1       6.345   1.220   0.337  0.00  0.00    -0.019 C 
ATOM     37  C   UNL     1       6.272   0.357   1.613  0.00  0.00    -0.079 C 
ATOM     38  H   UNL     1       6.178  -1.361   0.658  0.00  0.00    -0.082 HD
ENDBRANCH  30  31
ENDBRANCH  29  30
ENDBRANCH  28  29
ENDBRANCH  14  28
TORSDOF 6
