REMARK  Name = ZINC39570533
REMARK  10 active torsions:
REMARK  status: ('A' for Active; 'I' for Inactive)
REMARK    1  A    between atoms: C_1  and  C_2
REMARK    2  A    between atoms: C_2  and  C_3
REMARK    3  A    between atoms: C_3  and  C_27
REMARK    4  A    between atoms: N_6  and  C_10
REMARK    5  A    between atoms: C_10  and  C_11
REMARK    6  A    between atoms: N_13  and  C_14
REMARK    7  A    between atoms: C_15  and  C_22
REMARK    8  A    between atoms: C_22  and  O_24
REMARK    9  A    between atoms: O_24  and  C_25
REMARK   10  A    between atoms: C_25  and  C_26
REMARK                            x       y       z     vdW  Elec       q    Type
REMARK                         _______ _______ _______ _____ _____    ______ ____
ROOT
ATOM      1  C   UNL     1       0.716   1.397   4.428  0.00  0.00    +0.214 C 
ENDROOT
BRANCH   1   5
ATOM      2  C   UNL     1       0.742  -0.511   1.242  0.00  0.00    +0.138 C 
ATOM      3  C   UNL     1       0.055  -0.034   2.505  0.00  0.00    +0.251 C 
ATOM      4  O   UNL     1      -1.076  -0.284   2.863  0.00  0.00    -0.272 OA
ATOM      5  N   UNL     1       0.962   0.727   3.149  0.00  0.00    -0.215 N 
ATOM      6  C   UNL     1       2.116   0.796   2.474  0.00  0.00    +0.310 C 
ATOM      7  O   UNL     1       3.085   1.423   2.854  0.00  0.00    -0.252 OA
ATOM      8  N   UNL     1       2.083   0.093   1.328  0.00  0.00    -0.281 N 
ATOM      9  H   UNL     1       2.802   0.001   0.683  0.00  0.00    +0.152 HD
BRANCH   2  10
ATOM     10  C   UNL     1       0.838  -2.015   1.222  0.00  0.00    -0.015 A 
ATOM     11  C   UNL     1      -0.146  -2.762   0.601  0.00  0.00    +0.007 A 
ATOM     12  C   UNL     1      -0.059  -4.141   0.583  0.00  0.00    +0.020 A 
ATOM     13  C   UNL     1       1.014  -4.774   1.186  0.00  0.00    +0.041 A 
ATOM     14  C   UNL     1       1.998  -4.026   1.807  0.00  0.00    +0.020 A 
ATOM     15  C   UNL     1       1.912  -2.647   1.820  0.00  0.00    +0.007 A 
ATOM     16 CL   UNL     1       1.124  -6.506   1.164  0.00  0.00    -0.084 Cl
ENDBRANCH   2  10
BRANCH   2  18
ATOM     17  C   UNL     1      -0.019   1.526   0.010  0.00  0.00    +0.007 C 
ATOM     18  C   UNL     1       0.002  -0.004   0.002  0.00  0.00    +0.037 C 
ENDBRANCH   2  18
ENDBRANCH   1   5
BRANCH   1  19
ATOM     19  C   UNL     1       1.104   0.478   5.559  0.00  0.00    +0.236 C 
ATOM     20  O   UNL     1       1.543  -0.627   5.319  0.00  0.00    -0.274 OA
ATOM     21  N   UNL     1       0.963   0.885   6.836  0.00  0.00    -0.278 N 
ATOM     22  H   UNL     1       0.613   1.769   7.027  0.00  0.00    +0.155 HD
BRANCH  21  23
ATOM     23  C   UNL     1       1.320   0.040   7.875  0.00  0.00    +0.086 A 
ATOM     24  C   UNL     1       1.240   0.283   9.235  0.00  0.00    +0.091 A 
ATOM     25  C   UNL     1       1.684  -0.782  10.133  0.00  0.00    -0.021 A 
ATOM     26  C   UNL     1       2.124  -1.885   9.500  0.00  0.00    -0.004 A 
ATOM     27  S   UNL     1       1.940  -1.515   7.774  0.00  0.00    -0.077 S 
ATOM     28  C   UNL     1       2.571  -2.946  10.469  0.00  0.00    +0.043 C 
ATOM     29  C   UNL     1       2.756  -2.199  11.809  0.00  0.00    +0.010 C 
ATOM     30  C   UNL     1       1.792  -1.007  11.639  0.00  0.00    +0.037 C 
BRANCH  24  31
ATOM     31  C   UNL     1       0.732   1.555   9.753  0.00  0.00    +0.342 C 
ATOM     32  O   UNL     1      -0.455   1.688   9.983  0.00  0.00    -0.245 OA
BRANCH  31  33
ATOM     33  O   UNL     1       1.581   2.579   9.977  0.00  0.00    -0.461 OA
BRANCH  33  34
ATOM     34  C   UNL     1       1.017   3.791  10.483  0.00  0.00    +0.229 C 
ATOM     35  C   UNL     1       2.124   4.829  10.672  0.00  0.00    +0.048 C 
ENDBRANCH  33  34
ENDBRANCH  31  33
ENDBRANCH  24  31
ENDBRANCH  21  23
ENDBRANCH   1  19
TORSDOF 8
