REMARK  Name = ZINC66130229
REMARK  6 active torsions:
REMARK  status: ('A' for Active; 'I' for Inactive)
REMARK    1  A    between atoms: C_1  and  C_2
REMARK    2  A    between atoms: C_2  and  C_3
REMARK    3  A    between atoms: C_3  and  C_5
REMARK    4  A    between atoms: C_3  and  N_6
REMARK    5  A    between atoms: C_16  and  C_17
REMARK    6  A    between atoms: C_16  and  C_18
REMARK                            x       y       z     vdW  Elec       q    Type
REMARK                         _______ _______ _______ _____ _____    ______ ____
ROOT
ATOM      1  N   UNL     1      -2.111  -0.034  -1.852  0.00  0.00    -0.270 N 
ATOM      2  C   UNL     1      -1.993  -0.394  -3.146  0.00  0.00    +0.250 C 
ATOM      3  O   UNL     1      -1.175  -1.230  -3.478  0.00  0.00    -0.270 OA
ATOM      4  C   UNL     1      -2.865   0.235  -4.154  0.00  0.00    +0.058 A 
ATOM      5  C   UNL     1      -2.919  -0.231  -5.466  0.00  0.00    +0.015 A 
ATOM      6  C   UNL     1      -3.757   0.384  -6.372  0.00  0.00    +0.001 A 
ATOM      7  C   UNL     1      -4.544   1.458  -5.987  0.00  0.00    +0.002 A 
ATOM      8  C   UNL     1      -4.498   1.932  -4.690  0.00  0.00    +0.024 A 
ATOM      9  C   UNL     1      -3.659   1.329  -3.769  0.00  0.00    +0.041 A 
ATOM     10  N   UNL     1      -3.561   1.786  -2.459  0.00  0.00    -0.319 N 
ATOM     11  C   UNL     1      -3.204   0.828  -1.402  0.00  0.00    +0.125 C 
ATOM     12  C   UNL     1      -2.764   1.595  -0.153  0.00  0.00    +0.059 C 
ATOM     13  H   UNL     1      -3.728   2.718  -2.247  0.00  0.00    +0.148 HD
ENDROOT
BRANCH  11  14
ATOM     14  C   UNL     1      -4.403  -0.021  -1.066  0.00  0.00    -0.006 A 
ATOM     15  C   UNL     1      -4.232  -1.238  -0.433  0.00  0.00    +0.007 A 
ATOM     16  C   UNL     1      -5.332  -2.017  -0.124  0.00  0.00    +0.000 A 
ATOM     17  C   UNL     1      -6.602  -1.578  -0.448  0.00  0.00    +0.000 A 
ATOM     18  C   UNL     1      -6.773  -0.361  -1.080  0.00  0.00    +0.000 A 
ATOM     19  C   UNL     1      -5.673   0.420  -1.385  0.00  0.00    +0.007 A 
ENDBRANCH  11  14
BRANCH   1  20
ATOM     20  C   UNL     1      -1.130  -0.519  -0.878  0.00  0.00    +0.075 C 
ATOM     21  C   UNL     1      -1.046  -2.045  -0.956  0.00  0.00    +0.028 C 
BRANCH  20  23
ATOM     22  C   UNL     1       0.189   1.600  -0.992  0.00  0.00    +0.006 C 
ATOM     23  C   UNL     1       0.241   0.084  -1.191  0.00  0.00    +0.019 C 
ENDBRANCH  20  23
ENDBRANCH   1  20
TORSDOF 3
