REMARK  Name = ZINC55493607
REMARK  3 active torsions:
REMARK  status: ('A' for Active; 'I' for Inactive)
REMARK    1  A    between atoms: N_4  and  C_6
REMARK    2  A    between atoms: C_9  and  C_12
REMARK    3  A    between atoms: C_12  and  C_13
REMARK                            x       y       z     vdW  Elec       q    Type
REMARK                         _______ _______ _______ _____ _____    ______ ____
ROOT
ATOM      1  C   UNL     1       3.311  -6.224  -1.488  0.00  0.00    +0.115 A 
ATOM      2  N   UNL     1       3.743  -7.488  -1.733  0.00  0.00    -0.310 N 
ATOM      3  H   UNL     1       3.943  -8.075  -0.987  0.00  0.00    +0.170 HD
ATOM      4  C   UNL     1       3.897  -7.944  -2.991  0.00  0.00    +0.260 A 
ATOM      5  O   UNL     1       4.285  -9.081  -3.197  0.00  0.00    -0.267 OA
ATOM      6  C   UNL     1       3.596  -7.067  -4.083  0.00  0.00    +0.075 A 
ATOM      7  C   UNL     1       3.690  -7.347  -5.524  0.00  0.00    -0.023 A 
ATOM      8  C   UNL     1       3.350  -6.351  -6.360  0.00  0.00    -0.004 A 
ATOM      9  S   UNL     1       2.887  -5.000  -5.301  0.00  0.00    -0.073 S 
ATOM     10  C   UNL     1       3.157  -5.783  -3.733  0.00  0.00    +0.116 A 
ATOM     11  N   UNL     1       3.024  -5.405  -2.464  0.00  0.00    -0.226 NA
ATOM     12  C   UNL     1       3.490  -6.750  -7.805  0.00  0.00    +0.043 C 
ATOM     13  C   UNL     1       4.382  -8.010  -7.775  0.00  0.00    +0.010 C 
ATOM     14  C   UNL     1       4.099  -8.561  -6.363  0.00  0.00    +0.037 C 
ENDROOT
BRANCH   1  15
ATOM     15  C   UNL     1       3.154  -5.760  -0.063  0.00  0.00    +0.109 C 
BRANCH  15  19
ATOM     16  C   UNL     1       1.755  -1.722  -0.025  0.00  0.00    +0.065 A 
ATOM     17  C   UNL     1       0.847  -2.773  -0.028  0.00  0.00    +0.028 A 
ATOM     18  C   UNL     1       1.303  -4.077  -0.040  0.00  0.00    +0.006 A 
ATOM     19  C   UNL     1       2.661  -4.336  -0.050  0.00  0.00    -0.040 A 
ATOM     20  C   UNL     1       3.567  -3.292  -0.046  0.00  0.00    +0.006 A 
ATOM     21  C   UNL     1       3.118  -1.986  -0.039  0.00  0.00    +0.028 A 
BRANCH  16  25
ATOM     22  C   UNL     1      -0.016   1.349   0.009  0.00  0.00    +0.041 A 
ATOM     23  C   UNL     1       1.309   1.798  -0.001  0.00  0.00    +0.135 A 
ATOM     24  N   UNL     1       2.096   0.752  -0.014  0.00  0.00    -0.175 NA
ATOM     25  N   UNL     1       1.296  -0.398  -0.012  0.00  0.00    -0.240 N 
ATOM     26  C   UNL     1       0.002  -0.004   0.002  0.00  0.00    +0.114 A 
ENDBRANCH  16  25
ENDBRANCH  15  19
ENDBRANCH   1  15
TORSDOF 3
