REMARK  Name = ZINC40161488
REMARK  7 active torsions:
REMARK  status: ('A' for Active; 'I' for Inactive)
REMARK    1  A    between atoms: C_1  and  C_2
REMARK    2  A    between atoms: C_5  and  N_9
REMARK    3  A    between atoms: C_10  and  C_12
REMARK    4  A    between atoms: C_12  and  N_13
REMARK    5  A    between atoms: N_13  and  C_14
REMARK    6  A    between atoms: C_14  and  C_16
REMARK    7  A    between atoms: C_14  and  C_17
REMARK                            x       y       z     vdW  Elec       q    Type
REMARK                         _______ _______ _______ _____ _____    ______ ____
ROOT
ATOM      1  N   UNL     1       1.066  -6.838   2.329  0.00  0.00    +0.387 N 
ATOM      2  H   UNL     1       1.964  -6.431   2.541  0.00  0.00    -0.085 HD
ATOM      3  H   UNL     1       0.402  -6.579   3.042  0.00  0.00    -0.085 HD
ENDROOT
BRANCH   1   4
ATOM      4  C   UNL     1       1.191  -8.301   2.284  0.00  0.00    -0.068 C 
ATOM      5  C   UNL     1       2.288  -8.690   1.291  0.00  0.00    -0.013 C 
BRANCH   4   6
ATOM      6  C   UNL     1       1.554  -8.825   3.676  0.00  0.00    -0.041 C 
ATOM      7  C   UNL     1       0.457  -8.436   4.669  0.00  0.00    +0.009 C 
ATOM      8  C   UNL     1       0.821  -8.959   6.060  0.00  0.00    -0.010 C 
ATOM      9  C   UNL     1       0.950 -10.483   6.014  0.00  0.00    +0.007 C 
ATOM     10  C   UNL     1       2.047 -10.871   5.021  0.00  0.00    -0.010 C 
ATOM     11  C   UNL     1       1.684 -10.348   3.630  0.00  0.00    +0.009 C 
ATOM     12  C   UNL     1       3.377 -10.259   5.464  0.00  0.00    +0.007 C 
ATOM     13  C   UNL     1       3.248  -8.736   5.511  0.00  0.00    -0.010 C 
ATOM     14  C   UNL     1       2.151  -8.347   6.504  0.00  0.00    +0.007 C 
ATOM     15  C   UNL     1       2.884  -8.213   4.119  0.00  0.00    +0.009 C 
ENDBRANCH   4   6
ENDBRANCH   1   4
BRANCH   1  16
ATOM     16  C   UNL     1       0.601  -6.347   1.025  0.00  0.00    +0.016 C 
BRANCH  16  18
ATOM     17  N   UNL     1       0.059  -4.172  -0.021  0.00  0.00    -0.285 N 
ATOM     18  C   UNL     1       0.473  -4.846   1.070  0.00  0.00    +0.200 C 
ATOM     19  O   UNL     1       0.743  -4.245   2.088  0.00  0.00    -0.278 OA
ATOM     20  H   UNL     1      -0.225  -4.656  -0.812  0.00  0.00    +0.155 HD
BRANCH  17  25
ATOM     21  C   UNL     1      -0.020   1.503   0.010  0.00  0.00    +0.044 C 
ATOM     22  C   UNL     1       0.001  -0.004   0.002  0.00  0.00    -0.048 A 
ATOM     23  C   UNL     1       1.143  -0.676  -0.396  0.00  0.00    +0.020 A 
ATOM     24  C   UNL     1       1.165  -2.058  -0.405  0.00  0.00    +0.040 A 
ATOM     25  C   UNL     1       0.040  -2.772  -0.013  0.00  0.00    +0.062 A 
ATOM     26  C   UNL     1      -1.105  -2.094   0.386  0.00  0.00    +0.040 A 
ATOM     27  C   UNL     1      -1.119  -0.712   0.397  0.00  0.00    +0.020 A 
ATOM     28 BR   UNL     1      -2.640  -3.060   0.920  0.00  0.00    -0.048 Br
ATOM     29 BR   UNL     1       2.727  -2.975  -0.949  0.00  0.00    -0.048 Br
ENDBRANCH  17  25
ENDBRANCH  16  18
ENDBRANCH   1  16
TORSDOF 5
