REMARK  Name = ZINC34262067
REMARK  7 active torsions:
REMARK  status: ('A' for Active; 'I' for Inactive)
REMARK    1  A    between atoms: C_1  and  C_2
REMARK    2  A    between atoms: C_2  and  C_4
REMARK    3  A    between atoms: C_2  and  O_36
REMARK    4  A    between atoms: C_4  and  C_33
REMARK    5  A    between atoms: C_9  and  C_12
REMARK    6  A    between atoms: N_21  and  C_24
REMARK    7  A    between atoms: C_28  and  N_30
REMARK                            x       y       z     vdW  Elec       q    Type
REMARK                         _______ _______ _______ _____ _____    ______ ____
ROOT
ATOM      1  C   UNL     1       0.718  -0.497  -1.257  0.00  0.00    +0.074 C 
ATOM      2  C   UNL     1       0.591  -2.007  -1.376  0.00  0.00    +0.089 C 
ATOM      3  C   UNL     1      -0.800  -2.065  -2.118  0.00  0.00    +0.077 C 
ATOM      4  C   UNL     1      -0.608  -1.089  -3.204  0.00  0.00    -0.027 C 
ATOM      5  N   UNL     1       0.060   0.059  -2.477  0.00  0.00    +0.397 N 
ATOM      6  C   UNL     1      -1.177  -3.443  -1.923  0.00  0.00    +0.229 C 
ATOM      7  O   UNL     1      -1.798  -4.152  -2.686  0.00  0.00    -0.275 OA
ATOM      8  N   UNL     1      -0.682  -3.778  -0.687  0.00  0.00    -0.210 N 
ATOM      9  C   UNL     1       0.217  -2.855  -0.201  0.00  0.00    +0.229 C 
ATOM     10  O   UNL     1       0.621  -2.745   0.936  0.00  0.00    -0.275 OA
ATOM     11  H   UNL     1      -0.627   0.748  -2.211  0.00  0.00    -0.083 HD
ATOM     12  H   UNL     1       0.753   0.479  -3.078  0.00  0.00    -0.083 HD
ENDROOT
BRANCH   4  13
ATOM     13  C   UNL     1       0.277  -1.656  -4.284  0.00  0.00    -0.061 A 
ATOM     14  C   UNL     1       1.649  -1.670  -4.117  0.00  0.00    +0.003 A 
ATOM     15  C   UNL     1       2.461  -2.191  -5.107  0.00  0.00    +0.015 A 
ATOM     16  C   UNL     1       1.900  -2.697  -6.265  0.00  0.00    +0.018 A 
ATOM     17  C   UNL     1       0.527  -2.683  -6.432  0.00  0.00    +0.015 A 
ATOM     18  C   UNL     1      -0.284  -2.167  -5.439  0.00  0.00    +0.003 A 
ATOM     19 BR   UNL     1       3.010  -3.409  -7.621  0.00  0.00    -0.050 Br
ENDBRANCH   4  13
BRANCH   8  20
ATOM     20  C   UNL     1      -1.045  -4.941   0.006  0.00  0.00    +0.046 A 
ATOM     21  C   UNL     1      -0.503  -5.204   1.256  0.00  0.00    +0.024 A 
ATOM     22  C   UNL     1      -0.862  -6.351   1.937  0.00  0.00    +0.004 A 
ATOM     23  C   UNL     1      -1.761  -7.237   1.373  0.00  0.00    +0.033 A 
ATOM     24  C   UNL     1      -2.303  -6.979   0.128  0.00  0.00    +0.128 A 
ATOM     25  C   UNL     1      -1.952  -5.830  -0.555  0.00  0.00    +0.056 A 
BRANCH  24  26
ATOM     26  N   UNL     1      -3.265  -7.931  -0.472  0.00  0.00    +0.056 N 
ATOM     27  O   UNL     1      -3.576  -8.933   0.127  0.00  0.00    -0.126 OA
ATOM     28  O   UNL     1      -3.739  -7.705  -1.561  0.00  0.00    -0.126 OA
ENDBRANCH  24  26
ENDBRANCH   8  20
BRANCH   1  29
ATOM     29  C   UNL     1       2.171  -0.097  -1.220  0.00  0.00    +0.349 C 
ATOM     30  O   UNL     1       2.890  -0.496  -0.321  0.00  0.00    -0.248 OA
ATOM     31  O   UNL     1       2.626   0.626  -2.090  0.00  0.00    -0.248 OA
ENDBRANCH   1  29
BRANCH   1  33
ATOM     32  C   UNL     1      -0.019   1.526   0.010  0.00  0.00    +0.037 C 
ATOM     33  C   UNL     1       0.002  -0.004   0.002  0.00  0.00    +0.112 C 
BRANCH  33  34
ATOM     34  O   UNL     1       0.693  -0.477   1.160  0.00  0.00    -0.393 OA
ATOM     35  H   UNL     1       0.294  -0.202   1.996  0.00  0.00    +0.210 HD
ENDBRANCH  33  34
ENDBRANCH   1  33
TORSDOF 6
