REMARK  Name = ZINC25039313
REMARK  7 active torsions:
REMARK  status: ('A' for Active; 'I' for Inactive)
REMARK    1  A    between atoms: C_1  and  C_2
REMARK    2  A    between atoms: C_4  and  C_27
REMARK    3  A    between atoms: C_6  and  C_22
REMARK    4  A    between atoms: C_10  and  C_11
REMARK    5  A    between atoms: N_13  and  O_14
REMARK    6  A    between atoms: O_14  and  C_15
REMARK    7  A    between atoms: C_15  and  C_16
REMARK                            x       y       z     vdW  Elec       q    Type
REMARK                         _______ _______ _______ _____ _____    ______ ____
ROOT
ATOM      1  C   UNL     1      -1.534   2.295   6.191  0.00  0.00    +0.046 C 
ATOM      2  C   UNL     1      -0.319   1.438   5.947  0.00  0.00    -0.020 A 
ATOM      3  C   UNL     1       0.357   0.853   7.027  0.00  0.00    +0.032 A 
ATOM      4  C   UNL     1       0.069   0.935   8.415  0.00  0.00    +0.051 A 
ATOM      5  N   UNL     1       0.839   0.308   9.273  0.00  0.00    -0.229 NA
ATOM      6  C   UNL     1       1.893  -0.412   8.890  0.00  0.00    +0.197 A 
ATOM      7  N   UNL     1       2.216  -0.528   7.604  0.00  0.00    -0.217 NA
ATOM      8  C   UNL     1       1.493   0.070   6.686  0.00  0.00    +0.113 A 
ATOM      9  S   UNL     1       1.551   0.186   4.917  0.00  0.00    -0.064 S 
ATOM     10  C   UNL     1       0.123   1.229   4.677  0.00  0.00    +0.081 A 
ATOM     11  C   UNL     1      -1.111   1.737   8.899  0.00  0.00    +0.066 C 
ENDROOT
BRANCH   6  12
ATOM     12  C   UNL     1       2.716  -1.091   9.907  0.00  0.00    +0.172 A 
ATOM     13  C   UNL     1       3.816  -1.857   9.666  0.00  0.00    +0.053 A 
ATOM     14  C   UNL     1       4.283  -2.301  10.916  0.00  0.00    +0.042 A 
ATOM     15  C   UNL     1       3.455  -1.791  11.852  0.00  0.00    +0.196 A 
ATOM     16  O   UNL     1       2.514  -1.058  11.239  0.00  0.00    -0.460 OA
ENDBRANCH   6  12
BRANCH  10  17
ATOM     17  C   UNL     1      -0.434   1.741   3.418  0.00  0.00    +0.274 C 
ATOM     18  O   UNL     1      -1.425   2.448   3.435  0.00  0.00    -0.268 OA
ATOM     19  N   UNL     1       0.150   1.427   2.245  0.00  0.00    -0.190 N 
ATOM     20  H   UNL     1       1.046   0.788   2.231  0.00  0.00    +0.183 HD
BRANCH  19  21
ATOM     21  O   UNL     1      -0.387   1.920   1.032  0.00  0.00    -0.275 OA
BRANCH  21  22
ATOM     22  C   UNL     1       0.332   1.510  -0.132  0.00  0.00    +0.225 C 
BRANCH  22  23
ATOM     23  C   UNL     1      -0.324   2.089  -1.359  0.00  0.00    -0.020 A 
ATOM     24  C   UNL     1      -1.316   1.381  -2.012  0.00  0.00    +0.006 A 
ATOM     25  C   UNL     1      -1.921   1.915  -3.134  0.00  0.00    +0.000 A 
ATOM     26  C   UNL     1      -1.527   3.152  -3.610  0.00  0.00    +0.000 A 
ATOM     27  C   UNL     1      -0.531   3.857  -2.960  0.00  0.00    +0.000 A 
ATOM     28  C   UNL     1       0.070   3.326  -1.835  0.00  0.00    +0.006 A 
ENDBRANCH  22  23
ENDBRANCH  21  22
ENDBRANCH  19  21
ENDBRANCH  10  17
TORSDOF 5
