REMARK  Name = ZINC22328961
REMARK  11 active torsions:
REMARK  status: ('A' for Active; 'I' for Inactive)
REMARK    1  A    between atoms: C_1  and  C_2
REMARK    2  A    between atoms: C_5  and  C_31
REMARK    3  A    between atoms: C_6  and  N_8
REMARK    4  A    between atoms: N_8  and  C_9
REMARK    5  A    between atoms: N_8  and  S_27
REMARK    6  A    between atoms: C_9  and  C_10
REMARK    7  A    between atoms: N_12  and  C_13
REMARK    8  A    between atoms: C_16  and  C_25
REMARK    9  A    between atoms: C_16  and  C_26
REMARK   10  A    between atoms: C_22  and  C_24
REMARK   11  A    between atoms: S_27  and  C_30
REMARK                            x       y       z     vdW  Elec       q    Type
REMARK                         _______ _______ _______ _____ _____    ______ ____
ROOT
ATOM      1  C   UNL     1      -0.441   0.782   6.240  0.00  0.00    +0.233 C 
ATOM      2  O   UNL     1      -1.647   0.897   6.182  0.00  0.00    -0.274 OA
ATOM      3  N   UNL     1       0.282   0.690   5.106  0.00  0.00    -0.307 N 
ATOM      4  H   UNL     1       1.376   0.586   5.158  0.00  0.00    +0.149 HD
ENDROOT
BRANCH   3   5
ATOM      5  C   UNL     1      -0.388   0.729   3.804  0.00  0.00    +0.110 C 
ATOM      6  C   UNL     1       0.476   0.012   2.764  0.00  0.00    +0.074 C 
ATOM      7  C   UNL     1      -0.091   0.319   1.372  0.00  0.00    +0.107 C 
ATOM      8  O   UNL     1       0.050   1.718   1.126  0.00  0.00    -0.486 OA
ATOM      9  C   UNL     1      -0.374   2.578   2.088  0.00  0.00    +0.126 A 
ATOM     10  C   UNL     1      -0.596   2.164   3.390  0.00  0.00    +0.015 A 
ATOM     11  C   UNL     1      -1.018   3.077   4.341  0.00  0.00    +0.009 A 
ATOM     12  C   UNL     1      -1.221   4.399   3.997  0.00  0.00    +0.004 A 
ATOM     13  C   UNL     1      -1.004   4.816   2.696  0.00  0.00    -0.047 A 
ATOM     14  C   UNL     1      -0.582   3.910   1.744  0.00  0.00    +0.049 A 
ATOM     15  C   UNL     1      -1.226   6.258   2.319  0.00  0.00    +0.044 C 
ATOM     16  C   UNL     1       0.682  -0.471   0.315  0.00  0.00    +0.055 C 
ATOM     17  C   UNL     1      -1.571  -0.067   1.323  0.00  0.00    +0.055 C 
ENDBRANCH   3   5
BRANCH   1  18
ATOM     18  C   UNL     1       0.249   0.742   7.579  0.00  0.00    +0.226 C 
BRANCH  18  19
ATOM     19  N   UNL     1      -0.755   0.725   8.645  0.00  0.00    -0.199 N 
BRANCH  19  25
ATOM     20  C   UNL     1      -4.168  -2.755   8.011  0.00  0.00    +0.044 C 
ATOM     21  C   UNL     1      -2.983  -2.196   8.756  0.00  0.00    -0.049 A 
ATOM     22  C   UNL     1      -2.461  -2.882   9.838  0.00  0.00    +0.004 A 
ATOM     23  C   UNL     1      -1.374  -2.372  10.524  0.00  0.00    +0.005 A 
ATOM     24  C   UNL     1      -0.802  -1.179  10.128  0.00  0.00    -0.028 A 
ATOM     25  C   UNL     1      -1.327  -0.485   9.046  0.00  0.00    +0.055 A 
ATOM     26  C   UNL     1      -2.420  -0.999   8.358  0.00  0.00    +0.028 A 
ATOM     27  C   UNL     1       0.386  -0.628  10.873  0.00  0.00    +0.046 C 
ENDBRANCH  19  25
BRANCH  19  28
ATOM     28  S   UNL     1      -1.211   2.139   9.376  0.00  0.00    +0.043 S 
ATOM     29  O   UNL     1      -1.581   1.762  10.695  0.00  0.00    -0.155 OA
ATOM     30  O   UNL     1      -0.125   3.028   9.155  0.00  0.00    -0.155 OA
ATOM     31  C   UNL     1      -2.670   2.692   8.452  0.00  0.00    +0.218 C 
ENDBRANCH  19  28
ENDBRANCH  18  19
ENDBRANCH   1  18
TORSDOF 5
