REMARK  Name = ZINC33306663
REMARK  11 active torsions:
REMARK  status: ('A' for Active; 'I' for Inactive)
REMARK    1  A    between atoms: C_1  and  C_2
REMARK    2  A    between atoms: C_5  and  O_31
REMARK    3  A    between atoms: C_6  and  N_8
REMARK    4  A    between atoms: N_8  and  S_9
REMARK    5  A    between atoms: S_9  and  C_12
REMARK    6  A    between atoms: C_15  and  C_17
REMARK    7  A    between atoms: C_18  and  C_19
REMARK    8  A    between atoms: C_20  and  N_25
REMARK    9  A    between atoms: C_21  and  C_24
REMARK   10  A    between atoms: C_26  and  C_28
REMARK   11  A    between atoms: O_31  and  C_32
REMARK                            x       y       z     vdW  Elec       q    Type
REMARK                         _______ _______ _______ _____ _____    ______ ____
ROOT
ATOM      1  C   UNL     1       0.262   2.310  -2.863  0.00  0.00    +0.146 A 
ATOM      2  C   UNL     1      -0.721   3.247  -2.803  0.00  0.00    +0.037 A 
ATOM      3  C   UNL     1      -0.434   4.491  -2.291  0.00  0.00    +0.017 A 
ATOM      4  C   UNL     1       0.861   4.744  -1.864  0.00  0.00    +0.014 A 
ATOM      5  S   UNL     1       1.666   3.184  -2.193  0.00  0.00    -0.069 S 
ENDROOT
BRANCH   1   6
ATOM      6  S   UNL     1       0.173   0.654  -3.459  0.00  0.00    +0.079 S 
ATOM      7  O   UNL     1       1.227  -0.061  -2.830  0.00  0.00    -0.149 OA
ATOM      8  O   UNL     1      -1.187   0.256  -3.353  0.00  0.00    -0.149 OA
BRANCH   6   9
ATOM      9  N   UNL     1       0.529   0.696  -5.076  0.00  0.00    -0.212 N 
ATOM     10  H   UNL     1      -0.212   0.348  -5.811  0.00  0.00    +0.174 HD
BRANCH   9  16
ATOM     11  C   UNL     1       5.368   1.159  -4.346  0.00  0.00    +0.044 C 
ATOM     12  C   UNL     1       4.135   1.413  -5.174  0.00  0.00    -0.048 A 
ATOM     13  C   UNL     1       4.232   2.119  -6.358  0.00  0.00    +0.007 A 
ATOM     14  C   UNL     1       3.104   2.356  -7.122  0.00  0.00    +0.048 A 
ATOM     15  C   UNL     1       1.871   1.885  -6.700  0.00  0.00    +0.142 A 
ATOM     16  C   UNL     1       1.772   1.173  -5.507  0.00  0.00    +0.090 A 
ATOM     17  C   UNL     1       2.908   0.944  -4.744  0.00  0.00    +0.031 A 
BRANCH  15  18
ATOM     18  O   UNL     1       0.760   2.118  -7.449  0.00  0.00    -0.493 OA
ATOM     19  C   UNL     1       0.937   2.855  -8.661  0.00  0.00    +0.277 C 
ENDBRANCH  15  18
ENDBRANCH   9  16
ENDBRANCH   6   9
ENDBRANCH   1   6
BRANCH   4  20
ATOM     20  C   UNL     1       1.422   5.969  -1.295  0.00  0.00    +0.019 C 
ATOM     21  C   UNL     1       2.726   6.014  -0.938  0.00  0.00    +0.052 C 
BRANCH  21  22
ATOM     22  C   UNL     1       3.286   7.238  -0.369  0.00  0.00    +0.182 A 
ATOM     23  C   UNL     1       4.594   7.429   0.039  0.00  0.00    +0.103 A 
ATOM     24  C   UNL     1       4.701   8.744   0.522  0.00  0.00    +0.102 A 
ATOM     25  N   UNL     1       3.535   9.319   0.415  0.00  0.00    -0.081 NA
ATOM     26  O   UNL     1       2.624   8.394  -0.149  0.00  0.00    -0.353 OA
ATOM     27  C   UNL     1       5.951   9.383   1.069  0.00  0.00    +0.071 C 
BRANCH  23  28
ATOM     28  N   UNL     1       5.626   6.481  -0.019  0.00  0.00    -0.281 N 
ATOM     29  C   UNL     1       6.899   6.881  -0.210  0.00  0.00    +0.220 C 
ATOM     30  O   UNL     1       7.141   8.052  -0.417  0.00  0.00    -0.275 OA
ATOM     31  H   UNL     1       5.397   5.411   0.092  0.00  0.00    +0.155 HD
BRANCH  29  32
ATOM     32  C   UNL     1       8.020   5.875  -0.168  0.00  0.00    +0.075 C 
ATOM     33  C   UNL     1       8.998   5.957   1.005  0.00  0.00    +0.013 C 
ATOM     34  C   UNL     1       9.442   6.393  -0.393  0.00  0.00    +0.013 C 
ENDBRANCH  29  32
ENDBRANCH  23  28
ENDBRANCH  21  22
ENDBRANCH   4  20
TORSDOF 8
