REMARK  Name = ZINC18061339
REMARK  8 active torsions:
REMARK  status: ('A' for Active; 'I' for Inactive)
REMARK    1  A    between atoms: C_1  and  C_2
REMARK    2  A    between atoms: C_2  and  O_3
REMARK    3  A    between atoms: O_3  and  C_4
REMARK    4  A    between atoms: C_6  and  C_11
REMARK    5  A    between atoms: C_9  and  O_10
REMARK    6  A    between atoms: N_19  and  C_22
REMARK    7  A    between atoms: C_26  and  C_28
REMARK    8  A    between atoms: N_30  and  C_31
REMARK                            x       y       z     vdW  Elec       q    Type
REMARK                         _______ _______ _______ _____ _____    ______ ____
ROOT
ATOM      1  C   UNL     1      -0.217  -4.963  -0.535  0.00  0.00    +0.157 C 
ATOM      2  C   UNL     1       0.873  -5.507  -1.451  0.00  0.00    +0.145 C 
ATOM      3  C   UNL     1       0.200  -6.899  -1.756  0.00  0.00    +0.249 C 
ATOM      4  C   UNL     1       0.918  -7.313  -2.945  0.00  0.00    +0.259 C 
ATOM      5  O   UNL     1       1.210  -8.444  -3.272  0.00  0.00    -0.272 OA
ATOM      6  N   UNL     1       1.196  -6.154  -3.622  0.00  0.00    -0.208 N 
ATOM      7  C   UNL     1       0.994  -5.023  -2.862  0.00  0.00    +0.235 C 
ATOM      8  O   UNL     1       0.922  -3.876  -3.247  0.00  0.00    -0.274 OA
ATOM      9  O   UNL     1      -0.145  -7.349  -0.512  0.00  0.00    -0.257 OA
ATOM     10  N   UNL     1      -0.780  -6.186   0.107  0.00  0.00    -0.244 N 
ENDROOT
BRANCH   6  11
ATOM     11  C   UNL     1       1.653  -6.120  -4.947  0.00  0.00    +0.044 A 
ATOM     12  C   UNL     1       1.919  -4.903  -5.560  0.00  0.00    +0.024 A 
ATOM     13  C   UNL     1       2.369  -4.873  -6.865  0.00  0.00    +0.002 A 
ATOM     14  C   UNL     1       2.555  -6.053  -7.562  0.00  0.00    +0.003 A 
ATOM     15  C   UNL     1       2.292  -7.267  -6.954  0.00  0.00    -0.049 A 
ATOM     16  C   UNL     1       1.847  -7.304  -5.647  0.00  0.00    +0.027 A 
ATOM     17  C   UNL     1       2.496  -8.550  -7.716  0.00  0.00    +0.044 C 
ENDBRANCH   6  11
BRANCH   1  20
ATOM     18  C   UNL     1       0.802  -1.825   1.306  0.00  0.00    +0.162 A 
ATOM     19  C   UNL     1       0.261  -2.673   0.353  0.00  0.00    +0.055 A 
ATOM     20  C   UNL     1       0.372  -4.043   0.502  0.00  0.00    -0.018 A 
ATOM     21  C   UNL     1       1.024  -4.570   1.602  0.00  0.00    +0.009 A 
ATOM     22  C   UNL     1       1.566  -3.730   2.557  0.00  0.00    +0.049 A 
ATOM     23  C   UNL     1       1.462  -2.356   2.410  0.00  0.00    +0.158 A 
BRANCH  23  24
ATOM     24  O   UNL     1       2.000  -1.528   3.345  0.00  0.00    -0.503 OA
ATOM     25  H   UNL     1       1.395  -1.301   4.064  0.00  0.00    +0.292 HD
ENDBRANCH  23  24
BRANCH  18  26
ATOM     26  O   UNL     1       0.693  -0.477   1.160  0.00  0.00    -0.489 OA
BRANCH  26  28
ATOM     27  C   UNL     1      -0.019   1.526   0.010  0.00  0.00    +0.048 C 
ATOM     28  C   UNL     1       0.002  -0.004   0.002  0.00  0.00    +0.226 C 
ENDBRANCH  26  28
ENDBRANCH  18  26
ENDBRANCH   1  20
BRANCH  10  29
ATOM     29  C   UNL     1      -1.736  -6.212   1.126  0.00  0.00    +0.065 A 
ATOM     30  C   UNL     1      -2.252  -5.023   1.626  0.00  0.00    +0.028 A 
ATOM     31  C   UNL     1      -3.197  -5.053   2.633  0.00  0.00    +0.002 A 
ATOM     32  C   UNL     1      -3.629  -6.263   3.143  0.00  0.00    +0.000 A 
ATOM     33  C   UNL     1      -3.117  -7.448   2.647  0.00  0.00    +0.002 A 
ATOM     34  C   UNL     1      -2.176  -7.426   1.636  0.00  0.00    +0.028 A 
ENDBRANCH  10  29
TORSDOF 6
