REMARK  Name = ZINC22019951
REMARK  11 active torsions:
REMARK  status: ('A' for Active; 'I' for Inactive)
REMARK    1  A    between atoms: C_1  and  C_2
REMARK    2  A    between atoms: C_2  and  O_3
REMARK    3  A    between atoms: O_3  and  C_4
REMARK    4  A    between atoms: C_4  and  C_6
REMARK    5  A    between atoms: C_7  and  C_19
REMARK    6  A    between atoms: C_12  and  C_14
REMARK    7  A    between atoms: C_19  and  S_20
REMARK    8  A    between atoms: S_20  and  C_21
REMARK    9  A    between atoms: N_26  and  C_27
REMARK   10  A    between atoms: C_27  and  C_28
REMARK   11  A    between atoms: C_28  and  C_29
REMARK                            x       y       z     vdW  Elec       q    Type
REMARK                         _______ _______ _______ _____ _____    ______ ____
ROOT
ATOM      1  C   UNL     1      -0.195  -5.311   1.135  0.00  0.00    +0.082 C 
ATOM      2  C   UNL     1      -0.225  -4.651  -0.043  0.00  0.00    +0.034 C 
ATOM      3  N   UNL     1       0.020  -5.298  -1.220  0.00  0.00    -0.272 N 
ATOM      4  C   UNL     1       0.314  -6.602  -1.303  0.00  0.00    +0.304 C 
ATOM      5  O   UNL     1       0.523  -7.089  -2.397  0.00  0.00    -0.252 OA
ATOM      6  N   UNL     1       0.382  -7.393  -0.214  0.00  0.00    -0.285 N 
ATOM      7  C   UNL     1       0.127  -6.791   1.106  0.00  0.00    +0.179 C 
ATOM      8  H   UNL     1      -0.018  -4.745  -2.170  0.00  0.00    +0.156 HD
ATOM      9  H   UNL     1       0.620  -8.463  -0.293  0.00  0.00    +0.151 HD
ENDROOT
BRANCH   7  10
ATOM     10  C   UNL     1       1.345  -7.019   1.963  0.00  0.00    +0.130 A 
ATOM     11  C   UNL     1       1.343  -7.477   3.228  0.00  0.00    +0.047 A 
ATOM     12  C   UNL     1       2.693  -7.536   3.645  0.00  0.00    +0.041 A 
ATOM     13  C   UNL     1       3.439  -7.110   2.610  0.00  0.00    +0.195 A 
ATOM     14  O   UNL     1       2.618  -6.804   1.592  0.00  0.00    -0.466 OA
ENDBRANCH   7  10
BRANCH   1  15
ATOM     15  C   UNL     1      -0.454  -4.642   2.355  0.00  0.00    +0.339 C 
ATOM     16  O   UNL     1      -1.542  -4.751   2.889  0.00  0.00    -0.245 OA
BRANCH  15  17
ATOM     17  O   UNL     1       0.505  -3.884   2.926  0.00  0.00    -0.462 OA
BRANCH  17  19
ATOM     18  C   UNL     1       1.377  -2.429   4.647  0.00  0.00    +0.048 C 
ATOM     19  C   UNL     1       0.175  -3.238   4.157  0.00  0.00    +0.229 C 
ENDBRANCH  17  19
ENDBRANCH  15  17
ENDBRANCH   1  15
BRANCH   2  20
ATOM     20  C   UNL     1      -0.542  -3.177  -0.059  0.00  0.00    +0.127 C 
BRANCH  20  21
ATOM     21  S   UNL     1       0.982  -2.235  -0.342  0.00  0.00    -0.091 S 
BRANCH  21  22
ATOM     22  C   UNL     1       0.452  -0.554  -0.334  0.00  0.00    +0.160 A 
ATOM     23  N   UNL     1      -0.760  -0.061  -0.164  0.00  0.00    -0.133 NA
ATOM     24  N   UNL     1      -0.955   1.300  -0.194  0.00  0.00    -0.125 NA
ATOM     25  C   UNL     1       0.070   2.106  -0.392  0.00  0.00    +0.182 A 
ATOM     26  S   UNL     1       1.411   0.936  -0.552  0.00  0.00    -0.025 S 
ATOM     27  N   UNL     1       0.099   3.494  -0.460  0.00  0.00    -0.322 N 
ATOM     28  H   UNL     1       1.052   4.016  -0.634  0.00  0.00    +0.148 HD
BRANCH  27  29
ATOM     29  C   UNL     1      -1.138   4.261  -0.298  0.00  0.00    +0.108 C 
BRANCH  29  30
ATOM     30  C   UNL     1      -0.831   5.756  -0.415  0.00  0.00    +0.061 C 
BRANCH  30  31
ATOM     31  C   UNL     1      -2.103   6.545  -0.249  0.00  0.00    -0.009 A 
ATOM     32  C   UNL     1      -2.663   7.034   0.885  0.00  0.00    +0.011 A 
ATOM     33  C   UNL     1      -3.848   7.741   0.796  0.00  0.00    +0.008 A 
ATOM     34  C   UNL     1      -4.421   7.914  -0.420  0.00  0.00    +0.045 A 
ATOM     35  S   UNL     1      -3.270   7.072  -1.493  0.00  0.00    -0.102 S 
ENDBRANCH  30  31
ENDBRANCH  29  30
ENDBRANCH  27  29
ENDBRANCH  21  22
ENDBRANCH  20  21
ENDBRANCH   2  20
TORSDOF 10
