REMARK  Name = ZINC19932444
REMARK  4 active torsions:
REMARK  status: ('A' for Active; 'I' for Inactive)
REMARK    1  A    between atoms: C_5  and  N_7
REMARK    2  A    between atoms: N_7  and  C_8
REMARK    3  A    between atoms: C_8  and  C_9
REMARK    4  A    between atoms: C_14  and  O_15
REMARK                            x       y       z     vdW  Elec       q    Type
REMARK                         _______ _______ _______ _____ _____    ______ ____
ROOT
ATOM      1  N   UNL     1       3.034  -2.130  -0.038  0.00  0.00    -0.338 N 
ATOM      2  H   UNL     1       3.829  -1.369  -0.041  0.00  0.00    +0.146 HD
ENDROOT
BRANCH   1   7
ATOM      3  C   UNL     1      -0.639  -2.314  -0.005  0.00  0.00    +0.004 A 
ATOM      4  C   UNL     1      -0.988  -0.982   0.007  0.00  0.00    +0.032 A 
ATOM      5  C   UNL     1       0.002  -0.004   0.003  0.00  0.00    +0.114 A 
ATOM      6  C   UNL     1       1.357  -0.375  -0.012  0.00  0.00    +0.133 A 
ATOM      7  C   UNL     1       1.695  -1.740  -0.023  0.00  0.00    +0.057 A 
ATOM      8  C   UNL     1       0.695  -2.693  -0.020  0.00  0.00    +0.025 A 
ATOM      9  N   UNL     1       2.091   0.755  -0.013  0.00  0.00    -0.153 NA
ATOM     10  N   UNL     1       1.323   1.787  -0.001  0.00  0.00    -0.196 N 
ATOM     11  N   UNL     1      -0.017   1.371   0.011  0.00  0.00    -0.155 NA
ATOM     12  H   UNL     1       1.759   2.797  -0.001  0.00  0.00    +0.213 HD
ENDBRANCH   1   7
BRANCH   1  13
ATOM     13  C   UNL     1       3.383  -3.553  -0.049  0.00  0.00    +0.140 C 
BRANCH  13  14
ATOM     14  C   UNL     1       4.883  -3.703  -0.065  0.00  0.00    +0.013 A 
ATOM     15  C   UNL     1       5.539  -3.971  -1.250  0.00  0.00    +0.023 A 
ATOM     16  C   UNL     1       6.915  -4.109  -1.265  0.00  0.00    +0.015 A 
ATOM     17  C   UNL     1       7.638  -3.978  -0.093  0.00  0.00    +0.032 A 
ATOM     18  C   UNL     1       6.986  -3.710   1.095  0.00  0.00    +0.056 A 
ATOM     19  C   UNL     1       5.605  -3.565   1.111  0.00  0.00    +0.135 A 
ATOM     20  I   UNL     1       8.081  -3.512   2.870  0.00  0.00    -0.040 I 
ATOM     21  I   UNL     1       7.906  -4.515  -3.066  0.00  0.00    -0.044 I 
BRANCH  19  22
ATOM     22  O   UNL     1       4.963  -3.295   2.278  0.00  0.00    -0.505 OA
ATOM     23  H   UNL     1       5.537  -3.186   3.210  0.00  0.00    +0.292 HD
ENDBRANCH  19  22
ENDBRANCH  13  14
ENDBRANCH   1  13
TORSDOF 4
