REMARK  Name = ZINC41431552
REMARK  6 active torsions:
REMARK  status: ('A' for Active; 'I' for Inactive)
REMARK    1  A    between atoms: C_1  and  C_2
REMARK    2  A    between atoms: C_3  and  O_19
REMARK    3  A    between atoms: C_10  and  C_11
REMARK    4  A    between atoms: O_19  and  C_20
REMARK    5  A    between atoms: C_20  and  C_21
REMARK    6  A    between atoms: C_21  and  C_23
REMARK                            x       y       z     vdW  Elec       q    Type
REMARK                         _______ _______ _______ _____ _____    ______ ____
ROOT
ATOM      1  C   UNL     1       0.074   1.497   0.006  0.00  0.00    +0.051 C 
ATOM      2  C   UNL     1       0.087  -0.010   0.000  0.00  0.00    +0.034 A 
ATOM      3  C   UNL     1       0.108  -0.698  -1.203  0.00  0.00    +0.127 A 
ATOM      4  C   UNL     1       0.121  -2.090  -1.222  0.00  0.00    +0.047 A 
ATOM      5  C   UNL     1       0.113  -2.793  -0.051  0.00  0.00    +0.019 A 
ATOM      6  C   UNL     1       0.092  -2.114   1.168  0.00  0.00    +0.068 A 
ATOM      7  C   UNL     1       0.085  -0.710   1.200  0.00  0.00    +0.146 A 
ATOM      8  O   UNL     1       0.072  -0.283   2.482  0.00  0.00    -0.451 OA
ATOM      9  C   UNL     1       0.075  -1.316   3.357  0.00  0.00    +0.176 C 
ATOM     10  C   UNL     1       0.064  -1.221   4.709  0.00  0.00    +0.058 C 
ATOM     11  C   UNL     1       0.079  -2.562   2.572  0.00  0.00    +0.231 C 
ATOM     12  O   UNL     1       0.084  -3.707   2.990  0.00  0.00    -0.283 OA
ENDROOT
BRANCH  10  13
ATOM     13  C   UNL     1       0.163   0.096   5.354  0.00  0.00    -0.021 A 
ATOM     14  C   UNL     1       0.287   0.190   6.745  0.00  0.00    +0.008 A 
ATOM     15  C   UNL     1       0.379   1.429   7.342  0.00  0.00    +0.001 A 
ATOM     16  C   UNL     1       0.350   2.578   6.570  0.00  0.00    +0.000 A 
ATOM     17  C   UNL     1       0.228   2.493   5.194  0.00  0.00    +0.001 A 
ATOM     18  C   UNL     1       0.141   1.262   4.580  0.00  0.00    +0.008 A 
ENDBRANCH  10  13
BRANCH   3  19
ATOM     19  O   UNL     1       0.116  -0.009  -2.372  0.00  0.00    -0.487 OA
BRANCH  19  20
ATOM     20  C   UNL     1       0.138  -0.776  -3.577  0.00  0.00    +0.259 C 
BRANCH  20  21
ATOM     21  C   UNL     1       0.144   0.153  -4.764  0.00  0.00    -0.043 C 
ATOM     22  C   UNL     1       0.130   1.450  -4.581  0.00  0.00    +0.011 C 
ATOM     23  C   UNL     1       0.166  -0.410  -6.162  0.00  0.00    +0.042 C 
ENDBRANCH  20  21
ENDBRANCH  19  20
ENDBRANCH   3  19
TORSDOF 4
