REMARK  Name = ZINC21775299
REMARK  8 active torsions:
REMARK  status: ('A' for Active; 'I' for Inactive)
REMARK    1  A    between atoms: C_1  and  N_2
REMARK    2  A    between atoms: N_5  and  C_8
REMARK    3  A    between atoms: C_8  and  C_10
REMARK    4  A    between atoms: C_8  and  C_22
REMARK    5  A    between atoms: C_10  and  N_11
REMARK    6  A    between atoms: N_11  and  S_12
REMARK    7  A    between atoms: S_12  and  C_15
REMARK    8  A    between atoms: N_31  and  C_32
REMARK                            x       y       z     vdW  Elec       q    Type
REMARK                         _______ _______ _______ _____ _____    ______ ____
ROOT
ATOM      1  C   UNL     1       4.106  -1.765   4.101  0.00  0.00    +0.102 C 
ENDROOT
BRANCH   1   2
ATOM      2  C   UNL     1       3.172  -1.060   3.151  0.00  0.00    -0.029 A 
ATOM      3  C   UNL     1       1.948  -1.624   2.838  0.00  0.00    +0.007 A 
ATOM      4  C   UNL     1       1.097  -0.979   1.967  0.00  0.00    +0.024 A 
ATOM      5  C   UNL     1       1.461   0.241   1.396  0.00  0.00    +0.033 A 
ATOM      6  C   UNL     1       2.684   0.803   1.717  0.00  0.00    -0.026 A 
ATOM      7  C   UNL     1       3.536   0.148   2.592  0.00  0.00    +0.010 A 
ATOM      8  C   UNL     1       3.130   2.127   1.148  0.00  0.00    +0.038 C 
ATOM      9  C   UNL     1       2.257   2.490  -0.056  0.00  0.00    +0.024 C 
ATOM     10  C   UNL     1       0.791   2.274   0.342  0.00  0.00    +0.105 C 
ATOM     11  N   UNL     1       0.559   0.839   0.516  0.00  0.00    -0.333 N 
ATOM     12  C   UNL     1      -0.827   0.576   0.924  0.00  0.00    +0.129 C 
ENDBRANCH   1   2
BRANCH   1  17
ATOM     13  C   UNL     1       4.867  -6.503   1.123  0.00  0.00    -0.096 C 
ATOM     14  N   UNL     1       4.403  -5.250   1.732  0.00  0.00    +0.379 N 
ATOM     15  C   UNL     1       4.188  -5.415   3.177  0.00  0.00    -0.064 C 
ATOM     16  C   UNL     1       3.630  -4.114   3.759  0.00  0.00    +0.066 C 
ATOM     17  N   UNL     1       4.571  -3.018   3.491  0.00  0.00    -0.298 NA
ATOM     18  C   UNL     1       4.786  -2.853   2.047  0.00  0.00    +0.066 C 
ATOM     19  C   UNL     1       5.344  -4.154   1.465  0.00  0.00    -0.064 C 
ATOM     20  H   UNL     1       3.438  -4.989   1.273  0.00  0.00    -0.082 HD
ENDBRANCH   1  17
BRANCH   1  21
ATOM     21  C   UNL     1       3.369  -2.075   5.405  0.00  0.00    +0.129 C 
BRANCH  21  22
ATOM     22  N   UNL     1       4.278  -2.760   6.329  0.00  0.00    -0.188 NA
ATOM     23  H   UNL     1       5.091  -3.388   5.935  0.00  0.00    +0.148 HD
BRANCH  22  24
ATOM     24  S   UNL     1       3.939  -2.795   7.949  0.00  0.00    +0.058 S 
ATOM     25  O   UNL     1       4.978  -3.545   8.564  0.00  0.00    -0.153 OA
ATOM     26  O   UNL     1       3.636  -1.460   8.330  0.00  0.00    -0.153 OA
BRANCH  24  27
ATOM     27  C   UNL     1       2.457  -3.726   8.152  0.00  0.00    +0.105 A 
ATOM     28  C   UNL     1       1.231  -3.088   8.124  0.00  0.00    +0.030 A 
ATOM     29  C   UNL     1       0.068  -3.819   8.278  0.00  0.00    +0.022 A 
ATOM     30  C   UNL     1       0.131  -5.187   8.470  0.00  0.00    +0.041 A 
ATOM     31  C   UNL     1       1.359  -5.824   8.503  0.00  0.00    +0.022 A 
ATOM     32  C   UNL     1       2.521  -5.094   8.344  0.00  0.00    +0.030 A 
ATOM     33 CL   UNL     1      -1.329  -6.105   8.669  0.00  0.00    -0.084 Cl
ENDBRANCH  24  27
ENDBRANCH  22  24
ENDBRANCH  21  22
ENDBRANCH   1  21
TORSDOF 6
