REMARK  Name = ZINC29412880
REMARK  6 active torsions:
REMARK  status: ('A' for Active; 'I' for Inactive)
REMARK    1  A    between atoms: C_1  and  C_2
REMARK    2  A    between atoms: C_5  and  N_9
REMARK    3  A    between atoms: C_6  and  C_8
REMARK    4  A    between atoms: C_13  and  C_15
REMARK    5  A    between atoms: C_15  and  C_17
REMARK    6  A    between atoms: C_15  and  N_18
REMARK                            x       y       z     vdW  Elec       q    Type
REMARK                         _______ _______ _______ _____ _____    ______ ____
ROOT
ATOM      1  N   UNL     1       2.294  -5.132   4.520  0.00  0.00    -0.269 N 
ATOM      2  C   UNL     1       2.327  -3.871   4.045  0.00  0.00    +0.310 C 
ATOM      3  O   UNL     1       3.025  -3.036   4.587  0.00  0.00    -0.252 OA
ATOM      4  N   UNL     1       1.586  -3.535   2.971  0.00  0.00    -0.241 N 
ATOM      5  C   UNL     1       1.618  -2.274   2.497  0.00  0.00    +0.207 C 
ATOM      6  O   UNL     1       2.315  -1.442   3.037  0.00  0.00    -0.277 OA
ATOM      7  H   UNL     1       1.594  -5.864   4.089  0.00  0.00    +0.156 HD
ATOM      8  H   UNL     1       0.954  -4.291   2.481  0.00  0.00    +0.159 HD
ENDROOT
BRANCH   1  13
ATOM      9  C   UNL     1       5.763  -6.667   8.738  0.00  0.00    +0.044 C 
ATOM     10  C   UNL     1       4.842  -6.260   7.617  0.00  0.00    -0.050 A 
ATOM     11  C   UNL     1       5.184  -5.203   6.792  0.00  0.00    +0.005 A 
ATOM     12  C   UNL     1       4.341  -4.827   5.765  0.00  0.00    +0.024 A 
ATOM     13  C   UNL     1       3.150  -5.511   5.560  0.00  0.00    +0.038 A 
ATOM     14  C   UNL     1       2.807  -6.568   6.393  0.00  0.00    -0.029 A 
ATOM     15  C   UNL     1       3.657  -6.943   7.415  0.00  0.00    +0.008 A 
ATOM     16  C   UNL     1       1.512  -7.309   6.178  0.00  0.00    +0.045 C 
ENDBRANCH   1  13
BRANCH   5  17
ATOM     17  C   UNL     1       0.790  -1.899   1.295  0.00  0.00    +0.017 C 
ATOM     18  C   UNL     1       1.210  -2.755   0.099  0.00  0.00    -0.004 C 
BRANCH  17  19
ATOM     19  N   UNL     1       0.999  -0.480   0.980  0.00  0.00    +0.390 N 
ATOM     20  C   UNL     1       0.037  -0.017  -0.030  0.00  0.00    -0.072 C 
ATOM     21  C   UNL     1       0.014   1.521  -0.026  0.00  0.00    +0.024 C 
ATOM     22  C   UNL     1       1.430   1.997  -0.025  0.00  0.00    -0.011 A 
ATOM     23  C   UNL     1       2.539   1.250   0.237  0.00  0.00    -0.054 A 
ATOM     24  C   UNL     1       3.763   1.912   0.177  0.00  0.00    +0.009 A 
ATOM     25  C   UNL     1       3.805   3.231  -0.126  0.00  0.00    +0.045 A 
ATOM     26  S   UNL     1       2.074   3.613  -0.350  0.00  0.00    -0.101 S 
ATOM     27  C   UNL     1       2.388  -0.231   0.573  0.00  0.00    -0.041 C 
ATOM     28  H   UNL     1       0.819   0.107   1.893  0.00  0.00    -0.080 HD
ENDBRANCH  17  19
ENDBRANCH   5  17
TORSDOF 3
