REMARK  Name = ZINC21148116
REMARK  4 active torsions:
REMARK  status: ('A' for Active; 'I' for Inactive)
REMARK    1  A    between atoms: C_1  and  C_2
REMARK    2  A    between atoms: C_5  and  N_8
REMARK    3  A    between atoms: C_9  and  C_19
REMARK    4  A    between atoms: C_10  and  C_18
REMARK                            x       y       z     vdW  Elec       q    Type
REMARK                         _______ _______ _______ _____ _____    ______ ____
ROOT
ATOM      1  N   UNL     1       0.991  -2.010  -0.019  0.00  0.00    -0.298 N 
ATOM      2  C   UNL     1      -0.363  -2.229  -0.007  0.00  0.00    +0.026 A 
ATOM      3  C   UNL     1      -1.015  -1.055   0.006  0.00  0.00    -0.017 A 
ATOM      4  C   UNL     1       0.002  -0.004   0.002  0.00  0.00    +0.059 A 
ATOM      5  C   UNL     1       1.249  -0.664  -0.013  0.00  0.00    +0.150 A 
ATOM      6  N   UNL     1       2.356   0.070  -0.020  0.00  0.00    -0.217 NA
ATOM      7  C   UNL     1       2.287   1.384  -0.012  0.00  0.00    +0.225 A 
ATOM      8  N   UNL     1       1.139   2.038   0.002  0.00  0.00    -0.223 NA
ATOM      9  C   UNL     1      -0.017   1.391   0.010  0.00  0.00    +0.142 A 
ATOM     10 CL   UNL     1      -1.520   2.259   0.022  0.00  0.00    -0.061 Cl
ATOM     11  C   UNL     1      -2.509  -0.858   0.022  0.00  0.00    +0.046 C 
ATOM     12  C   UNL     1      -1.022  -3.584  -0.008  0.00  0.00    +0.064 C 
ENDROOT
BRANCH   1  17
ATOM     13  C   UNL     1       4.944  -6.082  -0.078  0.00  0.00    +0.044 C 
ATOM     14  C   UNL     1       3.894  -5.001  -0.062  0.00  0.00    -0.050 A 
ATOM     15  C   UNL     1       3.787  -4.159   1.030  0.00  0.00    +0.005 A 
ATOM     16  C   UNL     1       2.826  -3.167   1.047  0.00  0.00    +0.026 A 
ATOM     17  C   UNL     1       1.968  -3.015  -0.034  0.00  0.00    +0.048 A 
ATOM     18  C   UNL     1       2.074  -3.865  -1.126  0.00  0.00    +0.026 A 
ATOM     19  C   UNL     1       3.040  -4.852  -1.140  0.00  0.00    +0.005 A 
ENDBRANCH   1  17
TORSDOF 1
