REMARK  Name = ZINC39595122
REMARK  10 active torsions:
REMARK  status: ('A' for Active; 'I' for Inactive)
REMARK    1  A    between atoms: C_1  and  C_2
REMARK    2  A    between atoms: C_2  and  C_3
REMARK    3  A    between atoms: C_3  and  C_5
REMARK    4  A    between atoms: C_3  and  C_6
REMARK    5  A    between atoms: C_6  and  C_7
REMARK    6  A    between atoms: C_11  and  C_20
REMARK    7  A    between atoms: N_22  and  C_23
REMARK    8  A    between atoms: C_23  and  C_24
REMARK    9  A    between atoms: C_24  and  C_26
REMARK   10  A    between atoms: C_24  and  N_32
REMARK                            x       y       z     vdW  Elec       q    Type
REMARK                         _______ _______ _______ _____ _____    ______ ____
ROOT
ATOM      1  C   UNL     1      -3.739  -2.756  -0.454  0.00  0.00    +0.216 C 
ATOM      2  O   UNL     1      -4.752  -2.094  -0.381  0.00  0.00    -0.276 OA
ATOM      3  N   UNL     1      -3.816  -4.101  -0.512  0.00  0.00    -0.300 N 
ATOM      4  C   UNL     1      -2.700  -5.072  -0.596  0.00  0.00    +0.121 C 
ATOM      5  C   UNL     1      -3.131  -6.242   0.315  0.00  0.00    +0.100 C 
ATOM      6  C   UNL     1      -4.665  -6.153   0.369  0.00  0.00    -0.004 C 
ATOM      7  C   UNL     1      -5.036  -4.942  -0.499  0.00  0.00    +0.115 C 
ATOM      8  C   UNL     1      -5.131  -5.928   1.804  0.00  0.00    -0.010 C 
ATOM      9  C   UNL     1      -6.662  -5.899   1.841  0.00  0.00    -0.082 C 
ATOM     10  N   UNL     1      -7.189  -7.170   1.327  0.00  0.00    +0.379 N 
ATOM     11  C   UNL     1      -6.814  -7.335  -0.082  0.00  0.00    -0.082 C 
ATOM     12  C   UNL     1      -5.289  -7.424  -0.200  0.00  0.00    -0.010 C 
ATOM     13  H   UNL     1      -6.808  -7.933   1.867  0.00  0.00    -0.086 HD
ATOM     14  H   UNL     1      -8.195  -7.173   1.409  0.00  0.00    -0.086 HD
ENDROOT
BRANCH   5  15
ATOM     15  C   UNL     1      -2.700  -7.558  -0.281  0.00  0.00    +0.218 C 
ATOM     16  O   UNL     1      -2.628  -7.683  -1.485  0.00  0.00    -0.275 OA
ATOM     17  N   UNL     1      -2.396  -8.595   0.524  0.00  0.00    -0.316 N 
ATOM     18  H   UNL     1      -2.454  -8.495   1.487  0.00  0.00    +0.149 HD
BRANCH  17  19
ATOM     19  C   UNL     1      -1.977  -9.874  -0.055  0.00  0.00    +0.093 C 
BRANCH  19  20
ATOM     20  C   UNL     1      -1.824 -10.912   1.058  0.00  0.00    -0.019 C 
BRANCH  20  21
ATOM     21  C   UNL     1      -3.170 -11.186   1.677  0.00  0.00    -0.041 A 
ATOM     22  C   UNL     1      -3.528 -10.583   2.873  0.00  0.00    +0.005 A 
ATOM     23  C   UNL     1      -4.777 -10.864   3.407  0.00  0.00    +0.020 A 
ATOM     24  C   UNL     1      -5.617 -11.731   2.733  0.00  0.00    +0.111 A 
ATOM     25  N   UNL     1      -5.243 -12.287   1.598  0.00  0.00    -0.263 NA
ATOM     26  C   UNL     1      -4.066 -12.038   1.058  0.00  0.00    +0.112 A 
ENDBRANCH  20  21
BRANCH  20  27
ATOM     27  N   UNL     1      -1.282 -12.156   0.495  0.00  0.00    +0.385 N 
ATOM     28  C   UNL     1       0.076 -11.919  -0.058  0.00  0.00    -0.078 C 
ATOM     29  C   UNL     1       0.705 -13.335  -0.074  0.00  0.00    -0.020 C 
ATOM     30  C   UNL     1       0.156 -13.972   1.224  0.00  0.00    -0.020 C 
ATOM     31  C   UNL     1      -1.112 -13.167   1.562  0.00  0.00    -0.078 C 
ATOM     32  H   UNL     1      -1.895 -12.510  -0.225  0.00  0.00    -0.081 HD
ENDBRANCH  20  27
ENDBRANCH  19  20
ENDBRANCH  17  19
ENDBRANCH   5  15
BRANCH   1  33
ATOM     33  C   UNL     1      -2.394  -2.077  -0.479  0.00  0.00    +0.099 C 
BRANCH  33  34
ATOM     34  C   UNL     1      -2.587  -0.561  -0.402  0.00  0.00    -0.006 C 
ATOM     35  C   UNL     1      -3.201  -0.193   0.950  0.00  0.00    +0.008 C 
BRANCH  34  37
ATOM     36  C   UNL     1      -1.438   1.649  -0.601  0.00  0.00    +0.004 C 
ATOM     37  C   UNL     1      -1.232   0.134  -0.553  0.00  0.00    +0.000 C 
ENDBRANCH  34  37
ENDBRANCH  33  34
ENDBRANCH   1  33
TORSDOF 8
