REMARK  Name = ZINC27546804
REMARK  8 active torsions:
REMARK  status: ('A' for Active; 'I' for Inactive)
REMARK    1  A    between atoms: C_1  and  C_2
REMARK    2  A    between atoms: C_4  and  C_38
REMARK    3  A    between atoms: C_6  and  O_8
REMARK    4  A    between atoms: O_8  and  C_9
REMARK    5  A    between atoms: C_9  and  C_10
REMARK    6  A    between atoms: C_10  and  N_11
REMARK    7  A    between atoms: C_13  and  C_20
REMARK    8  A    between atoms: C_30  and  C_32
REMARK                            x       y       z     vdW  Elec       q    Type
REMARK                         _______ _______ _______ _____ _____    ______ ____
ROOT
ATOM      1  N   UNL     1       0.483  -1.673   5.579  0.00  0.00    -0.343 N 
ATOM      2  C   UNL     1       1.480  -1.410   6.447  0.00  0.00    +0.095 A 
ATOM      3  C   UNL     1       0.950  -0.910   7.621  0.00  0.00    +0.001 A 
ATOM      4  C   UNL     1      -0.514  -0.872   7.428  0.00  0.00    +0.007 A 
ATOM      5  C   UNL     1      -0.742  -1.356   6.130  0.00  0.00    +0.050 A 
ATOM      6  C   UNL     1      -2.046  -1.435   5.653  0.00  0.00    +0.026 A 
ATOM      7  C   UNL     1      -3.097  -1.036   6.451  0.00  0.00    +0.002 A 
ATOM      8  C   UNL     1      -2.868  -0.555   7.731  0.00  0.00    +0.001 A 
ATOM      9  C   UNL     1      -1.583  -0.477   8.225  0.00  0.00    +0.010 A 
ENDROOT
BRANCH   3  10
ATOM     10  C   UNL     1       1.664  -0.514   8.775  0.00  0.00    +0.026 C 
ATOM     11  C   UNL     1       2.814  -1.190   9.142  0.00  0.00    +0.081 C 
ATOM     12  C   UNL     1       3.691  -0.704  10.241  0.00  0.00    +0.152 C 
ATOM     13  N   UNL     1       3.239  -0.079  11.297  0.00  0.00    -0.283 NA
ATOM     14  N   UNL     1       5.058  -0.985  10.033  0.00  0.00    -0.152 N 
ATOM     15  C   UNL     1       5.372  -2.031   9.193  0.00  0.00    +0.181 C 
ATOM     16  N   UNL     1       4.548  -2.752   8.476  0.00  0.00    -0.152 NA
ATOM     17  C   UNL     1       3.234  -2.439   8.465  0.00  0.00    +0.273 C 
ATOM     18  O   UNL     1       2.418  -3.159   7.912  0.00  0.00    -0.268 OA
ATOM     19  S   UNL     1       7.138  -2.105   9.334  0.00  0.00    -0.038 S 
ATOM     20  C   UNL     1       7.346  -0.692  10.409  0.00  0.00    +0.103 C 
ATOM     21  N   UNL     1       6.116  -0.312  10.607  0.00  0.00    -0.169 NA
ATOM     22  H   UNL     1       3.854   0.217  11.986  0.00  0.00    +0.188 HD
BRANCH  20  23
ATOM     23  C   UNL     1       8.619  -0.093  10.949  0.00  0.00    +0.046 C 
ATOM     24  C   UNL     1       8.320   0.652  12.251  0.00  0.00    +0.010 C 
ATOM     25  C   UNL     1       9.613   1.260  12.799  0.00  0.00    +0.001 C 
ATOM     26  C   UNL     1      10.191   2.237  11.774  0.00  0.00    +0.000 C 
ATOM     27  C   UNL     1      10.490   1.492  10.471  0.00  0.00    +0.001 C 
ATOM     28  C   UNL     1       9.198   0.884   9.923  0.00  0.00    +0.010 C 
ENDBRANCH  20  23
ENDBRANCH   3  10
BRANCH   1  29
ATOM     29  C   UNL     1       0.675  -2.215   4.231  0.00  0.00    +0.163 C 
BRANCH  29  30
ATOM     30  C   UNL     1       0.728  -1.065   3.222  0.00  0.00    +0.250 C 
BRANCH  30  31
ATOM     31  O   UNL     1       0.915  -1.594   1.908  0.00  0.00    -0.490 OA
BRANCH  31  37
ATOM     32  C   UNL     1       0.826   3.043   0.387  0.00  0.00    +0.044 C 
ATOM     33  C   UNL     1       0.945   1.567   0.107  0.00  0.00    -0.047 A 
ATOM     34  C   UNL     1       1.124   1.123  -1.190  0.00  0.00    +0.007 A 
ATOM     35  C   UNL     1       1.234  -0.231  -1.450  0.00  0.00    -0.047 A 
ATOM     36  C   UNL     1       1.164  -1.143  -0.415  0.00  0.00    +0.049 A 
ATOM     37  C   UNL     1       0.984  -0.699   0.887  0.00  0.00    +0.121 A 
ATOM     38  C   UNL     1       0.879   0.660   1.147  0.00  0.00    +0.049 A 
ATOM     39  C   UNL     1       1.430  -0.712  -2.865  0.00  0.00    +0.044 C 
ENDBRANCH  31  37
ENDBRANCH  30  31
ENDBRANCH  29  30
ENDBRANCH   1  29
TORSDOF 6
