REMARK  Name = ZINC40316572
REMARK  10 active torsions:
REMARK  status: ('A' for Active; 'I' for Inactive)
REMARK    1  A    between atoms: C_5  and  O_7
REMARK    2  A    between atoms: O_7  and  C_8
REMARK    3  A    between atoms: C_8  and  C_9
REMARK    4  A    between atoms: C_9  and  C_11
REMARK    5  A    between atoms: C_9  and  O_28
REMARK    6  A    between atoms: C_11  and  N_12
REMARK    7  A    between atoms: N_12  and  C_13
REMARK    8  A    between atoms: N_12  and  C_21
REMARK    9  A    between atoms: C_13  and  C_14
REMARK   10  A    between atoms: C_21  and  C_22
REMARK                            x       y       z     vdW  Elec       q    Type
REMARK                         _______ _______ _______ _____ _____    ______ ____
ROOT
ATOM      1  N   UNL     1      -0.814  -6.412   0.127  0.00  0.00    +0.386 N 
ATOM      2  H   UNL     1      -0.226  -6.501   0.942  0.00  0.00    -0.081 HD
ENDROOT
BRANCH   1   3
ATOM      3  C   UNL     1      -1.182  -5.002  -0.059  0.00  0.00    -0.043 C 
BRANCH   3   4
ATOM      4  C   UNL     1      -1.774  -4.454   1.242  0.00  0.00    +0.135 C 
BRANCH   4   5
ATOM      5  O   UNL     1      -3.033  -5.082   1.494  0.00  0.00    -0.390 OA
ATOM      6  H   UNL     1      -3.690  -4.939   0.799  0.00  0.00    +0.210 HD
ENDBRANCH   4   5
BRANCH   4   7
ATOM      7  C   UNL     1      -1.975  -2.943   1.114  0.00  0.00    +0.258 C 
BRANCH   7   8
ATOM      8  O   UNL     1      -2.417  -2.414   2.366  0.00  0.00    -0.487 OA
BRANCH   8  13
ATOM      9  C   UNL     1      -2.675   1.074   1.362  0.00  0.00    +0.004 A 
ATOM     10  C   UNL     1      -3.106   1.652   2.543  0.00  0.00    +0.003 A 
ATOM     11  C   UNL     1      -3.306   0.870   3.665  0.00  0.00    +0.042 A 
ATOM     12  C   UNL     1      -3.076  -0.493   3.610  0.00  0.00    +0.165 A 
ATOM     13  C   UNL     1      -2.644  -1.075   2.424  0.00  0.00    +0.156 A 
ATOM     14  C   UNL     1      -2.445  -0.287   1.301  0.00  0.00    +0.048 A 
ATOM     15  F   UNL     1      -3.270  -1.257   4.706  0.00  0.00    -0.202 F 
ENDBRANCH   8  13
ENDBRANCH   7   8
ENDBRANCH   4   7
ENDBRANCH   3   4
ENDBRANCH   1   3
BRANCH   1  16
ATOM     16  C   UNL     1      -2.030  -7.216   0.309  0.00  0.00    -0.043 C 
BRANCH  16  17
ATOM     17  C   UNL     1      -1.649  -8.652   0.564  0.00  0.00    -0.064 A 
ATOM     18  C   UNL     1      -1.502  -9.526  -0.496  0.00  0.00    +0.003 A 
ATOM     19  C   UNL     1      -1.153 -10.843  -0.263  0.00  0.00    +0.020 A 
ATOM     20  C   UNL     1      -0.950 -11.286   1.032  0.00  0.00    +0.041 A 
ATOM     21  C   UNL     1      -1.097 -10.410   2.093  0.00  0.00    +0.020 A 
ATOM     22  C   UNL     1      -1.441  -9.092   1.858  0.00  0.00    +0.003 A 
ATOM     23 CL   UNL     1      -0.512 -12.940   1.325  0.00  0.00    -0.084 Cl
ENDBRANCH  16  17
ENDBRANCH   1  16
BRANCH   1  24
ATOM     24  C   UNL     1      -0.086  -6.887  -1.057  0.00  0.00    -0.046 C 
BRANCH  24  25
ATOM     25  C   UNL     1       1.247  -6.145  -1.168  0.00  0.00    +0.102 C 
ATOM     26  C   UNL     1       1.986  -6.583  -2.451  0.00  0.00    +0.032 C 
ATOM     27  C   UNL     1       3.462  -6.651  -1.975  0.00  0.00    +0.030 C 
ATOM     28  C   UNL     1       3.278  -7.128  -0.512  0.00  0.00    +0.160 C 
ATOM     29  O   UNL     1       2.082  -6.475  -0.052  0.00  0.00    -0.378 OA
ENDBRANCH  24  25
ENDBRANCH   1  24
TORSDOF 10
