REMARK  Name = ZINC09822496
REMARK  4 active torsions:
REMARK  status: ('A' for Active; 'I' for Inactive)
REMARK    1  A    between atoms: C_8  and  C_23
REMARK    2  A    between atoms: N_10  and  S_11
REMARK    3  A    between atoms: S_11  and  C_14
REMARK    4  A    between atoms: C_17  and  N_20
REMARK                            x       y       z     vdW  Elec       q    Type
REMARK                         _______ _______ _______ _____ _____    ______ ____
ROOT
ATOM      1  C   UNL     1       4.824   2.152  -3.110  0.00  0.00    +0.000 A 
ATOM      2  C   UNL     1       5.358   1.261  -2.197  0.00  0.00    +0.002 A 
ATOM      3  C   UNL     1       4.617   0.857  -1.108  0.00  0.00    +0.025 A 
ATOM      4  C   UNL     1       3.322   1.343  -0.916  0.00  0.00    +0.055 A 
ATOM      5  C   UNL     1       2.796   2.236  -1.837  0.00  0.00    -0.022 A 
ATOM      6  C   UNL     1       3.542   2.638  -2.928  0.00  0.00    +0.005 A 
ATOM      7  C   UNL     1       1.395   2.604  -1.404  0.00  0.00    +0.070 C 
ATOM      8  C   UNL     1       1.170   1.808  -0.108  0.00  0.00    +0.187 C 
ATOM      9  N   UNL     1       2.414   1.065   0.107  0.00  0.00    -0.191 N 
ENDROOT
BRANCH   8  10
ATOM     10  C   UNL     1       0.013   0.857  -0.272  0.00  0.00    +0.233 C 
ATOM     11  O   UNL     1       0.207  -0.267  -0.686  0.00  0.00    -0.274 OA
ATOM     12  N   UNL     1      -1.237   1.256   0.034  0.00  0.00    -0.328 N 
ATOM     13  H   UNL     1      -1.982   0.644  -0.076  0.00  0.00    +0.145 HD
ATOM     14  H   UNL     1      -1.391   2.155   0.365  0.00  0.00    +0.145 HD
ENDBRANCH   8  10
BRANCH   9  15
ATOM     15  S   UNL     1       2.701   0.042   1.377  0.00  0.00    +0.075 S 
ATOM     16  O   UNL     1       1.434  -0.286   1.929  0.00  0.00    -0.150 OA
ATOM     17  O   UNL     1       3.605  -0.948   0.905  0.00  0.00    -0.150 OA
BRANCH  15  18
ATOM     18  C   UNL     1       3.562   0.966   2.605  0.00  0.00    +0.109 A 
ATOM     19  C   UNL     1       4.938   1.087   2.541  0.00  0.00    +0.031 A 
ATOM     20  C   UNL     1       5.613   1.816   3.502  0.00  0.00    +0.034 A 
ATOM     21  C   UNL     1       4.914   2.415   4.534  0.00  0.00    +0.126 A 
ATOM     22  C   UNL     1       3.539   2.289   4.601  0.00  0.00    +0.034 A 
ATOM     23  C   UNL     1       2.863   1.564   3.637  0.00  0.00    +0.031 A 
BRANCH  21  24
ATOM     24  N   UNL     1       5.638   3.190   5.566  0.00  0.00    +0.056 N 
ATOM     25  O   UNL     1       5.021   3.717   6.475  0.00  0.00    -0.126 OA
ATOM     26  O   UNL     1       6.849   3.301   5.507  0.00  0.00    -0.126 OA
ENDBRANCH  21  24
ENDBRANCH  15  18
ENDBRANCH   9  15
TORSDOF 4
