REMARK  Name = ZINC05275262
REMARK  7 active torsions:
REMARK  status: ('A' for Active; 'I' for Inactive)
REMARK    1  A    between atoms: C_1  and  C_2
REMARK    2  A    between atoms: C_2  and  C_4
REMARK    3  A    between atoms: C_2  and  O_29
REMARK    4  A    between atoms: C_4  and  O_28
REMARK    5  A    between atoms: C_9  and  C_27
REMARK    6  A    between atoms: C_19  and  C_26
REMARK    7  A    between atoms: C_22  and  O_25
REMARK                            x       y       z     vdW  Elec       q    Type
REMARK                         _______ _______ _______ _____ _____    ______ ____
ROOT
ATOM      1  C   UNL     1      -3.957   5.563   0.228  0.00  0.00    +0.097 C 
ATOM      2  C   UNL     1      -4.926   4.395   0.551  0.00  0.00    +0.038 C 
ATOM      3  C   UNL     1      -4.040   3.171   0.903  0.00  0.00    +0.007 C 
ATOM      4  C   UNL     1      -2.635   3.773   1.063  0.00  0.00    +0.002 C 
ATOM      5  C   UNL     1      -2.616   4.850  -0.038  0.00  0.00    +0.002 C 
ATOM      6  C   UNL     1      -1.380   5.705   0.022  0.00  0.00    +0.010 C 
ATOM      7  C   UNL     1      -0.176   4.900   0.540  0.00  0.00    +0.005 C 
ATOM      8  C   UNL     1      -0.320   3.427   0.190  0.00  0.00    +0.003 C 
ATOM      9  C   UNL     1      -1.483   2.822   0.989  0.00  0.00    +0.000 C 
ATOM     10  C   UNL     1      -1.808   1.467   0.359  0.00  0.00    +0.031 C 
ATOM     11  C   UNL     1      -0.550   0.637   0.428  0.00  0.00    -0.027 C 
ATOM     12  C   UNL     1       0.639   1.145   0.530  0.00  0.00    -0.065 C 
ATOM     13  C   UNL     1       0.942   2.624   0.480  0.00  0.00    -0.008 C 
ATOM     14  C   UNL     1       1.604   3.042   1.785  0.00  0.00    +0.014 C 
ATOM     15  C   UNL     1       1.956   1.814   2.623  0.00  0.00    +0.032 C 
ATOM     16  C   UNL     1       2.716   0.769   1.811  0.00  0.00    +0.119 C 
ATOM     17  C   UNL     1       1.827   0.213   0.694  0.00  0.00    +0.062 C 
ATOM     18  C   UNL     1       1.923   2.874  -0.672  0.00  0.00    +0.016 C 
ATOM     19  C   UNL     1      -2.749   4.225  -1.439  0.00  0.00    +0.014 C 
ENDROOT
BRANCH   1  21
ATOM     20  C   UNL     1      -5.287   6.983   1.786  0.00  0.00    +0.040 C 
ATOM     21  C   UNL     1      -3.878   6.518   1.412  0.00  0.00    +0.144 C 
BRANCH  21  22
ATOM     22  O   UNL     1      -3.081   7.650   1.058  0.00  0.00    -0.389 OA
ATOM     23  H   UNL     1      -3.424   8.154   0.307  0.00  0.00    +0.210 HD
ENDBRANCH  21  22
ENDBRANCH   1  21
BRANCH  16  24
ATOM     24  O   UNL     1       3.897   1.348   1.256  0.00  0.00    -0.391 OA
ATOM     25  H   UNL     1       4.439   0.726   0.750  0.00  0.00    +0.210 HD
ENDBRANCH  16  24
BRANCH   1  26
ATOM     26  O   UNL     1      -4.381   6.247  -0.950  0.00  0.00    -0.385 OA
ATOM     27  H   UNL     1      -5.258   6.650  -0.877  0.00  0.00    +0.210 HD
ENDBRANCH   1  26
TORSDOF 4
