REMARK  Name = ZINC34932955
REMARK  6 active torsions:
REMARK  status: ('A' for Active; 'I' for Inactive)
REMARK    1  A    between atoms: C_4  and  C_7
REMARK    2  A    between atoms: C_7  and  C_8
REMARK    3  A    between atoms: C_7  and  N_14
REMARK    4  A    between atoms: C_15  and  C_17
REMARK    5  A    between atoms: C_17  and  N_18
REMARK    6  A    between atoms: N_21  and  C_22
REMARK                            x       y       z     vdW  Elec       q    Type
REMARK                         _______ _______ _______ _____ _____    ______ ____
ROOT
ATOM      1  N   UNL     1       3.611  -1.865  -0.930  0.00  0.00    -0.303 N 
ATOM      2  C   UNL     1       3.825  -1.716  -2.253  0.00  0.00    +0.231 C 
ATOM      3  O   UNL     1       4.099  -0.624  -2.704  0.00  0.00    -0.274 OA
ATOM      4  H   UNL     1       3.392  -2.738  -0.569  0.00  0.00    +0.150 HD
ENDROOT
BRANCH   1   5
ATOM      5  C   UNL     1       3.711  -0.707  -0.038  0.00  0.00    +0.134 C 
BRANCH   5   9
ATOM      6  C   UNL     1      -0.017   1.378   0.010  0.00  0.00    +0.000 A 
ATOM      7  C   UNL     1       1.171   2.086   0.002  0.00  0.00    +0.000 A 
ATOM      8  C   UNL     1       2.377   1.411  -0.013  0.00  0.00    +0.006 A 
ATOM      9  C   UNL     1       2.396   0.029  -0.020  0.00  0.00    -0.023 A 
ATOM     10  C   UNL     1       1.208  -0.679  -0.012  0.00  0.00    +0.006 A 
ATOM     11  C   UNL     1       0.002  -0.004   0.002  0.00  0.00    +0.000 A 
ENDBRANCH   5   9
BRANCH   5  12
ATOM     12  C   UNL     1       4.044  -1.175   1.356  0.00  0.00    -0.023 A 
ATOM     13  C   UNL     1       3.455  -2.320   1.860  0.00  0.00    +0.006 A 
ATOM     14  C   UNL     1       3.760  -2.748   3.138  0.00  0.00    +0.000 A 
ATOM     15  C   UNL     1       4.654  -2.033   3.912  0.00  0.00    +0.000 A 
ATOM     16  C   UNL     1       5.243  -0.888   3.408  0.00  0.00    +0.000 A 
ATOM     17  C   UNL     1       4.941  -0.462   2.128  0.00  0.00    +0.006 A 
ENDBRANCH   5  12
ENDBRANCH   1   5
BRANCH   2  18
ATOM     18  C   UNL     1       3.722  -2.906  -3.171  0.00  0.00    +0.201 C 
BRANCH  18  19
ATOM     19  N   UNL     1       3.995  -2.486  -4.548  0.00  0.00    -0.291 N 
ATOM     20  C   UNL     1       3.960  -3.389  -5.547  0.00  0.00    +0.300 C 
ATOM     21  O   UNL     1       3.701  -4.553  -5.307  0.00  0.00    -0.253 OA
ATOM     22  N   UNL     1       4.211  -3.003  -6.814  0.00  0.00    -0.294 N 
ATOM     23  H   UNL     1       4.202  -1.558  -4.739  0.00  0.00    +0.151 HD
ATOM     24  H   UNL     1       4.417  -2.075  -7.006  0.00  0.00    +0.151 HD
BRANCH  22  25
ATOM     25  C   UNL     1       4.172  -3.985  -7.901  0.00  0.00    +0.037 C 
ATOM     26  C   UNL     1       5.208  -5.080  -7.636  0.00  0.00    +0.029 C 
ATOM     27  C   UNL     1       5.168  -6.105  -8.771  0.00  0.00    -0.008 C 
ATOM     28  C   UNL     1       5.487  -5.411 -10.097  0.00  0.00    +0.007 C 
ATOM     29  C   UNL     1       4.451  -4.316 -10.361  0.00  0.00    -0.008 C 
ATOM     30  C   UNL     1       4.492  -3.291  -9.226  0.00  0.00    +0.029 C 
ATOM     31  C   UNL     1       3.056  -4.940 -10.435  0.00  0.00    +0.007 C 
ATOM     32  C   UNL     1       2.737  -5.634  -9.109  0.00  0.00    -0.008 C 
ATOM     33  C   UNL     1       3.773  -6.729  -8.845  0.00  0.00    +0.007 C 
ATOM     34  C   UNL     1       2.777  -4.609  -7.974  0.00  0.00    +0.029 C 
ENDBRANCH  22  25
ENDBRANCH  18  19
ENDBRANCH   2  18
TORSDOF 6
