REMARK  Name = ZINC22927375
REMARK  8 active torsions:
REMARK  status: ('A' for Active; 'I' for Inactive)
REMARK    1  A    between atoms: C_1  and  C_2
REMARK    2  A    between atoms: C_7  and  N_8
REMARK    3  A    between atoms: C_11  and  C_16
REMARK    4  A    between atoms: C_16  and  N_17
REMARK    5  A    between atoms: N_20  and  C_23
REMARK    6  A    between atoms: C_23  and  C_24
REMARK    7  A    between atoms: C_30  and  C_36
REMARK    8  A    between atoms: C_31  and  C_35
REMARK                            x       y       z     vdW  Elec       q    Type
REMARK                         _______ _______ _______ _____ _____    ______ ____
ROOT
ATOM      1  N   UNL     1      -0.296   1.881   0.880  0.00  0.00    +0.386 N 
ATOM      2  C   UNL     1      -1.743   1.668   0.734  0.00  0.00    -0.063 C 
ATOM      3  C   UNL     1      -2.453   2.114   2.014  0.00  0.00    +0.066 C 
ATOM      4  N   UNL     1      -2.154   3.530   2.269  0.00  0.00    -0.299 NA
ATOM      5  C   UNL     1      -0.707   3.743   2.415  0.00  0.00    +0.066 C 
ATOM      6  C   UNL     1       0.003   3.297   1.135  0.00  0.00    -0.063 C 
ATOM      7  H   UNL     1       0.047   1.299   1.748  0.00  0.00    -0.081 HD
ENDROOT
BRANCH   1   8
ATOM      8  C   UNL     1       0.429   1.394  -0.301  0.00  0.00    -0.001 C 
BRANCH   8  12
ATOM      9  N   UNL     1      -1.880  -2.520  -1.841  0.00  0.00    -0.283 N 
ATOM     10  C   UNL     1      -0.829  -1.963  -1.140  0.00  0.00    +0.224 A 
ATOM     11  N   UNL     1      -0.708  -0.639  -1.060  0.00  0.00    -0.201 NA
ATOM     12  C   UNL     1       0.297  -0.105  -0.390  0.00  0.00    +0.120 A 
ATOM     13  N   UNL     1       1.190  -0.881   0.199  0.00  0.00    -0.202 NA
ATOM     14  C   UNL     1       1.074  -2.205   0.128  0.00  0.00    +0.217 A 
ATOM     15  N   UNL     1       0.064  -2.746  -0.545  0.00  0.00    -0.181 NA
ATOM     16  N   UNL     1       2.004  -3.015   0.747  0.00  0.00    -0.327 N 
ATOM     17  H   UNL     1      -2.669  -1.875  -2.255  0.00  0.00    +0.155 HD
ATOM     18  H   UNL     1       1.907  -4.109   0.688  0.00  0.00    +0.145 HD
ATOM     19  H   UNL     1       2.842  -2.566   1.301  0.00  0.00    +0.145 HD
BRANCH   9  26
ATOM     20  C   UNL     1      -4.426  -3.700  -2.311  0.00  0.00    +0.045 C 
ATOM     21  C   UNL     1      -3.165  -4.522  -2.256  0.00  0.00    -0.029 A 
ATOM     22  C   UNL     1      -3.222  -5.891  -2.436  0.00  0.00    +0.005 A 
ATOM     23  C   UNL     1      -2.065  -6.646  -2.386  0.00  0.00    +0.000 A 
ATOM     24  C   UNL     1      -0.846  -6.034  -2.155  0.00  0.00    +0.002 A 
ATOM     25  C   UNL     1      -0.781  -4.666  -1.980  0.00  0.00    +0.023 A 
ATOM     26  C   UNL     1      -1.942  -3.905  -2.024  0.00  0.00    +0.036 A 
ENDBRANCH   9  26
ENDBRANCH   8  12
ENDBRANCH   1   8
BRANCH   4  27
ATOM     27  C   UNL     1      -2.879   4.017   3.450  0.00  0.00    +0.158 C 
BRANCH  27  28
ATOM     28  C   UNL     1      -2.773   5.519   3.522  0.00  0.00    +0.125 A 
ATOM     29  N   UNL     1      -3.437   6.189   4.498  0.00  0.00    -0.309 N 
ATOM     30  H   UNL     1      -4.050   5.636   5.225  0.00  0.00    +0.170 HD
ATOM     31  C   UNL     1      -3.364   7.529   4.602  0.00  0.00    +0.260 A 
ATOM     32  O   UNL     1      -3.962   8.115   5.487  0.00  0.00    -0.267 OA
ATOM     33  C   UNL     1      -2.577   8.256   3.651  0.00  0.00    +0.075 A 
ATOM     34  C   UNL     1      -2.347   9.685   3.547  0.00  0.00    -0.026 A 
ATOM     35  C   UNL     1      -1.563  10.153   2.562  0.00  0.00    -0.008 A 
ATOM     36  S   UNL     1      -1.070   8.678   1.691  0.00  0.00    -0.073 S 
ATOM     37  C   UNL     1      -1.931   7.477   2.674  0.00  0.00    +0.116 A 
ATOM     38  N   UNL     1      -2.047   6.153   2.640  0.00  0.00    -0.225 NA
ATOM     39  C   UNL     1      -1.189  11.582   2.265  0.00  0.00    +0.052 C 
ATOM     40  C   UNL     1      -2.982  10.633   4.532  0.00  0.00    +0.045 C 
ENDBRANCH  27  28
ENDBRANCH   4  27
TORSDOF 5
