REMARK  Name = ZINC04000158
REMARK  7 active torsions:
REMARK  status: ('A' for Active; 'I' for Inactive)
REMARK    1  A    between atoms: C_1  and  C_2
REMARK    2  A    between atoms: C_8  and  C_26
REMARK    3  A    between atoms: C_8  and  C_27
REMARK    4  A    between atoms: C_9  and  C_16
REMARK    5  A    between atoms: C_17  and  C_18
REMARK    6  A    between atoms: C_21  and  O_24
REMARK    7  A    between atoms: O_24  and  C_25
REMARK                            x       y       z     vdW  Elec       q    Type
REMARK                         _______ _______ _______ _____ _____    ______ ____
ROOT
ATOM      1  C   UNL     1      -0.018   1.503   0.010  0.00  0.00    +0.044 C 
ATOM      2  C   UNL     1       0.002  -0.004   0.002  0.00  0.00    -0.050 A 
ATOM      3  C   UNL     1       0.006  -0.691  -1.198  0.00  0.00    +0.005 A 
ATOM      4  C   UNL     1       0.014  -2.069  -1.209  0.00  0.00    +0.024 A 
ATOM      5  C   UNL     1       0.027  -2.785  -0.011  0.00  0.00    +0.035 A 
ATOM      6  C   UNL     1       0.041  -2.085   1.189  0.00  0.00    -0.016 A 
ATOM      7  C   UNL     1       0.023  -0.704   1.194  0.00  0.00    +0.009 A 
ATOM      8  C   UNL     1       0.109  -3.080   2.328  0.00  0.00    +0.034 C 
ATOM      9  C   UNL     1       0.237  -4.441   1.635  0.00  0.00    +0.130 C 
ATOM     10  N   UNL     1      -0.005  -4.156   0.211  0.00  0.00    -0.304 N 
ATOM     11  C   UNL     1      -0.300  -5.224  -0.757  0.00  0.00    +0.117 C 
ATOM     12  C   UNL     1      -1.554  -5.946  -0.248  0.00  0.00    +0.115 C 
ATOM     13  C   UNL     1      -1.527  -6.097   1.241  0.00  0.00    +0.216 C 
ATOM     14  O   UNL     1      -2.242  -6.951   1.722  0.00  0.00    -0.276 OA
ATOM     15  N   UNL     1      -0.786  -5.378   2.087  0.00  0.00    -0.290 N 
ATOM     16  C   UNL     1      -1.171  -3.024   3.164  0.00  0.00    +0.020 C 
ATOM     17  C   UNL     1       1.334  -2.808   3.204  0.00  0.00    +0.020 C 
ATOM     18  H   UNL     1      -0.934  -5.482   3.040  0.00  0.00    +0.151 HD
ENDROOT
BRANCH   9  19
ATOM     19  C   UNL     1       1.613  -5.017   1.853  0.00  0.00    +0.020 C 
ATOM     20  C   UNL     1       1.753  -6.184   2.467  0.00  0.00    +0.007 C 
BRANCH  20  21
ATOM     21  C   UNL     1       3.102  -6.749   2.681  0.00  0.00    -0.025 A 
ATOM     22  C   UNL     1       4.229  -6.053   2.242  0.00  0.00    +0.011 A 
ATOM     23  C   UNL     1       5.486  -6.583   2.443  0.00  0.00    +0.046 A 
ATOM     24  C   UNL     1       5.630  -7.808   3.081  0.00  0.00    +0.120 A 
ATOM     25  C   UNL     1       4.511  -8.503   3.519  0.00  0.00    +0.046 A 
ATOM     26  C   UNL     1       3.252  -7.977   3.327  0.00  0.00    +0.011 A 
BRANCH  24  27
ATOM     27  O   UNL     1       6.870  -8.328   3.277  0.00  0.00    -0.495 OA
ATOM     28  C   UNL     1       6.947  -9.591   3.940  0.00  0.00    +0.277 C 
ENDBRANCH  24  27
ENDBRANCH  20  21
ENDBRANCH   9  19
TORSDOF 3
