REMARK  Name = ZINC38685099
REMARK  7 active torsions:
REMARK  status: ('A' for Active; 'I' for Inactive)
REMARK    1  A    between atoms: C_1  and  O_2
REMARK    2  A    between atoms: O_2  and  C_3
REMARK    3  A    between atoms: C_3  and  C_5
REMARK    4  A    between atoms: C_7  and  N_16
REMARK    5  A    between atoms: C_17  and  C_19
REMARK    6  A    between atoms: C_19  and  N_20
REMARK    7  A    between atoms: C_26  and  C_28
REMARK                            x       y       z     vdW  Elec       q    Type
REMARK                         _______ _______ _______ _____ _____    ______ ____
ROOT
ATOM      1  N   UNL     1       0.055  -2.571  -1.972  0.00  0.00    -0.285 N 
ATOM      2  C   UNL     1       0.140  -2.974  -3.255  0.00  0.00    +0.231 C 
ATOM      3  O   UNL     1      -0.845  -3.394  -3.825  0.00  0.00    -0.274 OA
ATOM      4  H   UNL     1       0.820  -2.159  -1.541  0.00  0.00    +0.155 HD
ENDROOT
BRANCH   1   6
ATOM      5  C   UNL     1      -2.326  -3.521  -1.720  0.00  0.00    +0.234 C 
ATOM      6  C   UNL     1      -1.106  -2.743  -1.279  0.00  0.00    +0.053 C 
ATOM      7  C   UNL     1      -1.413  -2.242  -0.026  0.00  0.00    +0.019 A 
ATOM      8  C   UNL     1      -0.684  -1.444   0.889  0.00  0.00    +0.026 A 
ATOM      9  C   UNL     1      -1.246  -1.095   2.073  0.00  0.00    +0.019 A 
ATOM     10  C   UNL     1      -2.538  -1.503   2.420  0.00  0.00    +0.017 A 
ATOM     11  C   UNL     1      -3.293  -2.267   1.594  0.00  0.00    +0.027 A 
ATOM     12  C   UNL     1      -2.774  -2.674   0.337  0.00  0.00    +0.045 A 
ATOM     13  N   UNL     1      -3.298  -3.403  -0.629  0.00  0.00    -0.367 N 
ATOM     14 BR   UNL     1      -0.260  -0.029   3.284  0.00  0.00    -0.050 Br
ATOM     15  H   UNL     1      -4.184  -3.799  -0.620  0.00  0.00    +0.161 HD
BRANCH   5  16
ATOM     16  C   UNL     1      -1.967  -4.968  -1.942  0.00  0.00    +0.335 C 
ATOM     17  O   UNL     1      -2.095  -5.766  -1.044  0.00  0.00    -0.248 OA
BRANCH  16  19
ATOM     18  C   UNL     1      -1.183  -6.754  -3.275  0.00  0.00    +0.280 C 
ATOM     19  O   UNL     1      -1.504  -5.369  -3.136  0.00  0.00    -0.466 OA
ENDBRANCH  16  19
ENDBRANCH   5  16
ENDBRANCH   1   6
BRANCH   2  20
ATOM     20  C   UNL     1       1.458  -2.903  -3.981  0.00  0.00    +0.180 C 
BRANCH  20  21
ATOM     21  N   UNL     1       1.287  -3.395  -5.355  0.00  0.00    -0.291 NA
ATOM     22  C   UNL     1       0.952  -4.826  -5.363  0.00  0.00    +0.104 C 
ATOM     23  C   UNL     1       0.606  -5.257  -6.792  0.00  0.00    +0.123 C 
ATOM     24  N   UNL     1       1.716  -4.873  -7.678  0.00  0.00    -0.293 N 
ATOM     25  C   UNL     1       2.200  -3.485  -7.626  0.00  0.00    +0.123 C 
ATOM     26  C   UNL     1       2.483  -3.123  -6.164  0.00  0.00    +0.104 C 
ATOM     27  C   UNL     1       2.274  -5.769  -8.516  0.00  0.00    +0.282 C 
ATOM     28  O   UNL     1       1.942  -6.939  -8.465  0.00  0.00    -0.267 OA
BRANCH  27  29
ATOM     29  C   UNL     1       3.283  -5.335  -9.488  0.00  0.00    +0.189 A 
ATOM     30  C   UNL     1       3.857  -6.114 -10.451  0.00  0.00    +0.054 A 
ATOM     31  C   UNL     1       4.758  -5.295 -11.149  0.00  0.00    +0.042 A 
ATOM     32  C   UNL     1       4.694  -4.067 -10.589  0.00  0.00    +0.196 A 
ATOM     33  O   UNL     1       3.801  -4.093  -9.592  0.00  0.00    -0.458 OA
ENDBRANCH  27  29
ENDBRANCH  20  21
ENDBRANCH   2  20
TORSDOF 6
