REMARK  Name = ZINC29678673
REMARK  8 active torsions:
REMARK  status: ('A' for Active; 'I' for Inactive)
REMARK    1  A    between atoms: C_1  and  C_2
REMARK    2  A    between atoms: C_3  and  C_8
REMARK    3  A    between atoms: C_4  and  C_7
REMARK    4  A    between atoms: C_8  and  S_9
REMARK    5  A    between atoms: S_9  and  C_10
REMARK    6  A    between atoms: C_10  and  C_12
REMARK    7  A    between atoms: C_10  and  C_13
REMARK    8  A    between atoms: N_19  and  C_20
REMARK                            x       y       z     vdW  Elec       q    Type
REMARK                         _______ _______ _______ _____ _____    ______ ____
ROOT
ATOM      1  C   UNL     1      -2.434   7.890  -0.239  0.00  0.00    +0.149 A 
ATOM      2  N   UNL     1      -3.574   7.222  -0.232  0.00  0.00    -0.198 NA
ATOM      3  C   UNL     1      -3.569   5.894  -0.138  0.00  0.00    +0.217 A 
ATOM      4  N   UNL     1      -2.415   5.240  -0.052  0.00  0.00    -0.181 NA
ATOM      5  C   UNL     1      -1.271   5.915  -0.060  0.00  0.00    +0.224 A 
ATOM      6  N   UNL     1      -1.285   7.244  -0.148  0.00  0.00    -0.198 NA
ATOM      7  N   UNL     1      -0.069   5.241   0.029  0.00  0.00    -0.284 N 
ATOM      8  N   UNL     1      -4.760   5.197  -0.131  0.00  0.00    -0.327 N 
ATOM      9  H   UNL     1       0.872   5.803   0.114  0.00  0.00    +0.155 HD
ATOM     10  H   UNL     1      -4.755   4.100  -0.053  0.00  0.00    +0.145 HD
ATOM     11  H   UNL     1      -5.715   5.739  -0.202  0.00  0.00    +0.145 HD
ENDROOT
BRANCH   7  12
ATOM     12  C   UNL     1      -0.049   3.843   0.012  0.00  0.00    +0.034 A 
ATOM     13  C   UNL     1       0.908   3.151   0.742  0.00  0.00    +0.023 A 
ATOM     14  C   UNL     1       0.926   1.770   0.722  0.00  0.00    +0.002 A 
ATOM     15  C   UNL     1      -0.009   1.076  -0.024  0.00  0.00    +0.000 A 
ATOM     16  C   UNL     1      -0.961   1.762  -0.757  0.00  0.00    +0.002 A 
ATOM     17  C   UNL     1      -0.987   3.143  -0.736  0.00  0.00    +0.023 A 
ENDBRANCH   7  12
BRANCH   1  18
ATOM     18  C   UNL     1      -2.444   9.393  -0.345  0.00  0.00    +0.111 C 
ATOM     19  C   UNL     1      -2.869   9.996   0.995  0.00  0.00    +0.027 C 
BRANCH  18  20
ATOM     20  S   UNL     1      -3.615   9.900  -1.635  0.00  0.00    -0.145 S 
BRANCH  20  21
ATOM     21  C   UNL     1      -3.399  11.698  -1.742  0.00  0.00    +0.110 C 
BRANCH  21  24
ATOM     22  C   UNL     1      -2.794  12.117  -4.902  0.00  0.00    +0.069 C 
ATOM     23  C   UNL     1      -4.071  12.440  -4.169  0.00  0.00    +0.085 A 
ATOM     24  C   UNL     1      -4.327  12.254  -2.791  0.00  0.00    +0.027 A 
ATOM     25  C   UNL     1      -5.597  12.696  -2.632  0.00  0.00    +0.138 A 
ATOM     26  O   UNL     1      -6.015  13.095  -3.841  0.00  0.00    -0.359 OA
ATOM     27  N   UNL     1      -5.157  12.942  -4.680  0.00  0.00    -0.083 NA
ATOM     28  C   UNL     1      -6.385  12.733  -1.347  0.00  0.00    +0.089 C 
ENDBRANCH  21  24
ENDBRANCH  20  21
ENDBRANCH  18  20
ENDBRANCH   1  18
TORSDOF 5
