REMARK  Name = ZINC20873208
REMARK  13 active torsions:
REMARK  status: ('A' for Active; 'I' for Inactive)
REMARK    1  A    between atoms: C_1  and  C_2
REMARK    2  A    between atoms: C_2  and  C_3
REMARK    3  A    between atoms: C_3  and  C_5
REMARK    4  A    between atoms: C_3  and  N_6
REMARK    5  A    between atoms: N_6  and  C_7
REMARK    6  A    between atoms: C_7  and  C_8
REMARK    7  A    between atoms: C_13  and  O_14
REMARK    8  A    between atoms: O_14  and  C_15
REMARK    9  A    between atoms: C_15  and  C_16
REMARK   10  A    between atoms: N_18  and  C_19
REMARK   11  A    between atoms: C_19  and  C_20
REMARK   12  A    between atoms: C_19  and  C_21
REMARK   13  A    between atoms: C_19  and  C_22
REMARK                            x       y       z     vdW  Elec       q    Type
REMARK                         _______ _______ _______ _____ _____    ______ ____
ROOT
ATOM      1  C   UNL     1       3.320   2.622   1.311  0.00  0.00    -0.022 A 
ATOM      2  C   UNL     1       4.386   1.746   1.382  0.00  0.00    +0.020 A 
ATOM      3  C   UNL     1       5.682   2.227   1.335  0.00  0.00    +0.018 A 
ATOM      4  C   UNL     1       5.913   3.587   1.218  0.00  0.00    +0.019 A 
ATOM      5  C   UNL     1       4.850   4.465   1.147  0.00  0.00    +0.047 A 
ATOM      6  C   UNL     1       3.549   3.984   1.187  0.00  0.00    +0.123 A 
ATOM      7 BR   UNL     1       7.139   1.026   1.432  0.00  0.00    -0.050 Br
ENDROOT
BRANCH   1   8
ATOM      8  C   UNL     1       1.908   2.097   1.361  0.00  0.00    -0.043 C 
BRANCH   8   9
ATOM      9  N   UNL     1       1.359   2.034   0.000  0.00  0.00    +0.383 N 
ATOM     10  H   UNL     1       1.992   1.367  -0.605  0.00  0.00    -0.085 HD
ATOM     11  H   UNL     1       1.374   3.045  -0.433  0.00  0.00    -0.085 HD
BRANCH   9  12
ATOM     12  C   UNL     1      -0.019   1.526   0.010  0.00  0.00    -0.075 C 
ATOM     13  C   UNL     1       0.002  -0.004   0.002  0.00  0.00    -0.014 C 
BRANCH  12  15
ATOM     14  C   UNL     1      -0.888   3.555  -1.158  0.00  0.00    +0.002 C 
ATOM     15  C   UNL     1      -0.759   2.033  -1.229  0.00  0.00    -0.019 C 
ENDBRANCH  12  15
ENDBRANCH   9  12
ENDBRANCH   8   9
ENDBRANCH   1   8
BRANCH   6  16
ATOM     16  O   UNL     1       2.502   4.847   1.111  0.00  0.00    -0.483 OA
BRANCH  16  17
ATOM     17  C   UNL     1       2.813   6.236   0.985  0.00  0.00    +0.324 C 
BRANCH  17  18
ATOM     18  C   UNL     1       1.536   7.033   0.915  0.00  0.00    +0.251 C 
ATOM     19  O   UNL     1       0.465   6.467   0.968  0.00  0.00    -0.272 OA
ATOM     20  N   UNL     1       1.584   8.374   0.794  0.00  0.00    -0.308 N 
ATOM     21  H   UNL     1       2.556   8.887   0.746  0.00  0.00    +0.149 HD
BRANCH  20  22
ATOM     22  C   UNL     1       0.343   9.149   0.726  0.00  0.00    +0.026 C 
ATOM     23  C   UNL     1      -0.470   8.922   2.002  0.00  0.00    +0.031 C 
ATOM     24  C   UNL     1       0.676  10.636   0.591  0.00  0.00    +0.031 C 
ATOM     25  C   UNL     1      -0.475   8.697  -0.486  0.00  0.00    +0.031 C 
ENDBRANCH  20  22
ENDBRANCH  17  18
ENDBRANCH  16  17
ENDBRANCH   6  16
TORSDOF 8
