REMARK  Name = ZINC14093606
REMARK  7 active torsions:
REMARK  status: ('A' for Active; 'I' for Inactive)
REMARK    1  A    between atoms: C_1  and  C_2
REMARK    2  A    between atoms: N_11  and  C_15
REMARK    3  A    between atoms: C_15  and  C_16
REMARK    4  A    between atoms: N_18  and  C_19
REMARK    5  A    between atoms: C_23  and  C_25
REMARK    6  A    between atoms: C_25  and  C_26
REMARK    7  A    between atoms: C_25  and  C_27
REMARK                            x       y       z     vdW  Elec       q    Type
REMARK                         _______ _______ _______ _____ _____    ______ ____
ROOT
ATOM      1  C   UNL     1       3.543  10.962   1.255  0.00  0.00    +0.010 C 
ATOM      2  C   UNL     1       4.682  10.034   1.683  0.00  0.00    +0.018 C 
ATOM      3  C   UNL     1       4.712   9.935   3.210  0.00  0.00    +0.006 C 
ATOM      4  C   UNL     1       5.837   8.991   3.637  0.00  0.00    +0.000 C 
ATOM      5  C   UNL     1       5.587   7.600   3.050  0.00  0.00    +0.003 C 
ATOM      6  C   UNL     1       5.561   7.689   1.522  0.00  0.00    +0.035 C 
ATOM      7  C   UNL     1       4.459   8.649   1.085  0.00  0.00    +0.115 C 
ATOM      8  C   UNL     1       3.102   8.118   1.484  0.00  0.00    +0.247 C 
ATOM      9  O   UNL     1       2.701   7.897   2.607  0.00  0.00    -0.273 OA
ATOM     10  N   UNL     1       2.430   7.940   0.328  0.00  0.00    -0.215 N 
ATOM     11  C   UNL     1       3.171   8.290  -0.731  0.00  0.00    +0.310 C 
ATOM     12  O   UNL     1       2.781   8.223  -1.880  0.00  0.00    -0.252 OA
ATOM     13  N   UNL     1       4.396   8.726  -0.380  0.00  0.00    -0.285 N 
ATOM     14  H   UNL     1       5.097   9.029  -0.977  0.00  0.00    +0.151 HD
ENDROOT
BRANCH  10  15
ATOM     15  C   UNL     1       1.059   7.433   0.242  0.00  0.00    +0.214 C 
BRANCH  15  16
ATOM     16  C   UNL     1       1.085   5.931   0.122  0.00  0.00    +0.235 C 
ATOM     17  O   UNL     1       2.146   5.342   0.109  0.00  0.00    -0.274 OA
ATOM     18  N   UNL     1      -0.069   5.242   0.028  0.00  0.00    -0.284 N 
ATOM     19  H   UNL     1      -0.913   5.715  -0.039  0.00  0.00    +0.155 HD
BRANCH  18  20
ATOM     20  C   UNL     1      -0.051   3.842   0.028  0.00  0.00    +0.034 A 
ATOM     21  C   UNL     1       0.907   3.159   0.765  0.00  0.00    +0.023 A 
ATOM     22  C   UNL     1       0.923   1.778   0.762  0.00  0.00    +0.002 A 
ATOM     23  C   UNL     1      -0.013   1.076   0.025  0.00  0.00    +0.004 A 
ATOM     24  C   UNL     1      -0.965   1.753  -0.714  0.00  0.00    -0.043 A 
ATOM     25  C   UNL     1      -0.990   3.134  -0.711  0.00  0.00    +0.027 A 
BRANCH  24  26
ATOM     26  C   UNL     1      -1.980   0.984  -1.520  0.00  0.00    +0.013 C 
ATOM     27  C   UNL     1      -1.259   0.115  -2.552  0.00  0.00    +0.012 C 
ATOM     28  C   UNL     1      -2.802   0.092  -0.587  0.00  0.00    +0.012 C 
ENDBRANCH  24  26
ENDBRANCH  18  20
ENDBRANCH  15  16
ENDBRANCH  10  15
TORSDOF 4
