REMARK  Name = ZINC35897722
REMARK  11 active torsions:
REMARK  status: ('A' for Active; 'I' for Inactive)
REMARK    1  A    between atoms: C_1  and  C_2
REMARK    2  A    between atoms: C_2  and  C_41
REMARK    3  A    between atoms: C_10  and  C_38
REMARK    4  A    between atoms: C_12  and  C_14
REMARK    5  A    between atoms: N_16  and  C_17
REMARK    6  A    between atoms: C_18  and  C_25
REMARK    7  A    between atoms: N_27  and  C_28
REMARK    8  A    between atoms: C_30  and  O_36
REMARK    9  A    between atoms: C_33  and  O_34
REMARK   10  A    between atoms: O_34  and  C_35
REMARK   11  A    between atoms: O_36  and  C_37
REMARK                            x       y       z     vdW  Elec       q    Type
REMARK                         _______ _______ _______ _____ _____    ______ ____
ROOT
ATOM      1  C   UNL     1      -1.810  -5.274   4.139  0.00  0.00    +0.084 A 
ATOM      2  C   UNL     1      -2.754  -5.851   4.968  0.00  0.00    +0.069 A 
ATOM      3  C   UNL     1      -2.386  -7.097   5.638  0.00  0.00    -0.023 A 
ATOM      4  C   UNL     1      -1.144  -7.527   5.353  0.00  0.00    -0.004 A 
ATOM      5  S   UNL     1      -0.500  -6.318   4.224  0.00  0.00    -0.077 S 
ATOM      6  C   UNL     1      -0.815  -8.808   6.071  0.00  0.00    +0.043 C 
ATOM      7  C   UNL     1      -1.873  -8.909   7.193  0.00  0.00    +0.010 C 
ATOM      8  C   UNL     1      -3.036  -8.085   6.604  0.00  0.00    +0.037 C 
ENDROOT
BRANCH   1  11
ATOM      9  C   UNL     1      -0.894  -3.691   2.635  0.00  0.00    +0.222 C 
ATOM     10  O   UNL     1       0.129  -4.340   2.590  0.00  0.00    -0.275 OA
ATOM     11  N   UNL     1      -1.922  -4.106   3.401  0.00  0.00    -0.279 N 
ATOM     12  H   UNL     1      -2.741  -3.586   3.437  0.00  0.00    +0.155 HD
BRANCH   9  21
ATOM     13  C   UNL     1      -2.591   0.414  -1.486  0.00  0.00    +0.039 C 
ATOM     14  C   UNL     1      -2.832  -0.102  -0.091  0.00  0.00    -0.076 C 
ATOM     15  C   UNL     1      -2.411  -1.294   0.249  0.00  0.00    -0.063 C 
ATOM     16  C   UNL     1      -2.515  -2.079   1.577  0.00  0.00    +0.028 C 
ATOM     17  C   UNL     1      -3.164  -3.407   1.081  0.00  0.00    +0.009 C 
ATOM     18  C   UNL     1      -2.583  -3.607  -0.339  0.00  0.00    +0.009 C 
ATOM     19  C   UNL     1      -1.653  -2.380  -0.547  0.00  0.00    +0.030 C 
ATOM     20  C   UNL     1      -0.438  -2.640   0.395  0.00  0.00    +0.122 C 
ATOM     21  C   UNL     1      -1.016  -2.421   1.833  0.00  0.00    +0.097 C 
ATOM     22  C   UNL     1      -3.559   0.755   0.914  0.00  0.00    +0.039 C 
BRANCH  20  23
ATOM     23  C   UNL     1       0.070  -4.048   0.225  0.00  0.00    +0.360 C 
ATOM     24  O   UNL     1       1.157  -4.246  -0.291  0.00  0.00    -0.246 OA
ATOM     25  O   UNL     1      -0.606  -4.990   0.602  0.00  0.00    -0.246 OA
ENDBRANCH  20  23
ENDBRANCH   9  21
ENDBRANCH   1  11
BRANCH   2  26
ATOM     26  C   UNL     1      -4.071  -5.237   5.167  0.00  0.00    +0.251 C 
ATOM     27  O   UNL     1      -4.997  -5.533   4.435  0.00  0.00    -0.270 OA
ATOM     28  N   UNL     1      -4.255  -4.346   6.160  0.00  0.00    -0.278 N 
ATOM     29  H   UNL     1      -3.501  -4.051   6.694  0.00  0.00    +0.155 HD
BRANCH  28  30
ATOM     30  C   UNL     1      -5.537  -3.844   6.422  0.00  0.00    +0.079 A 
ATOM     31  C   UNL     1      -6.657  -4.574   6.054  0.00  0.00    +0.072 A 
ATOM     32  C   UNL     1      -7.924  -4.075   6.314  0.00  0.00    +0.122 A 
ATOM     33  C   UNL     1      -8.072  -2.847   6.942  0.00  0.00    +0.049 A 
ATOM     34  C   UNL     1      -6.957  -2.118   7.311  0.00  0.00    +0.051 A 
ATOM     35  C   UNL     1      -5.688  -2.614   7.059  0.00  0.00    +0.141 A 
BRANCH  35  36
ATOM     36  O   UNL     1      -4.591  -1.899   7.427  0.00  0.00    -0.493 OA
ATOM     37  C   UNL     1      -4.822  -0.646   8.075  0.00  0.00    +0.277 C 
ENDBRANCH  35  36
BRANCH  32  38
ATOM     38  O   UNL     1      -9.023  -4.790   5.953  0.00  0.00    -0.495 OA
ATOM     39  C   UNL     1     -10.297  -4.216   6.252  0.00  0.00    +0.277 C 
ENDBRANCH  32  38
ENDBRANCH  28  30
ENDBRANCH   2  26
TORSDOF 7
