REMARK  Name = ZINC64131785
REMARK  6 active torsions:
REMARK  status: ('A' for Active; 'I' for Inactive)
REMARK    1  A    between atoms: C_1  and  C_2
REMARK    2  A    between atoms: C_2  and  C_3
REMARK    3  A    between atoms: C_2  and  N_4
REMARK    4  A    between atoms: C_6  and  C_9
REMARK    5  A    between atoms: N_23  and  C_24
REMARK    6  A    between atoms: C_24  and  C_25
REMARK                            x       y       z     vdW  Elec       q    Type
REMARK                         _______ _______ _______ _____ _____    ______ ____
ROOT
ATOM      1  C   UNL     1       3.655  -1.428   3.124  0.00  0.00    -0.007 C 
ATOM      2  C   UNL     1       4.172  -0.229   3.923  0.00  0.00    +0.097 C 
ATOM      3  C   UNL     1       3.230  -0.074   5.112  0.00  0.00    -0.041 C 
ATOM      4  C   UNL     1       2.804   1.180   5.092  0.00  0.00    -0.001 A 
ATOM      5  C   UNL     1       1.956   1.945   6.021  0.00  0.00    +0.010 A 
ATOM      6  C   UNL     1       1.701   3.235   5.677  0.00  0.00    +0.001 A 
ATOM      7  C   UNL     1       2.198   3.834   4.516  0.00  0.00    +0.002 A 
ATOM      8  C   UNL     1       2.990   3.209   3.609  0.00  0.00    +0.026 A 
ATOM      9  C   UNL     1       3.333   1.849   3.864  0.00  0.00    +0.043 A 
ATOM     10  N   UNL     1       4.097   1.024   3.175  0.00  0.00    -0.379 N 
ATOM     11  C   UNL     1       2.869  -1.248   5.989  0.00  0.00    +0.015 C 
ATOM     12  C   UNL     1       2.502  -2.399   5.034  0.00  0.00    -0.073 C 
ATOM     13  N   UNL     1       3.555  -2.582   4.031  0.00  0.00    +0.389 N 
ATOM     14  H   UNL     1       4.530   1.206   2.326  0.00  0.00    +0.160 HD
ATOM     15  H   UNL     1       4.438  -2.707   4.502  0.00  0.00    -0.080 HD
ENDROOT
BRANCH   1  18
ATOM     16  N   UNL     1       0.641  -0.848   1.157  0.00  0.00    -0.269 N 
ATOM     17  C   UNL     1       1.932  -1.226   1.256  0.00  0.00    +0.110 A 
ATOM     18  C   UNL     1       2.297  -1.111   2.554  0.00  0.00    -0.021 A 
ATOM     19  C   UNL     1       1.191  -0.645   3.272  0.00  0.00    +0.136 A 
ATOM     20  N   UNL     1       0.199  -0.481   2.435  0.00  0.00    -0.179 NA
BRANCH  16  22
ATOM     21  C   UNL     1       0.085   0.502  -0.806  0.00  0.00    +0.032 C 
ATOM     22  C   UNL     1      -0.157  -0.818  -0.072  0.00  0.00    +0.101 C 
ATOM     23  C   UNL     1       0.252  -1.985  -0.973  0.00  0.00    +0.032 C 
ENDBRANCH  16  22
ENDBRANCH   1  18
BRANCH  13  24
ATOM     24  C   UNL     1       3.261  -3.785   3.242  0.00  0.00    -0.042 C 
BRANCH  24  25
ATOM     25  C   UNL     1       3.276  -4.993   4.143  0.00  0.00    -0.060 A 
ATOM     26  C   UNL     1       4.455  -5.688   4.345  0.00  0.00    +0.005 A 
ATOM     27  C   UNL     1       4.473  -6.797   5.170  0.00  0.00    +0.049 A 
ATOM     28  C   UNL     1       3.309  -7.215   5.797  0.00  0.00    +0.162 A 
ATOM     29  C   UNL     1       2.125  -6.516   5.596  0.00  0.00    +0.162 A 
ATOM     30  C   UNL     1       2.115  -5.401   4.770  0.00  0.00    +0.051 A 
ATOM     31  O   UNL     1       0.973  -6.905   6.207  0.00  0.00    -0.485 OA
ATOM     32  C   UNL     1       0.942  -8.236   6.733  0.00  0.00    +0.270 C 
ATOM     33  C   UNL     1       2.244  -8.478   7.508  0.00  0.00    +0.270 C 
ATOM     34  O   UNL     1       3.341  -8.312   6.603  0.00  0.00    -0.485 OA
ENDBRANCH  24  25
ENDBRANCH  13  24
TORSDOF 4
