REMARK  Name = ZINC19922700
REMARK  10 active torsions:
REMARK  status: ('A' for Active; 'I' for Inactive)
REMARK    1  A    between atoms: C_4  and  C_7
REMARK    2  A    between atoms: C_7  and  O_8
REMARK    3  A    between atoms: O_8  and  C_9
REMARK    4  A    between atoms: C_14  and  C_15
REMARK    5  A    between atoms: C_15  and  N_16
REMARK    6  A    between atoms: N_16  and  C_17
REMARK    7  A    between atoms: C_17  and  C_18
REMARK    8  A    between atoms: C_18  and  C_19
REMARK    9  A    between atoms: C_22  and  S_25
REMARK   10  A    between atoms: S_25  and  N_28
REMARK                            x       y       z     vdW  Elec       q    Type
REMARK                         _______ _______ _______ _____ _____    ______ ____
ROOT
ATOM      1  C   UNL     1       5.009  -1.429   3.948  0.00  0.00    +0.120 C 
ENDROOT
BRANCH   1   7
ATOM      2  C   UNL     1       5.319  -1.605   1.467  0.00  0.00    +0.125 A 
ATOM      3  C   UNL     1       6.048  -2.007   0.357  0.00  0.00    +0.047 A 
ATOM      4  C   UNL     1       7.245  -2.677   0.524  0.00  0.00    +0.023 A 
ATOM      5  C   UNL     1       7.716  -2.946   1.797  0.00  0.00    +0.041 A 
ATOM      6  C   UNL     1       6.990  -2.546   2.905  0.00  0.00    +0.028 A 
ATOM      7  C   UNL     1       5.796  -1.871   2.742  0.00  0.00    +0.009 A 
ATOM      8 CL   UNL     1       9.220  -3.788   2.005  0.00  0.00    -0.084 Cl
BRANCH   2   9
ATOM      9  O   UNL     1       4.141  -0.946   1.304  0.00  0.00    -0.487 OA
BRANCH   9  10
ATOM     10  C   UNL     1       3.711  -0.707  -0.038  0.00  0.00    +0.264 C 
BRANCH  10  14
ATOM     11  C   UNL     1      -0.017   1.378   0.010  0.00  0.00    +0.000 A 
ATOM     12  C   UNL     1       1.171   2.086   0.002  0.00  0.00    +0.000 A 
ATOM     13  C   UNL     1       2.377   1.411  -0.013  0.00  0.00    +0.007 A 
ATOM     14  C   UNL     1       2.396   0.029  -0.020  0.00  0.00    -0.010 A 
ATOM     15  C   UNL     1       1.208  -0.679  -0.012  0.00  0.00    +0.007 A 
ATOM     16  C   UNL     1       0.002  -0.004   0.002  0.00  0.00    +0.000 A 
ENDBRANCH  10  14
ENDBRANCH   9  10
ENDBRANCH   2   9
ENDBRANCH   1   7
BRANCH   1  17
ATOM     17  N   UNL     1       3.918  -2.381   4.198  0.00  0.00    -0.312 NA
ATOM     18  H   UNL     1       3.332  -2.481   3.383  0.00  0.00    +0.122 HD
BRANCH  17  19
ATOM     19  C   UNL     1       3.128  -1.982   5.369  0.00  0.00    +0.086 C 
BRANCH  19  20
ATOM     20  C   UNL     1       2.005  -2.995   5.597  0.00  0.00    +0.050 C 
BRANCH  20  21
ATOM     21  C   UNL     1       1.194  -2.585   6.799  0.00  0.00    -0.046 A 
ATOM     22  C   UNL     1       1.547  -3.035   8.057  0.00  0.00    +0.005 A 
ATOM     23  C   UNL     1       0.803  -2.659   9.160  0.00  0.00    +0.029 A 
ATOM     24  C   UNL     1      -0.294  -1.833   9.004  0.00  0.00    +0.105 A 
ATOM     25  C   UNL     1      -0.647  -1.383   7.746  0.00  0.00    +0.029 A 
ATOM     26  C   UNL     1       0.099  -1.755   6.644  0.00  0.00    +0.005 A 
BRANCH  24  27
ATOM     27  S   UNL     1      -1.243  -1.354  10.410  0.00  0.00    +0.056 S 
ATOM     28  O   UNL     1      -2.539  -1.021   9.931  0.00  0.00    -0.153 OA
ATOM     29  O   UNL     1      -1.030  -2.349  11.402  0.00  0.00    -0.153 OA
BRANCH  27  30
ATOM     30  N   UNL     1      -0.581   0.046  10.994  0.00  0.00    -0.204 NA
ATOM     31  H   UNL     1       0.191   0.438  10.556  0.00  0.00    +0.144 HD
ATOM     32  H   UNL     1      -0.964   0.475  11.775  0.00  0.00    +0.144 HD
ENDBRANCH  27  30
ENDBRANCH  24  27
ENDBRANCH  20  21
ENDBRANCH  19  20
ENDBRANCH  17  19
ENDBRANCH   1  17
TORSDOF 10
