REMARK  Name = ZINC05591947
REMARK  10 active torsions:
REMARK  status: ('A' for Active; 'I' for Inactive)
REMARK    1  A    between atoms: C_1  and  C_2
REMARK    2  A    between atoms: C_2  and  O_3
REMARK    3  A    between atoms: O_3  and  C_4
REMARK    4  A    between atoms: C_5  and  C_6
REMARK    5  A    between atoms: C_6  and  O_34
REMARK    6  A    between atoms: C_11  and  C_33
REMARK    7  A    between atoms: C_22  and  C_32
REMARK    8  A    between atoms: C_25  and  O_28
REMARK    9  A    between atoms: O_28  and  C_29
REMARK   10  A    between atoms: C_29  and  C_31
REMARK                            x       y       z     vdW  Elec       q    Type
REMARK                         _______ _______ _______ _____ _____    ______ ____
ROOT
ATOM      1  C   UNL     1       0.846  -6.170  -0.925  0.00  0.00    +0.134 C 
ATOM      2  C   UNL     1       1.383  -6.096  -2.366  0.00  0.00    +0.049 C 
ATOM      3  C   UNL     1       1.801  -4.626  -2.606  0.00  0.00    +0.008 C 
ATOM      4  C   UNL     1       2.045  -4.086  -1.185  0.00  0.00    +0.002 C 
ATOM      5  C   UNL     1       0.919  -4.727  -0.358  0.00  0.00    +0.011 C 
ATOM      6  C   UNL     1      -0.422  -4.061  -0.682  0.00  0.00    +0.011 C 
ATOM      7  C   UNL     1      -0.330  -2.554  -0.463  0.00  0.00    +0.005 C 
ATOM      8  C   UNL     1       0.702  -1.970  -1.436  0.00  0.00    -0.001 C 
ATOM      9  C   UNL     1       2.066  -2.575  -1.137  0.00  0.00    -0.004 C 
ATOM     10  C   UNL     1       3.137  -2.054  -2.096  0.00  0.00    +0.004 C 
ATOM     11  C   UNL     1       2.951  -0.560  -2.364  0.00  0.00    +0.004 C 
ATOM     12  C   UNL     1       2.174   0.040  -1.199  0.00  0.00    -0.001 C 
ATOM     13  C   UNL     1       0.728  -0.457  -1.264  0.00  0.00    -0.026 C 
ATOM     14  C   UNL     1       0.002  -0.004   0.002  0.00  0.00    +0.011 C 
ATOM     15  C   UNL     1      -0.019   1.531   0.011  0.00  0.00    +0.045 C 
ATOM     16  C   UNL     1       1.409   2.076  -0.000  0.00  0.00    +0.177 C 
ATOM     17  C   UNL     1       2.168   1.566  -1.230  0.00  0.00    +0.048 C 
ATOM     18  C   UNL     1       0.055   0.190  -2.476  0.00  0.00    +0.012 C 
ATOM     19  C   UNL     1       1.216  -4.712   1.143  0.00  0.00    +0.015 C 
ENDROOT
BRANCH   1  21
ATOM     20  C   UNL     1       2.352  -7.793   0.524  0.00  0.00    +0.057 C 
ATOM     21  C   UNL     1       1.683  -7.073  -0.119  0.00  0.00    -0.037 C 
BRANCH  20  22
ATOM     22  O   UNL     1       3.123  -8.624   1.266  0.00  0.00    -0.298 OA
BRANCH  22  24
ATOM     23  C   UNL     1       4.016 -10.823   1.722  0.00  0.00    +0.035 C 
ATOM     24  C   UNL     1       3.116  -9.980   0.816  0.00  0.00    +0.176 C 
ENDBRANCH  22  24
ENDBRANCH  20  22
ENDBRANCH   1  21
BRANCH   1  25
ATOM     25  O   UNL     1      -0.508  -6.628  -0.929  0.00  0.00    -0.376 OA
ATOM     26  H   UNL     1      -0.619  -7.525  -1.272  0.00  0.00    +0.211 HD
ENDBRANCH   1  25
BRANCH  16  27
ATOM     27  O   UNL     1       1.369   3.528  -0.029  0.00  0.00    -0.462 OA
BRANCH  27  28
ATOM     28  C   UNL     1       1.351   4.161   1.154  0.00  0.00    +0.304 C 
ATOM     29  O   UNL     1       1.369   3.523   2.180  0.00  0.00    -0.251 OA
ATOM     30  C   UNL     1       1.309   5.666   1.202  0.00  0.00    +0.136 C 
ENDBRANCH  27  28
ENDBRANCH  16  27
TORSDOF 6
