REMARK  Name = ZINC02732497
REMARK  7 active torsions:
REMARK  status: ('A' for Active; 'I' for Inactive)
REMARK    1  A    between atoms: C_1  and  C_2
REMARK    2  A    between atoms: C_4  and  C_28
REMARK    3  A    between atoms: N_5  and  C_7
REMARK    4  A    between atoms: C_7  and  C_8
REMARK    5  A    between atoms: C_8  and  C_9
REMARK    6  A    between atoms: N_18  and  C_20
REMARK    7  A    between atoms: C_20  and  C_21
REMARK                            x       y       z     vdW  Elec       q    Type
REMARK                         _______ _______ _______ _____ _____    ______ ____
ROOT
ATOM      1  C   UNL     1       5.890  -2.483  -0.064  0.00  0.00    +0.105 A 
ATOM      2  N   UNL     1       4.582  -2.646  -0.054  0.00  0.00    -0.145 NA
ATOM      3  N   UNL     1       3.784  -1.669  -0.042  0.00  0.00    -0.126 NA
ATOM      4  C   UNL     1       4.214  -0.414  -0.039  0.00  0.00    +0.187 A 
ATOM      5  S   UNL     1       5.982  -0.695  -0.064  0.00  0.00    -0.035 S 
ATOM      6  N   UNL     1       3.499   0.775  -0.026  0.00  0.00    -0.276 N 
ATOM      7  C   UNL     1       2.099   0.750  -0.014  0.00  0.00    +0.146 A 
ATOM      8  C   UNL     1       1.295  -0.401  -0.013  0.00  0.00    +0.065 A 
ATOM      9  C   UNL     1       0.002  -0.004   0.002  0.00  0.00    +0.110 A 
ATOM     10  N   UNL     1      -0.016   1.345   0.009  0.00  0.00    -0.265 N 
ATOM     11  N   UNL     1       1.310   1.798  -0.001  0.00  0.00    -0.156 NA
ATOM     12  H   UNL     1       3.969   1.623  -0.026  0.00  0.00    +0.156 HD
ENDROOT
BRANCH   1  13
ATOM     13  C   UNL     1       6.993  -3.510  -0.080  0.00  0.00    +0.088 C 
BRANCH  13  14
ATOM     14  C   UNL     1       7.353  -3.850  -1.528  0.00  0.00    +0.150 C 
BRANCH  14  19
ATOM     15  C   UNL     1      11.936  -5.897  -1.583  0.00  0.00    +0.069 C 
ATOM     16  C   UNL     1      10.439  -5.722  -1.567  0.00  0.00    +0.078 A 
ATOM     17  C   UNL     1       9.493  -6.753  -1.564  0.00  0.00    +0.084 A 
ATOM     18  C   UNL     1       8.263  -6.189  -1.549  0.00  0.00    +0.055 A 
ATOM     19  N   UNL     1       8.425  -4.848  -1.543  0.00  0.00    -0.267 N 
ATOM     20  N   UNL     1       9.800  -4.580  -1.560  0.00  0.00    -0.175 NA
ATOM     21  C   UNL     1       6.948  -6.924  -1.541  0.00  0.00    +0.067 C 
ATOM     22 CL   UNL     1       9.836  -8.454  -1.576  0.00  0.00    -0.080 Cl
ENDBRANCH  14  19
ENDBRANCH  13  14
ENDBRANCH   1  13
BRANCH  10  23
ATOM     23  C   UNL     1      -1.213   2.190   0.020  0.00  0.00    +0.180 C 
BRANCH  23  24
ATOM     24  C   UNL     1      -1.149   3.139   1.189  0.00  0.00    -0.008 A 
ATOM     25  C   UNL     1      -0.749   4.448   0.995  0.00  0.00    +0.007 A 
ATOM     26  C   UNL     1      -0.689   5.319   2.067  0.00  0.00    +0.000 A 
ATOM     27  C   UNL     1      -1.029   4.881   3.333  0.00  0.00    +0.001 A 
ATOM     28  C   UNL     1      -1.429   3.573   3.528  0.00  0.00    +0.020 A 
ATOM     29  C   UNL     1      -1.494   2.702   2.455  0.00  0.00    +0.046 A 
ATOM     30 CL   UNL     1      -2.004   1.060   2.698  0.00  0.00    -0.083 Cl
ENDBRANCH  23  24
ENDBRANCH  10  23
TORSDOF 5
