REMARK  Name = ZINC08915308
REMARK  8 active torsions:
REMARK  status: ('A' for Active; 'I' for Inactive)
REMARK    1  A    between atoms: C_1  and  C_2
REMARK    2  A    between atoms: C_5  and  C_8
REMARK    3  A    between atoms: C_8  and  C_10
REMARK    4  A    between atoms: C_12  and  C_24
REMARK    5  A    between atoms: C_18  and  C_19
REMARK    6  A    between atoms: C_18  and  O_23
REMARK    7  A    between atoms: C_27  and  C_29
REMARK    8  A    between atoms: C_34  and  N_35
REMARK                            x       y       z     vdW  Elec       q    Type
REMARK                         _______ _______ _______ _____ _____    ______ ____
ROOT
ATOM      1  C   UNL     1       0.244   2.521  -0.248  0.00  0.00    +0.147 C 
ATOM      2  C   UNL     1      -0.171   1.047  -0.172  0.00  0.00    +0.156 C 
ATOM      3  N   UNL     1       0.276   0.487   1.104  0.00  0.00    -0.289 N 
ATOM      4  C   UNL     1       1.364   0.959   1.730  0.00  0.00    +0.302 C 
ATOM      5  O   UNL     1       1.698   0.451   2.784  0.00  0.00    -0.253 OA
ATOM      6  N   UNL     1       2.100   1.968   1.240  0.00  0.00    -0.264 N 
ATOM      7  C   UNL     1       1.758   2.613  -0.028  0.00  0.00    +0.243 C 
ATOM      8  H   UNL     1      -0.226  -0.240   1.506  0.00  0.00    +0.151 HD
ATOM      9  H   UNL     1       2.873   2.277   1.737  0.00  0.00    +0.153 HD
ENDROOT
BRANCH   2  10
ATOM     10  C   UNL     1       0.466   0.286  -1.307  0.00  0.00    +0.127 A 
ATOM     11  C   UNL     1       1.610  -0.422  -1.233  0.00  0.00    +0.047 A 
ATOM     12  C   UNL     1       1.839  -0.971  -2.510  0.00  0.00    +0.050 A 
ATOM     13  C   UNL     1       0.816  -0.556  -3.304  0.00  0.00    +0.137 A 
ATOM     14  O   UNL     1      -0.009   0.206  -2.560  0.00  0.00    -0.458 OA
BRANCH  13  15
ATOM     15  C   UNL     1       0.640  -0.883  -4.734  0.00  0.00    +0.047 A 
ATOM     16  C   UNL     1       1.647  -0.577  -5.652  0.00  0.00    +0.014 A 
ATOM     17  C   UNL     1       1.476  -0.885  -6.986  0.00  0.00    +0.001 A 
ATOM     18  C   UNL     1       0.311  -1.496  -7.415  0.00  0.00    +0.002 A 
ATOM     19  C   UNL     1      -0.691  -1.802  -6.510  0.00  0.00    +0.033 A 
ATOM     20  C   UNL     1      -0.530  -1.504  -5.173  0.00  0.00    +0.137 A 
BRANCH  20  21
ATOM     21  N   UNL     1      -1.600  -1.838  -4.205  0.00  0.00    +0.057 N 
ATOM     22  O   UNL     1      -2.668  -2.268  -4.602  0.00  0.00    -0.126 OA
ATOM     23  O   UNL     1      -1.412  -1.682  -3.012  0.00  0.00    -0.126 OA
ENDBRANCH  20  21
ENDBRANCH  13  15
ENDBRANCH   2  10
BRANCH   7  24
ATOM     24  C   UNL     1       2.179   4.083   0.016  0.00  0.00    +0.436 C 
ATOM     25  F   UNL     1       1.516   4.727   1.066  0.00  0.00    -0.166 F 
ATOM     26  F   UNL     1       3.561   4.167   0.216  0.00  0.00    -0.166 F 
ATOM     27  F   UNL     1       1.845   4.701  -1.195  0.00  0.00    -0.166 F 
ENDBRANCH   7  24
BRANCH   1  28
ATOM     28  C   UNL     1      -0.471   3.303   0.824  0.00  0.00    +0.173 C 
ATOM     29  O   UNL     1       0.070   3.506   1.889  0.00  0.00    -0.292 OA
BRANCH  28  34
ATOM     30  C   UNL     1      -5.767   5.321  -0.143  0.00  0.00    +0.044 C 
ATOM     31  C   UNL     1      -4.378   4.793   0.110  0.00  0.00    -0.050 A 
ATOM     32  C   UNL     1      -3.764   5.027   1.328  0.00  0.00    +0.004 A 
ATOM     33  C   UNL     1      -2.494   4.546   1.568  0.00  0.00    +0.011 A 
ATOM     34  C   UNL     1      -1.827   3.820   0.576  0.00  0.00    +0.018 A 
ATOM     35  C   UNL     1      -2.452   3.592  -0.654  0.00  0.00    +0.011 A 
ATOM     36  C   UNL     1      -3.725   4.075  -0.876  0.00  0.00    +0.004 A 
ENDBRANCH  28  34
ENDBRANCH   1  28
BRANCH   7  37
ATOM     37  O   UNL     1       2.437   1.952  -1.098  0.00  0.00    -0.364 OA
ATOM     38  H   UNL     1       3.401   1.985  -1.032  0.00  0.00    +0.212 HD
ENDBRANCH   7  37
TORSDOF 7
