REMARK  Name = ZINC09957002
REMARK  7 active torsions:
REMARK  status: ('A' for Active; 'I' for Inactive)
REMARK    1  A    between atoms: C_1  and  C_2
REMARK    2  A    between atoms: C_14  and  C_15
REMARK    3  A    between atoms: C_15  and  O_17
REMARK    4  A    between atoms: O_17  and  C_18
REMARK    5  A    between atoms: C_18  and  C_19
REMARK    6  A    between atoms: N_24  and  C_25
REMARK    7  A    between atoms: C_25  and  C_26
REMARK                            x       y       z     vdW  Elec       q    Type
REMARK                         _______ _______ _______ _____ _____    ______ ____
ROOT
ATOM      1  C   UNL     1       1.405  11.202   0.991  0.00  0.00    +0.258 C 
ATOM      2  O   UNL     1       0.704  11.846   0.240  0.00  0.00    -0.272 OA
ATOM      3  N   UNL     1       1.164   9.890   1.179  0.00  0.00    -0.237 N 
ATOM      4  C   UNL     1       0.142   9.293   0.533  0.00  0.00    +0.306 C 
ATOM      5  O   UNL     1      -0.561   9.938  -0.219  0.00  0.00    -0.252 OA
ATOM      6  N   UNL     1      -0.099   7.980   0.722  0.00  0.00    -0.295 N 
ATOM      7  H   UNL     1       1.725   9.374   1.780  0.00  0.00    +0.159 HD
ATOM      8  H   UNL     1       0.462   7.465   1.322  0.00  0.00    +0.150 HD
ENDROOT
BRANCH   1   9
ATOM      9  C   UNL     1       2.547  11.869   1.713  0.00  0.00    +0.328 C 
BRANCH   9  10
ATOM     10  O   UNL     1       2.598  13.273   1.345  0.00  0.00    -0.451 OA
BRANCH  10  11
ATOM     11  C   UNL     1       3.571  14.019   1.909  0.00  0.00    +0.347 C 
ATOM     12  O   UNL     1       4.355  13.509   2.687  0.00  0.00    -0.244 OA
BRANCH  11  26
ATOM     13  C   UNL     1       5.653  15.929   3.026  0.00  0.00    +0.046 C 
ATOM     14  C   UNL     1       4.589  16.353   2.047  0.00  0.00    -0.015 A 
ATOM     15  C   UNL     1       4.527  17.678   1.611  0.00  0.00    +0.076 A 
ATOM     16  C   UNL     1       3.493  17.976   0.693  0.00  0.00    +0.116 A 
ATOM     17  N   UNL     1       3.329  19.196   0.206  0.00  0.00    -0.226 NA
ATOM     18  C   UNL     1       4.108  20.196   0.542  0.00  0.00    +0.114 A 
ATOM     19  N   UNL     1       5.136  20.032   1.413  0.00  0.00    -0.296 N 
ATOM     20  C   UNL     1       5.388  18.824   1.970  0.00  0.00    +0.263 A 
ATOM     21  O   UNL     1       6.310  18.684   2.753  0.00  0.00    -0.267 OA
ATOM     22  C   UNL     1       5.857  21.302   1.615  0.00  0.00    +0.127 C 
ATOM     23  C   UNL     1       4.904  22.406   1.113  0.00  0.00    +0.029 C 
ATOM     24  C   UNL     1       4.049  21.641   0.080  0.00  0.00    +0.076 C 
ATOM     25  S   UNL     1       2.674  16.416   0.480  0.00  0.00    -0.062 S 
ATOM     26  C   UNL     1       3.683  15.443   1.585  0.00  0.00    +0.102 A 
ENDBRANCH  11  26
ENDBRANCH  10  11
ENDBRANCH   9  10
ENDBRANCH   1   9
BRANCH   6  27
ATOM     27  C   UNL     1      -1.209   7.332   0.019  0.00  0.00    +0.153 C 
BRANCH  27  28
ATOM     28  C   UNL     1      -1.263   5.852   0.407  0.00  0.00    +0.228 C 
ATOM     29  C   UNL     1      -2.424   5.167  -0.326  0.00  0.00    +0.275 C 
ATOM     30  O   UNL     1      -2.437   3.785   0.048  0.00  0.00    -0.485 OA
ATOM     31  C   UNL     1      -1.241   3.136   0.030  0.00  0.00    +0.162 A 
ATOM     32  C   UNL     1      -1.219   1.749   0.017  0.00  0.00    +0.049 A 
ATOM     33  C   UNL     1      -0.013   1.076   0.008  0.00  0.00    +0.004 A 
ATOM     34  C   UNL     1       1.176   1.782   0.000  0.00  0.00    +0.004 A 
ATOM     35  C   UNL     1       1.161   3.164   0.007  0.00  0.00    +0.049 A 
ATOM     36  C   UNL     1      -0.046   3.846   0.020  0.00  0.00    +0.163 A 
ATOM     37  O   UNL     1      -0.045   5.207   0.019  0.00  0.00    -0.480 OA
ENDBRANCH  27  28
ENDBRANCH   6  27
TORSDOF 6
