REMARK  Name = ZINC63375181
REMARK  7 active torsions:
REMARK  status: ('A' for Active; 'I' for Inactive)
REMARK    1  A    between atoms: C_1  and  O_2
REMARK    2  A    between atoms: O_2  and  C_3
REMARK    3  A    between atoms: C_6  and  C_11
REMARK    4  A    between atoms: C_8  and  O_9
REMARK    5  A    between atoms: O_9  and  C_10
REMARK    6  A    between atoms: C_11  and  N_12
REMARK    7  A    between atoms: C_13  and  C_15
REMARK                            x       y       z     vdW  Elec       q    Type
REMARK                         _______ _______ _______ _____ _____    ______ ____
ROOT
ATOM      1  C   UNL     1      -7.061  -3.697  -2.999  0.00  0.00    +0.167 C 
ATOM      2  C   UNL     1      -7.205  -2.345  -3.724  0.00  0.00    +0.065 C 
ATOM      3  C   UNL     1      -8.493  -1.720  -3.248  0.00  0.00    -0.034 C 
ATOM      4  C   UNL     1      -8.739  -0.518  -2.736  0.00  0.00    -0.001 A 
ATOM      5  C   UNL     1      -7.874   0.657  -2.541  0.00  0.00    +0.010 A 
ATOM      6  C   UNL     1      -8.456   1.739  -1.960  0.00  0.00    +0.001 A 
ATOM      7  C   UNL     1      -9.796   1.770  -1.560  0.00  0.00    +0.002 A 
ATOM      8  C   UNL     1     -10.665   0.739  -1.708  0.00  0.00    +0.026 A 
ATOM      9  C   UNL     1     -10.171  -0.453  -2.314  0.00  0.00    +0.043 A 
ATOM     10  N   UNL     1     -10.778  -1.568  -2.593  0.00  0.00    -0.375 N 
ATOM     11  C   UNL     1      -9.830  -2.454  -3.270  0.00  0.00    +0.131 C 
ATOM     12  C   UNL     1      -9.621  -3.759  -2.493  0.00  0.00    +0.134 C 
ATOM     13  N   UNL     1      -8.367  -4.370  -2.995  0.00  0.00    -0.276 N 
ATOM     14  C   UNL     1      -8.634  -5.609  -3.446  0.00  0.00    +0.248 C 
ATOM     15  O   UNL     1      -7.802  -6.396  -3.853  0.00  0.00    -0.270 OA
ATOM     16  C   UNL     1     -10.073  -5.871  -3.377  0.00  0.00    +0.042 A 
ATOM     17  C   UNL     1     -10.713  -4.735  -2.788  0.00  0.00    -0.013 A 
ATOM     18  C   UNL     1     -12.074  -4.677  -2.587  0.00  0.00    +0.006 A 
ATOM     19  C   UNL     1     -12.818  -5.786  -2.980  0.00  0.00    +0.000 A 
ATOM     20  C   UNL     1     -12.225  -6.897  -3.545  0.00  0.00    +0.001 A 
ATOM     21  C   UNL     1     -10.818  -6.985  -3.772  0.00  0.00    +0.013 A 
ATOM     22  H   UNL     1     -11.702  -1.777  -2.386  0.00  0.00    +0.160 HD
ENDROOT
BRANCH   1  24
ATOM     23  N   UNL     1      -5.430  -2.852  -1.343  0.00  0.00    -0.310 N 
ATOM     24  C   UNL     1      -6.605  -3.466  -1.582  0.00  0.00    +0.234 C 
ATOM     25  O   UNL     1      -7.297  -3.833  -0.655  0.00  0.00    -0.274 OA
ATOM     26  H   UNL     1      -4.877  -2.559  -2.084  0.00  0.00    +0.149 HD
BRANCH  23  27
ATOM     27  C   UNL     1      -4.987  -2.627   0.035  0.00  0.00    +0.139 C 
BRANCH  27  31
ATOM     28  C   UNL     1      -1.201  -0.638   0.010  0.00  0.00    +0.162 A 
ATOM     29  C   UNL     1      -2.374   0.099   0.019  0.00  0.00    +0.050 A 
ATOM     30  C   UNL     1      -3.596  -0.546   0.027  0.00  0.00    +0.009 A 
ATOM     31  C   UNL     1      -3.652  -1.928   0.026  0.00  0.00    -0.027 A 
ATOM     32  C   UNL     1      -2.485  -2.669   0.017  0.00  0.00    +0.054 A 
ATOM     33  C   UNL     1      -1.257  -2.028   0.003  0.00  0.00    +0.162 A 
BRANCH  28  35
ATOM     34  C   UNL     1      -0.017   1.425   0.010  0.00  0.00    +0.277 C 
ATOM     35  O   UNL     1       0.002  -0.004   0.002  0.00  0.00    -0.491 OA
ENDBRANCH  28  35
BRANCH  33  36
ATOM     36  O   UNL     1      -0.108  -2.756  -0.012  0.00  0.00    -0.491 OA
ATOM     37  C   UNL     1      -0.242  -4.179  -0.018  0.00  0.00    +0.277 C 
ENDBRANCH  33  36
ENDBRANCH  27  31
ENDBRANCH  23  27
ENDBRANCH   1  24
TORSDOF 5
