REMARK  Name = ZINC08593006
REMARK  12 active torsions:
REMARK  status: ('A' for Active; 'I' for Inactive)
REMARK    1  A    between atoms: C_1  and  C_2
REMARK    2  A    between atoms: C_5  and  C_8
REMARK    3  A    between atoms: C_8  and  N_9
REMARK    4  A    between atoms: C_10  and  C_12
REMARK    5  A    between atoms: C_12  and  C_13
REMARK    6  A    between atoms: C_13  and  C_14
REMARK    7  A    between atoms: C_14  and  C_15
REMARK    8  A    between atoms: C_15  and  C_16
REMARK    9  A    between atoms: C_16  and  N_17
REMARK   10  A    between atoms: N_25  and  C_28
REMARK   11  A    between atoms: C_28  and  C_29
REMARK   12  A    between atoms: C_36  and  C_38
REMARK                            x       y       z     vdW  Elec       q    Type
REMARK                         _______ _______ _______ _____ _____    ______ ____
ROOT
ATOM      1  N   UNL     1       5.894 -11.290  -0.723  0.00  0.00    -0.260 N 
ATOM      2  C   UNL     1       6.043 -11.835   0.506  0.00  0.00    +0.271 A 
ATOM      3  O   UNL     1       6.027 -11.132   1.500  0.00  0.00    -0.266 OA
ATOM      4  C   UNL     1       6.214 -13.219   0.617  0.00  0.00    +0.100 A 
ATOM      5  C   UNL     1       6.234 -14.043  -0.511  0.00  0.00    +0.066 A 
ATOM      6  C   UNL     1       6.414 -15.391  -0.217  0.00  0.00    +0.034 A 
ATOM      7  C   UNL     1       6.549 -15.783   1.069  0.00  0.00    +0.048 A 
ATOM      8  S   UNL     1       6.441 -14.358   1.955  0.00  0.00    -0.090 S 
ATOM      9  N   UNL     1       6.074 -13.403  -1.749  0.00  0.00    -0.284 N 
ATOM     10  C   UNL     1       5.906 -12.073  -1.815  0.00  0.00    +0.333 A 
ATOM     11  O   UNL     1       5.764 -11.556  -2.907  0.00  0.00    -0.246 OA
ENDROOT
BRANCH   1  12
ATOM     12  C   UNL     1       5.713  -9.843  -0.864  0.00  0.00    +0.130 C 
BRANCH  12  13
ATOM     13  C   UNL     1       4.221  -9.508  -0.808  0.00  0.00    +0.022 C 
BRANCH  13  14
ATOM     14  C   UNL     1       4.033  -7.997  -0.955  0.00  0.00    +0.002 C 
BRANCH  14  15
ATOM     15  C   UNL     1       2.541  -7.661  -0.899  0.00  0.00    +0.009 C 
BRANCH  15  16
ATOM     16  C   UNL     1       2.352  -6.150  -1.046  0.00  0.00    +0.096 C 
BRANCH  16  18
ATOM     17  N   UNL     1       0.476  -4.539  -1.100  0.00  0.00    -0.311 N 
ATOM     18  C   UNL     1       0.883  -5.819  -0.991  0.00  0.00    +0.213 C 
ATOM     19  O   UNL     1       0.067  -6.705  -0.848  0.00  0.00    -0.276 OA
ATOM     20  H   UNL     1       1.128  -3.831  -1.214  0.00  0.00    +0.149 HD
BRANCH  17  21
ATOM     21  C   UNL     1      -0.953  -4.218  -1.046  0.00  0.00    +0.139 C 
BRANCH  21  26
ATOM     22  C   UNL     1      -1.669   1.489  -1.601  0.00  0.00    +0.044 C 
ATOM     23  C   UNL     1      -1.482   0.001  -1.456  0.00  0.00    -0.050 A 
ATOM     24  C   UNL     1      -1.468  -0.806  -2.578  0.00  0.00    +0.003 A 
ATOM     25  C   UNL     1      -1.296  -2.171  -2.446  0.00  0.00    +0.005 A 
ATOM     26  C   UNL     1      -1.139  -2.730  -1.191  0.00  0.00    -0.030 A 
ATOM     27  C   UNL     1      -1.151  -1.922  -0.069  0.00  0.00    +0.005 A 
ATOM     28  C   UNL     1      -1.319  -0.557  -0.202  0.00  0.00    +0.003 A 
ENDBRANCH  21  26
ENDBRANCH  17  21
ENDBRANCH  16  18
ENDBRANCH  15  16
ENDBRANCH  14  15
ENDBRANCH  13  14
ENDBRANCH  12  13
ENDBRANCH   1  12
BRANCH   9  29
ATOM     29  C   UNL     1       6.083 -14.195  -2.981  0.00  0.00    +0.222 C 
BRANCH  29  30
ATOM     30  C   UNL     1       4.678 -14.633  -3.307  0.00  0.00    +0.236 C 
ATOM     31  O   UNL     1       3.760 -14.315  -2.582  0.00  0.00    -0.274 OA
ATOM     32  N   UNL     1       4.442 -15.378  -4.405  0.00  0.00    -0.297 N 
ATOM     33  C   UNL     1       5.526 -15.685  -5.349  0.00  0.00    +0.108 C 
ATOM     34  C   UNL     1       5.087 -15.267  -6.756  0.00  0.00    +0.019 C 
ATOM     35  C   UNL     1       3.753 -15.939  -7.090  0.00  0.00    +0.003 C 
ATOM     36  C   UNL     1       2.685 -15.481  -6.095  0.00  0.00    +0.022 C 
ATOM     37  C   UNL     1       3.098 -15.905  -4.678  0.00  0.00    +0.073 C 
ATOM     38  C   UNL     1       2.107 -15.335  -3.660  0.00  0.00    +0.028 C 
ENDBRANCH  29  30
ENDBRANCH   9  29
TORSDOF 10
