REMARK  Name = ZINC24424094
REMARK  6 active torsions:
REMARK  status: ('A' for Active; 'I' for Inactive)
REMARK    1  A    between atoms: C_10  and  S_11
REMARK    2  A    between atoms: S_11  and  C_12
REMARK    3  A    between atoms: C_12  and  C_13
REMARK    4  A    between atoms: C_13  and  C_15
REMARK    5  A    between atoms: C_16  and  N_27
REMARK    6  A    between atoms: N_17  and  C_24
REMARK                            x       y       z     vdW  Elec       q    Type
REMARK                         _______ _______ _______ _____ _____    ______ ____
ROOT
ATOM      1  C   UNL     1       5.521   7.225  -0.678  0.00  0.00    +0.182 C 
ATOM      2  O   UNL     1       4.802   8.195  -0.545  0.00  0.00    -0.291 OA
ENDROOT
BRANCH   1   3
ATOM      3  C   UNL     1       6.891   7.312  -0.352  0.00  0.00    +0.120 A 
ATOM      4  C   UNL     1       7.478   8.542  -0.006  0.00  0.00    +0.116 A 
ATOM      5  N   UNL     1       8.807   8.574   0.307  0.00  0.00    -0.278 N 
ATOM      6  C   UNL     1       9.558   7.462   0.279  0.00  0.00    +0.331 A 
ATOM      7  O   UNL     1      10.737   7.545   0.562  0.00  0.00    -0.246 OA
ATOM      8  N   UNL     1       9.054   6.261  -0.049  0.00  0.00    -0.274 N 
ATOM      9  H   UNL     1       9.706   5.376  -0.059  0.00  0.00    +0.173 HD
ATOM     10  C   UNL     1       7.751   6.122  -0.369  0.00  0.00    +0.266 A 
ATOM     11  O   UNL     1       7.298   5.032  -0.666  0.00  0.00    -0.267 OA
BRANCH   5  12
ATOM     12  C   UNL     1       9.427   9.850   0.675  0.00  0.00    +0.094 C 
ATOM     13  C   UNL     1      10.314   9.871   1.921  0.00  0.00    +0.027 C 
ATOM     14  C   UNL     1       8.934  10.533   1.952  0.00  0.00    +0.027 C 
ENDBRANCH   5  12
BRANCH   4  15
ATOM     15  N   UNL     1       6.733   9.680   0.021  0.00  0.00    -0.344 N 
ATOM     16  H   UNL     1       7.202  10.637   0.293  0.00  0.00    +0.144 HD
ATOM     17  H   UNL     1       5.662   9.643  -0.228  0.00  0.00    +0.144 HD
ENDBRANCH   4  15
ENDBRANCH   1   3
BRANCH   1  18
ATOM     18  C   UNL     1       4.949   5.929  -1.192  0.00  0.00    +0.157 C 
BRANCH  18  19
ATOM     19  S   UNL     1       3.177   6.137  -1.518  0.00  0.00    -0.078 S 
BRANCH  19  29
ATOM     20  C   UNL     1      -0.858   2.905  -3.375  0.00  0.00    +0.045 A 
ATOM     21  C   UNL     1      -0.905   4.254  -2.974  0.00  0.00    +0.059 A 
ATOM     22  C   UNL     1       0.211   4.878  -2.544  0.00  0.00    +0.115 A 
ATOM     23  N   UNL     1       1.401   4.207  -2.484  0.00  0.00    -0.275 N 
ATOM     24  C   UNL     1       1.477   2.884  -2.865  0.00  0.00    +0.180 A 
ATOM     25  C   UNL     1       0.316   2.222  -3.317  0.00  0.00    +0.087 A 
ATOM     26 CL   UNL     1       0.388   0.556  -3.800  0.00  0.00    -0.080 Cl
ATOM     27  N   UNL     1       2.732   2.509  -2.703  0.00  0.00    -0.127 NA
ATOM     28  N   UNL     1       3.425   3.497  -2.255  0.00  0.00    -0.122 NA
ATOM     29  C   UNL     1       2.663   4.556  -2.104  0.00  0.00    +0.196 A 
ATOM     30 CL   UNL     1      -2.407   5.122  -3.042  0.00  0.00    -0.082 Cl
ENDBRANCH  19  29
ENDBRANCH  18  19
ENDBRANCH   1  18
TORSDOF 6
