REMARK  Name = ZINC35779098
REMARK  15 active torsions:
REMARK  status: ('A' for Active; 'I' for Inactive)
REMARK    1  A    between atoms: C_1  and  C_2
REMARK    2  A    between atoms: C_2  and  C_3
REMARK    3  A    between atoms: C_3  and  C_4
REMARK    4  A    between atoms: C_4  and  C_6
REMARK    5  A    between atoms: C_4  and  O_34
REMARK    6  A    between atoms: C_6  and  N_7
REMARK    7  A    between atoms: N_7  and  C_8
REMARK    8  A    between atoms: N_7  and  C_12
REMARK    9  A    between atoms: C_8  and  C_9
REMARK   10  A    between atoms: C_9  and  C_10
REMARK   11  A    between atoms: C_9  and  C_11
REMARK   12  A    between atoms: C_12  and  C_13
REMARK   13  A    between atoms: C_23  and  C_25
REMARK   14  A    between atoms: C_25  and  O_26
REMARK   15  A    between atoms: O_26  and  C_27
REMARK                            x       y       z     vdW  Elec       q    Type
REMARK                         _______ _______ _______ _____ _____    ______ ____
ROOT
ATOM      1  C   UNL     1      -3.582  -6.358   0.786  0.00  0.00    +0.200 C 
ATOM      2  O   UNL     1      -2.442  -6.762   0.697  0.00  0.00    -0.278 OA
ATOM      3  N   UNL     1      -4.587  -7.222   1.032  0.00  0.00    -0.292 N 
ATOM      4  C   UNL     1      -5.973  -6.744   1.136  0.00  0.00    +0.113 C 
ATOM      5  C   UNL     1      -6.781  -7.353  -0.021  0.00  0.00    +0.061 C 
ATOM      6  C   UNL     1      -6.407  -8.793  -0.160  0.00  0.00    -0.004 A 
ATOM      7  C   UNL     1      -5.320  -9.428   0.355  0.00  0.00    -0.014 A 
ATOM      8  C   UNL     1      -5.196 -10.787   0.070  0.00  0.00    +0.013 A 
ATOM      9  C   UNL     1      -6.134 -11.410  -0.679  0.00  0.00    +0.046 A 
ATOM     10  S   UNL     1      -7.269 -10.076  -1.031  0.00  0.00    -0.101 S 
ATOM     11  C   UNL     1      -4.311  -8.656   1.196  0.00  0.00    +0.144 C 
ENDROOT
BRANCH   1  12
ATOM     12  C   UNL     1      -3.876  -4.889   0.620  0.00  0.00    +0.019 C 
BRANCH  12  13
ATOM     13  N   UNL     1      -2.625  -4.165   0.361  0.00  0.00    +0.387 N 
ATOM     14  H   UNL     1      -1.964  -4.362   1.098  0.00  0.00    -0.081 HD
BRANCH  13  15
ATOM     15  C   UNL     1      -2.893  -2.722   0.319  0.00  0.00    -0.047 C 
BRANCH  15  16
ATOM     16  C   UNL     1      -3.341  -2.245   1.702  0.00  0.00    +0.098 C 
BRANCH  16  17
ATOM     17  O   UNL     1      -2.305  -2.501   2.652  0.00  0.00    -0.394 OA
ATOM     18  H   UNL     1      -1.494  -1.998   2.495  0.00  0.00    +0.210 HD
ENDBRANCH  16  17
BRANCH  16  19
ATOM     19  C   UNL     1      -3.630  -0.743   1.655  0.00  0.00    +0.029 C 
BRANCH  19  21
ATOM     20  C   UNL     1      -4.485   1.211   2.956  0.00  0.00    +0.004 C 
ATOM     21  C   UNL     1      -4.196  -0.291   3.002  0.00  0.00    -0.001 C 
ENDBRANCH  19  21
ENDBRANCH  16  19
ENDBRANCH  15  16
ENDBRANCH  13  15
BRANCH  13  22
ATOM     22  C   UNL     1      -2.066  -4.598  -0.927  0.00  0.00    -0.075 C 
BRANCH  22  23
ATOM     23  C   UNL     1      -0.689  -3.961  -1.125  0.00  0.00    -0.034 C 
ATOM     24  C   UNL     1       0.268  -4.467  -0.044  0.00  0.00    +0.005 C 
ATOM     25  C   UNL     1      -0.146  -4.339  -2.504  0.00  0.00    +0.005 C 
ENDBRANCH  22  23
ENDBRANCH  13  22
ENDBRANCH  12  13
ENDBRANCH   1  12
BRANCH  11  26
ATOM     26  C   UNL     1      -4.462  -9.048   2.667  0.00  0.00    +0.256 C 
BRANCH  26  27
ATOM     27  O   UNL     1      -5.823  -8.880   3.068  0.00  0.00    -0.490 OA
BRANCH  27  28
ATOM     28  C   UNL     1      -6.130  -9.187   4.356  0.00  0.00    +0.121 A 
ATOM     29  C   UNL     1      -5.139  -9.635   5.218  0.00  0.00    +0.048 A 
ATOM     30  C   UNL     1      -5.452  -9.947   6.527  0.00  0.00    +0.042 A 
ATOM     31  C   UNL     1      -6.754  -9.812   6.979  0.00  0.00    +0.124 A 
ATOM     32  C   UNL     1      -7.744  -9.366   6.120  0.00  0.00    +0.042 A 
ATOM     33  C   UNL     1      -7.432  -9.047   4.812  0.00  0.00    +0.048 A 
ATOM     34  F   UNL     1      -7.059 -10.118   8.259  0.00  0.00    -0.205 F 
ENDBRANCH  27  28
ENDBRANCH  26  27
ENDBRANCH  11  26
TORSDOF 12
