REMARK  Name = ZINC42945897
REMARK  8 active torsions:
REMARK  status: ('A' for Active; 'I' for Inactive)
REMARK    1  A    between atoms: C_1  and  C_2
REMARK    2  A    between atoms: C_2  and  C_3
REMARK    3  A    between atoms: C_3  and  C_5
REMARK    4  A    between atoms: C_3  and  N_22
REMARK    5  A    between atoms: C_5  and  C_7
REMARK    6  A    between atoms: C_5  and  N_14
REMARK    7  A    between atoms: C_19  and  C_20
REMARK    8  A    between atoms: C_19  and  C_21
REMARK                            x       y       z     vdW  Elec       q    Type
REMARK                         _______ _______ _______ _____ _____    ______ ____
ROOT
ATOM      1  C   UNL     1       0.700  -1.758   1.423  0.00  0.00    +0.073 C 
ENDROOT
BRANCH   1   2
ATOM      2  N   UNL     1       1.600  -2.128   2.524  0.00  0.00    -0.288 NA
ATOM      3  C   UNL     1       2.716  -1.176   2.635  0.00  0.00    +0.113 C 
ATOM      4  C   UNL     1       3.593  -1.564   3.829  0.00  0.00    +0.175 C 
ATOM      5  O   UNL     1       4.045  -2.911   3.664  0.00  0.00    -0.377 OA
ATOM      6  C   UNL     1       2.984  -3.864   3.553  0.00  0.00    +0.181 C 
ATOM      7  C   UNL     1       2.101  -3.500   2.357  0.00  0.00    +0.040 C 
ATOM      8  C   UNL     1       0.919  -4.469   2.280  0.00  0.00    +0.030 C 
ATOM      9  C   UNL     1       2.921  -3.591   1.069  0.00  0.00    +0.030 C 
ENDBRANCH   1   2
BRANCH   1  10
ATOM     10  C   UNL     1      -0.702  -2.201   1.750  0.00  0.00    -0.032 A 
ATOM     11  C   UNL     1      -1.206  -2.017   3.025  0.00  0.00    +0.006 A 
ATOM     12  C   UNL     1      -2.492  -2.424   3.325  0.00  0.00    +0.020 A 
ATOM     13  C   UNL     1      -3.276  -3.016   2.350  0.00  0.00    +0.041 A 
ATOM     14  C   UNL     1      -2.771  -3.200   1.075  0.00  0.00    +0.020 A 
ATOM     15  C   UNL     1      -1.486  -2.788   0.775  0.00  0.00    +0.006 A 
ATOM     16 CL   UNL     1      -4.891  -3.528   2.727  0.00  0.00    -0.084 Cl
ENDBRANCH   1  10
BRANCH   1  17
ATOM     17  C   UNL     1       0.724  -0.240   1.234  0.00  0.00    -0.053 C 
BRANCH  17  18
ATOM     18  N   UNL     1       1.710   0.110   0.203  0.00  0.00    +0.381 N 
ATOM     19  H   UNL     1       1.847   1.109   0.194  0.00  0.00    -0.090 HD
ATOM     20  H   UNL     1       2.586  -0.348   0.405  0.00  0.00    -0.090 HD
ATOM     21  H   UNL     1       1.373  -0.192  -0.700  0.00  0.00    -0.090 HD
ENDBRANCH  17  18
BRANCH  17  23
ATOM     22  C   UNL     1      -0.673   1.770   0.730  0.00  0.00    +0.002 C 
ATOM     23  C   UNL     1      -0.662   0.241   0.799  0.00  0.00    -0.018 C 
ENDBRANCH  17  23
ENDBRANCH   1  17
TORSDOF 5
