REMARK  Name = ZINC40388683
REMARK  6 active torsions:
REMARK  status: ('A' for Active; 'I' for Inactive)
REMARK    1  A    between atoms: C_1  and  C_2
REMARK    2  A    between atoms: C_5  and  C_35
REMARK    3  A    between atoms: C_6  and  N_8
REMARK    4  A    between atoms: C_9  and  C_11
REMARK    5  A    between atoms: C_27  and  C_34
REMARK    6  A    between atoms: C_30  and  C_33
REMARK                            x       y       z     vdW  Elec       q    Type
REMARK                         _______ _______ _______ _____ _____    ______ ____
ROOT
ATOM      1  C   UNL     1       0.164  -3.057   4.763  0.00  0.00    +0.122 C 
ATOM      2  C   UNL     1       1.472  -3.851   4.763  0.00  0.00    +0.114 C 
ATOM      3  C   UNL     1       1.694  -4.459   6.123  0.00  0.00    +0.219 C 
ATOM      4  O   UNL     1       2.184  -5.565   6.213  0.00  0.00    -0.275 OA
ATOM      5  N   UNL     1       1.355  -3.789   7.238  0.00  0.00    -0.270 N 
ATOM      6  C   UNL     1       0.699  -2.573   7.165  0.00  0.00    +0.138 A 
ATOM      7  C   UNL     1       0.114  -2.171   5.978  0.00  0.00    +0.069 A 
ATOM      8  C   UNL     1      -0.526  -0.928   5.921  0.00  0.00    +0.258 A 
ATOM      9  O   UNL     1      -1.042  -0.539   4.886  0.00  0.00    -0.267 OA
ATOM     10  N   UNL     1      -0.561  -0.167   7.037  0.00  0.00    -0.295 N 
ATOM     11  H   UNL     1      -0.986   0.705   7.015  0.00  0.00    +0.172 HD
ATOM     12  C   UNL     1      -0.000  -0.623   8.190  0.00  0.00    +0.200 A 
ATOM     13  N   UNL     1       0.603  -1.791   8.246  0.00  0.00    -0.200 NA
ATOM     14  N   UNL     1      -0.067   0.151   9.318  0.00  0.00    -0.301 N 
ATOM     15  C   UNL     1       0.430  -0.356  10.604  0.00  0.00    +0.111 C 
ATOM     16  C   UNL     1       1.433   0.651  11.176  0.00  0.00    +0.004 C 
ATOM     17  C   UNL     1       0.774   2.030  11.257  0.00  0.00    +0.009 C 
ATOM     18  C   UNL     1       0.376   2.490   9.852  0.00  0.00    +0.004 C 
ATOM     19  C   UNL     1      -0.632   1.506   9.264  0.00  0.00    +0.111 C 
ATOM     20  C   UNL     1      -0.251   3.883   9.930  0.00  0.00    +0.009 C 
ATOM     21  C   UNL     1       2.661   0.723  10.267  0.00  0.00    +0.009 C 
ATOM     22  H   UNL     1       1.573  -4.164   8.106  0.00  0.00    +0.156 HD
ENDROOT
BRANCH   1  24
ATOM     23  N   UNL     1      -0.970  -2.312   2.695  0.00  0.00    -0.285 N 
ATOM     24  C   UNL     1       0.092  -2.210   3.519  0.00  0.00    +0.225 C 
ATOM     25  O   UNL     1       0.989  -1.436   3.259  0.00  0.00    -0.275 OA
ATOM     26  H   UNL     1      -1.724  -2.869   2.942  0.00  0.00    +0.155 HD
BRANCH  23  32
ATOM     27  C   UNL     1       1.489  -0.155  -0.976  0.00  0.00    +0.044 C 
ATOM     28  C   UNL     1       0.193  -0.554  -0.319  0.00  0.00    -0.049 A 
ATOM     29  C   UNL     1      -1.012  -0.230  -0.914  0.00  0.00    +0.004 A 
ATOM     30  C   UNL     1      -2.203  -0.595  -0.314  0.00  0.00    +0.005 A 
ATOM     31  C   UNL     1      -2.192  -1.285   0.883  0.00  0.00    -0.029 A 
ATOM     32  C   UNL     1      -0.984  -1.613   1.483  0.00  0.00    +0.037 A 
ATOM     33  C   UNL     1       0.211  -1.249   0.875  0.00  0.00    +0.027 A 
ATOM     34  C   UNL     1      -3.491  -1.682   1.536  0.00  0.00    +0.045 C 
ENDBRANCH  23  32
ENDBRANCH   1  24
TORSDOF 2
