REMARK  Name = ZINC14528939
REMARK  7 active torsions:
REMARK  status: ('A' for Active; 'I' for Inactive)
REMARK    1  A    between atoms: C_1  and  C_2
REMARK    2  A    between atoms: C_5  and  C_33
REMARK    3  A    between atoms: C_9  and  C_10
REMARK    4  A    between atoms: C_9  and  N_63
REMARK    5  A    between atoms: C_16  and  C_18
REMARK    6  A    between atoms: N_21  and  C_24
REMARK    7  A    between atoms: C_29  and  N_30
REMARK                            x       y       z     vdW  Elec       q    Type
REMARK                         _______ _______ _______ _____ _____    ______ ____
ROOT
ATOM      1  C   UNL     1       4.649   0.882   0.130  0.00  0.00    +0.034 A 
ATOM      2  C   UNL     1       4.431  -0.449   0.004  0.00  0.00    +0.070 A 
ATOM      3  S   UNL     1       2.646  -0.490  -0.050  0.00  0.00    -0.060 S 
ATOM      4  C   UNL     1       2.377   1.220   0.097  0.00  0.00    +0.165 A 
ATOM      5  N   UNL     1       3.607   1.689   0.168  0.00  0.00    -0.231 NA
ATOM      6  N   UNL     1       1.174   1.915   0.126  0.00  0.00    -0.264 N 
ATOM      7  C   UNL     1       0.007   1.247   0.033  0.00  0.00    +0.222 C 
ATOM      8  O   UNL     1       0.007   0.039  -0.075  0.00  0.00    -0.275 OA
ATOM      9  H   UNL     1       1.174   2.881   0.212  0.00  0.00    +0.157 HD
ENDROOT
BRANCH   7  10
ATOM     10  C   UNL     1      -1.298   2.002   0.058  0.00  0.00    +0.078 C 
ATOM     11  C   UNL     1      -1.422   2.765   1.380  0.00  0.00    +0.031 C 
ATOM     12  C   UNL     1      -2.775   3.478   1.426  0.00  0.00    +0.106 C 
ATOM     13  N   UNL     1      -3.856   2.492   1.305  0.00  0.00    -0.328 N 
ATOM     14  C   UNL     1      -3.784   1.780   0.022  0.00  0.00    +0.106 C 
ATOM     15  C   UNL     1      -2.462   1.015  -0.065  0.00  0.00    +0.031 C 
BRANCH  13  16
ATOM     16  C   UNL     1      -5.104   3.094   1.474  0.00  0.00    +0.060 A 
ATOM     17  C   UNL     1      -5.508   4.112   0.619  0.00  0.00    +0.025 A 
ATOM     18  C   UNL     1      -6.746   4.701   0.786  0.00  0.00    +0.002 A 
ATOM     19  C   UNL     1      -7.579   4.287   1.810  0.00  0.00    +0.002 A 
ATOM     20  C   UNL     1      -7.178   3.278   2.666  0.00  0.00    +0.034 A 
ATOM     21  C   UNL     1      -5.943   2.680   2.501  0.00  0.00    +0.147 A 
BRANCH  21  22
ATOM     22  N   UNL     1      -5.514   1.601   3.418  0.00  0.00    +0.058 N 
ATOM     23  O   UNL     1      -6.287   1.171   4.256  0.00  0.00    -0.126 OA
ATOM     24  O   UNL     1      -4.389   1.142   3.335  0.00  0.00    -0.126 OA
ENDBRANCH  21  22
ENDBRANCH  13  16
ENDBRANCH   7  10
BRANCH   1  25
ATOM     25  C   UNL     1       6.051   1.429   0.218  0.00  0.00    -0.022 C 
BRANCH  25  33
ATOM     26  C   UNL     1       5.824   2.060  -3.937  0.00  0.00    +0.005 C 
ATOM     27  C   UNL     1       6.955   1.165  -3.427  0.00  0.00    -0.031 C 
ATOM     28  C   UNL     1       8.264   1.959  -3.401  0.00  0.00    +0.003 C 
ATOM     29  C   UNL     1       8.121   3.131  -2.426  0.00  0.00    -0.031 C 
ATOM     30  C   UNL     1       7.760   2.594  -1.040  0.00  0.00    -0.075 C 
ATOM     31  C   UNL     1       6.628   0.685  -2.012  0.00  0.00    -0.075 C 
ATOM     32  C   UNL     1       9.445   3.896  -2.349  0.00  0.00    +0.005 C 
ATOM     33  N   UNL     1       6.479   1.861  -1.128  0.00  0.00    +0.384 N 
ATOM     34  H   UNL     1       5.765   2.485  -1.521  0.00  0.00    -0.081 HD
ENDBRANCH  25  33
ENDBRANCH   1  25
TORSDOF 5
