REMARK  Name = ZINC04741661
REMARK  4 active torsions:
REMARK  status: ('A' for Active; 'I' for Inactive)
REMARK    1  A    between atoms: C_1  and  C_2
REMARK    2  A    between atoms: C_3  and  C_23
REMARK    3  A    between atoms: N_13  and  C_16
REMARK    4  A    between atoms: C_23  and  C_24
REMARK                            x       y       z     vdW  Elec       q    Type
REMARK                         _______ _______ _______ _____ _____    ______ ____
ROOT
ATOM      1  C   UNL     1      -2.504   4.054   0.048  0.00  0.00    +0.066 C 
ATOM      2  C   UNL     1      -1.211   3.280   0.031  0.00  0.00    +0.050 A 
ATOM      3  C   UNL     1      -1.234   1.916   0.018  0.00  0.00    +0.042 A 
ATOM      4  C   UNL     1      -0.015   1.216   0.009  0.00  0.00    +0.256 A 
ATOM      5  O   UNL     1       0.002  -0.004   0.002  0.00  0.00    -0.267 OA
ATOM      6  N   UNL     1       1.138   1.920   0.002  0.00  0.00    -0.295 N 
ATOM      7  H   UNL     1       2.017   1.443  -0.009  0.00  0.00    +0.172 HD
ATOM      8  C   UNL     1       1.099   3.280   0.009  0.00  0.00    +0.199 A 
ATOM      9  N   UNL     1      -0.049   3.929   0.024  0.00  0.00    -0.221 NA
ATOM     10  N   UNL     1       2.271   3.986   0.002  0.00  0.00    -0.298 N 
ATOM     11  C   UNL     1       3.176   3.516   1.061  0.00  0.00    +0.127 C 
ATOM     12  C   UNL     1       4.502   4.274   0.969  0.00  0.00    +0.124 C 
ATOM     13  N   UNL     1       4.249   5.716   1.099  0.00  0.00    -0.325 N 
ATOM     14  C   UNL     1       3.344   6.186   0.040  0.00  0.00    +0.124 C 
ATOM     15  C   UNL     1       2.018   5.428   0.132  0.00  0.00    +0.127 C 
ENDROOT
BRANCH  13  16
ATOM     16  C   UNL     1       5.447   6.438   1.091  0.00  0.00    +0.065 A 
ATOM     17  C   UNL     1       5.431   7.814   1.277  0.00  0.00    +0.026 A 
ATOM     18  C   UNL     1       6.616   8.523   1.274  0.00  0.00    +0.002 A 
ATOM     19  C   UNL     1       7.817   7.867   1.076  0.00  0.00    +0.003 A 
ATOM     20  C   UNL     1       7.838   6.498   0.886  0.00  0.00    +0.040 A 
ATOM     21  C   UNL     1       6.656   5.780   0.893  0.00  0.00    +0.144 A 
ATOM     22  F   UNL     1       6.676   4.442   0.706  0.00  0.00    -0.204 F 
ENDBRANCH  13  16
BRANCH   3  23
ATOM     23  C   UNL     1      -2.544   1.172   0.020  0.00  0.00    +0.077 C 
BRANCH  23  24
ATOM     24  C   UNL     1      -2.927   0.824  -1.395  0.00  0.00    -0.043 A 
ATOM     25  C   UNL     1      -3.696   1.699  -2.139  0.00  0.00    +0.004 A 
ATOM     26  C   UNL     1      -4.043   1.382  -3.439  0.00  0.00    +0.000 A 
ATOM     27  C   UNL     1      -3.628   0.185  -3.992  0.00  0.00    +0.000 A 
ATOM     28  C   UNL     1      -2.864  -0.693  -3.247  0.00  0.00    +0.000 A 
ATOM     29  C   UNL     1      -2.513  -0.373  -1.949  0.00  0.00    +0.004 A 
ENDBRANCH  23  24
ENDBRANCH   3  23
TORSDOF 3
