REMARK  Name = ZINC20504772
REMARK  2 active torsions:
REMARK  status: ('A' for Active; 'I' for Inactive)
REMARK    1  A    between atoms: C_5  and  N_8
REMARK    2  A    between atoms: C_9  and  C_11
REMARK                            x       y       z     vdW  Elec       q    Type
REMARK                         _______ _______ _______ _____ _____    ______ ____
ROOT
ATOM      1  N   UNL     1      -1.853   7.467   2.293  0.00  0.00    -0.285 N 
ATOM      2  C   UNL     1      -1.423   7.019   1.097  0.00  0.00    +0.203 C 
ATOM      3  O   UNL     1      -0.566   7.629   0.493  0.00  0.00    -0.277 OA
ATOM      4  H   UNL     1      -2.687   6.962   2.802  0.00  0.00    +0.155 HD
ENDROOT
BRANCH   2   5
ATOM      5  C   UNL     1      -2.005   5.759   0.510  0.00  0.00    +0.017 C 
ATOM      6  C   UNL     1      -3.377   6.068  -0.150  0.00  0.00    -0.005 C 
ATOM      7  C   UNL     1      -3.336   5.170  -1.396  0.00  0.00    -0.026 C 
ATOM      8  C   UNL     1      -4.180   5.646  -2.566  0.00  0.00    +0.002 C 
ATOM      9  C   UNL     1      -3.924   4.683  -3.736  0.00  0.00    +0.000 C 
ATOM     10  C   UNL     1      -2.444   4.636  -4.108  0.00  0.00    -0.002 C 
ATOM     11  C   UNL     1      -1.573   4.287  -2.890  0.00  0.00    -0.015 C 
ATOM     12  C   UNL     1      -1.851   5.324  -1.823  0.00  0.00    -0.068 C 
ATOM     13  N   UNL     1      -1.115   5.239  -0.560  0.00  0.00    +0.389 N 
ATOM     14  H   UNL     1      -0.201   5.851  -0.606  0.00  0.00    -0.084 HD
ATOM     15  H   UNL     1      -0.847   4.196  -0.340  0.00  0.00    -0.084 HD
ENDBRANCH   2   5
BRANCH   1  20
ATOM     16  C   UNL     1       0.468   9.498   4.299  0.00  0.00    +0.032 A 
ATOM     17  C   UNL     1      -0.024  10.769   4.062  0.00  0.00    +0.020 A 
ATOM     18  C   UNL     1      -1.122  10.947   3.240  0.00  0.00    +0.032 A 
ATOM     19  C   UNL     1      -1.731   9.854   2.652  0.00  0.00    +0.041 A 
ATOM     20  C   UNL     1      -1.239   8.576   2.887  0.00  0.00    +0.062 A 
ATOM     21  C   UNL     1      -0.139   8.401   3.718  0.00  0.00    +0.041 A 
ATOM     22 BR   UNL     1       0.529   6.663   4.049  0.00  0.00    -0.048 Br
ATOM     23 BR   UNL     1      -3.231  10.098   1.527  0.00  0.00    -0.048 Br
ATOM     24 BR   UNL     1       0.806  12.267   4.865  0.00  0.00    -0.050 Br
ENDBRANCH   1  20
TORSDOF 2
