REMARK  Name = ZINC09429238
REMARK  11 active torsions:
REMARK  status: ('A' for Active; 'I' for Inactive)
REMARK    1  A    between atoms: C_1  and  C_2
REMARK    2  A    between atoms: C_7  and  S_15
REMARK    3  A    between atoms: C_12  and  C_14
REMARK    4  A    between atoms: S_15  and  N_18
REMARK    5  A    between atoms: N_18  and  C_19
REMARK    6  A    between atoms: C_19  and  C_21
REMARK    7  A    between atoms: C_19  and  C_24
REMARK    8  A    between atoms: C_21  and  C_22
REMARK    9  A    between atoms: C_21  and  C_23
REMARK   10  A    between atoms: N_26  and  C_27
REMARK   11  A    between atoms: C_27  and  C_28
REMARK                            x       y       z     vdW  Elec       q    Type
REMARK                         _______ _______ _______ _____ _____    ______ ____
ROOT
ATOM      1  N   UNL     1      -3.304   4.290  -1.556  0.00  0.00    -0.178 NA
ATOM      2  H   UNL     1      -2.749   5.048  -1.313  0.00  0.00    +0.149 HD
ENDROOT
BRANCH   1   3
ATOM      3  S   UNL     1      -4.431   3.713  -0.489  0.00  0.00    +0.059 S 
ATOM      4  O   UNL     1      -5.650   3.595  -1.210  0.00  0.00    -0.153 OA
ATOM      5  O   UNL     1      -4.316   4.500   0.689  0.00  0.00    -0.153 OA
BRANCH   3  11
ATOM      6  C   UNL     1      -0.315  -1.967   1.834  0.00  0.00    +0.029 C 
ATOM      7  C   UNL     1      -1.699  -1.434   2.212  0.00  0.00    +0.083 C 
ATOM      8  C   UNL     1      -1.662   0.097   2.346  0.00  0.00    +0.059 C 
ATOM      9  C   UNL     1      -2.637   0.594   1.302  0.00  0.00    -0.022 A 
ATOM     10  C   UNL     1      -3.020   1.876   0.957  0.00  0.00    +0.034 A 
ATOM     11  C   UNL     1      -3.944   2.077  -0.051  0.00  0.00    +0.106 A 
ATOM     12  C   UNL     1      -4.482   0.992  -0.718  0.00  0.00    +0.030 A 
ATOM     13  C   UNL     1      -4.106  -0.289  -0.374  0.00  0.00    +0.026 A 
ATOM     14  C   UNL     1      -3.173  -0.500   0.643  0.00  0.00    +0.040 A 
ATOM     15  N   UNL     1      -2.658  -1.703   1.137  0.00  0.00    -0.268 N 
ATOM     16  C   UNL     1      -2.995  -2.929   0.692  0.00  0.00    +0.217 C 
ATOM     17  O   UNL     1      -3.725  -3.045  -0.270  0.00  0.00    -0.276 OA
ATOM     18  C   UNL     1      -2.465  -4.156   1.388  0.00  0.00    +0.109 C 
ENDBRANCH   3  11
ENDBRANCH   1   3
BRANCH   1  19
ATOM     19  C   UNL     1      -3.146   3.658  -2.868  0.00  0.00    +0.165 C 
BRANCH  19  20
ATOM     20  C   UNL     1      -3.962   4.407  -3.889  0.00  0.00    +0.232 C 
ATOM     21  O   UNL     1      -4.307   5.549  -3.671  0.00  0.00    -0.274 OA
ATOM     22  N   UNL     1      -4.310   3.808  -5.045  0.00  0.00    -0.310 N 
ATOM     23  H   UNL     1      -4.097   2.873  -5.190  0.00  0.00    +0.149 HD
BRANCH  22  24
ATOM     24  C   UNL     1      -5.010   4.569  -6.083  0.00  0.00    +0.139 C 
BRANCH  24  25
ATOM     25  C   UNL     1      -5.282   3.674  -7.265  0.00  0.00    -0.030 A 
ATOM     26  C   UNL     1      -4.357   3.583  -8.289  0.00  0.00    +0.008 A 
ATOM     27  C   UNL     1      -4.603   2.759  -9.371  0.00  0.00    +0.038 A 
ATOM     28  C   UNL     1      -5.780   2.034  -9.435  0.00  0.00    +0.123 A 
ATOM     29  C   UNL     1      -6.708   2.130  -8.412  0.00  0.00    +0.038 A 
ATOM     30  C   UNL     1      -6.458   2.950  -7.328  0.00  0.00    +0.008 A 
ATOM     31  F   UNL     1      -6.024   1.232 -10.495  0.00  0.00    -0.205 F 
ENDBRANCH  24  25
ENDBRANCH  22  24
ENDBRANCH  19  20
BRANCH  19  32
ATOM     32  C   UNL     1      -1.671   3.686  -3.274  0.00  0.00    +0.010 C 
ATOM     33  C   UNL     1      -1.183   5.136  -3.320  0.00  0.00    +0.009 C 
ATOM     34  C   UNL     1      -0.845   2.903  -2.251  0.00  0.00    +0.009 C 
ENDBRANCH  19  32
ENDBRANCH   1  19
TORSDOF 7
