REMARK  Name = ZINC21181812
REMARK  7 active torsions:
REMARK  status: ('A' for Active; 'I' for Inactive)
REMARK    1  A    between atoms: C_1  and  C_2
REMARK    2  A    between atoms: C_2  and  C_4
REMARK    3  A    between atoms: C_2  and  S_15
REMARK    4  A    between atoms: N_6  and  C_7
REMARK    5  A    between atoms: S_15  and  C_16
REMARK    6  A    between atoms: C_19  and  C_22
REMARK    7  A    between atoms: N_20  and  C_21
REMARK                            x       y       z     vdW  Elec       q    Type
REMARK                         _______ _______ _______ _____ _____    ______ ____
ROOT
ATOM      1  C   UNL     1       1.354   3.862  -0.106  0.00  0.00    +0.192 A 
ATOM      2  N   UNL     1       0.175   4.436  -0.177  0.00  0.00    -0.122 NA
ATOM      3  N   UNL     1       0.315   5.711  -0.258  0.00  0.00    -0.130 NA
ATOM      4  C   UNL     1       1.580   6.024  -0.252  0.00  0.00    +0.178 A 
ATOM      5  N   UNL     1       2.287   4.857  -0.155  0.00  0.00    -0.306 N 
ATOM      6  C   UNL     1       3.744   4.707  -0.112  0.00  0.00    +0.153 C 
ENDROOT
BRANCH   4   7
ATOM      7  C   UNL     1       2.156   7.414  -0.336  0.00  0.00    +0.278 C 
ATOM      8  C   UNL     1       2.027   7.942  -1.771  0.00  0.00    +0.281 C 
ATOM      9  O   UNL     1       2.570   9.266  -1.812  0.00  0.00    -0.484 OA
ATOM     10  C   UNL     1       2.194  10.113  -0.816  0.00  0.00    +0.162 A 
ATOM     11  C   UNL     1       2.379  11.479  -0.977  0.00  0.00    +0.049 A 
ATOM     12  C   UNL     1       2.004  12.351   0.027  0.00  0.00    +0.004 A 
ATOM     13  C   UNL     1       1.444  11.866   1.194  0.00  0.00    +0.004 A 
ATOM     14  C   UNL     1       1.256  10.508   1.361  0.00  0.00    +0.049 A 
ATOM     15  C   UNL     1       1.628   9.626   0.356  0.00  0.00    +0.163 A 
ATOM     16  O   UNL     1       1.431   8.291   0.533  0.00  0.00    -0.474 OA
ENDBRANCH   4   7
BRANCH   1  17
ATOM     17  S   UNL     1       1.671   2.134   0.020  0.00  0.00    -0.074 S 
BRANCH  17  19
ATOM     18  C   UNL     1      -0.744   1.984   1.289  0.00  0.00    +0.029 C 
ATOM     19  C   UNL     1      -0.025   1.502   0.027  0.00  0.00    +0.137 C 
BRANCH  19  20
ATOM     20  C   UNL     1      -0.000  -0.005   0.008  0.00  0.00    +0.230 C 
ATOM     21  O   UNL     1       0.965  -0.601   0.436  0.00  0.00    -0.274 OA
ATOM     22  N   UNL     1      -1.051  -0.690  -0.485  0.00  0.00    -0.283 N 
ATOM     23  H   UNL     1      -1.956  -0.153  -0.805  0.00  0.00    +0.155 HD
BRANCH  22  24
ATOM     24  C   UNL     1      -0.991  -2.084  -0.590  0.00  0.00    +0.053 A 
ATOM     25  C   UNL     1      -0.304  -2.824   0.363  0.00  0.00    +0.044 A 
ATOM     26  C   UNL     1      -0.246  -4.201   0.257  0.00  0.00    +0.043 A 
ATOM     27  C   UNL     1      -0.872  -4.842  -0.798  0.00  0.00    +0.021 A 
ATOM     28  C   UNL     1      -1.556  -4.108  -1.749  0.00  0.00    +0.023 A 
ATOM     29  C   UNL     1      -1.623  -2.731  -1.645  0.00  0.00    +0.062 A 
ATOM     30 CL   UNL     1      -2.488  -1.811  -2.835  0.00  0.00    -0.082 Cl
ATOM     31 CL   UNL     1       0.613  -5.127   1.448  0.00  0.00    -0.083 Cl
ENDBRANCH  22  24
ENDBRANCH  19  20
ENDBRANCH  17  19
ENDBRANCH   1  17
TORSDOF 5
