REMARK  Name = ZINC63473029
REMARK  5 active torsions:
REMARK  status: ('A' for Active; 'I' for Inactive)
REMARK    1  A    between atoms: C_1  and  O_2
REMARK    2  A    between atoms: O_2  and  C_3
REMARK    3  A    between atoms: C_6  and  N_9
REMARK    4  A    between atoms: C_14  and  C_32
REMARK    5  A    between atoms: C_32  and  C_33
REMARK                            x       y       z     vdW  Elec       q    Type
REMARK                         _______ _______ _______ _____ _____    ______ ____
ROOT
ATOM      1  N   UNL     1      -4.892  -2.582   0.034  0.00  0.00    -0.210 N 
ATOM      2  C   UNL     1      -6.054  -1.927   0.136  0.00  0.00    +0.232 C 
ATOM      3  O   UNL     1      -6.174  -0.725   0.235  0.00  0.00    -0.274 OA
ATOM      4  C   UNL     1      -7.194  -2.919   0.108  0.00  0.00    +0.107 C 
ATOM      5  C   UNL     1      -7.887  -2.940   1.486  0.00  0.00    +0.072 C 
ATOM      6  N   UNL     1      -7.115  -3.926   2.288  0.00  0.00    -0.295 NA
ATOM      7  C   UNL     1      -6.789  -4.997   1.327  0.00  0.00    +0.136 C 
ATOM      8  C   UNL     1      -6.473  -4.291  -0.015  0.00  0.00    +0.123 C 
ATOM      9  C   UNL     1      -5.010  -3.911  -0.065  0.00  0.00    +0.233 C 
ATOM     10  O   UNL     1      -4.088  -4.690  -0.175  0.00  0.00    -0.274 OA
ATOM     11  C   UNL     1      -5.631  -5.827   1.802  0.00  0.00    +0.006 A 
ATOM     12  C   UNL     1      -4.322  -5.537   2.118  0.00  0.00    +0.046 A 
ATOM     13  C   UNL     1      -3.471  -6.545   2.539  0.00  0.00    +0.124 A 
ATOM     14  C   UNL     1      -3.939  -7.844   2.639  0.00  0.00    +0.040 A 
ATOM     15  C   UNL     1      -5.249  -8.138   2.322  0.00  0.00    +0.026 A 
ATOM     16  C   UNL     1      -6.111  -7.130   1.898  0.00  0.00    +0.039 A 
ATOM     17  N   UNL     1      -7.457  -7.177   1.525  0.00  0.00    -0.283 N 
ATOM     18  C   UNL     1      -7.930  -5.965   1.176  0.00  0.00    +0.243 C 
ATOM     19  O   UNL     1      -9.057  -5.705   0.811  0.00  0.00    -0.273 OA
ATOM     20  F   UNL     1      -2.187  -6.261   2.850  0.00  0.00    -0.205 F 
ATOM     21  H   UNL     1      -6.276  -3.509   2.663  0.00  0.00    +0.124 HD
ATOM     22  H   UNL     1      -7.990  -7.988   1.518  0.00  0.00    +0.155 HD
ENDROOT
BRANCH   1  26
ATOM     23  C   UNL     1      -1.201  -0.637   0.009  0.00  0.00    +0.120 A 
ATOM     24  C   UNL     1      -1.653  -1.283  -1.133  0.00  0.00    +0.047 A 
ATOM     25  C   UNL     1      -2.874  -1.927  -1.125  0.00  0.00    +0.027 A 
ATOM     26  C   UNL     1      -3.650  -1.928   0.026  0.00  0.00    +0.044 A 
ATOM     27  C   UNL     1      -3.198  -1.282   1.168  0.00  0.00    +0.027 A 
ATOM     28  C   UNL     1      -1.974  -0.642   1.161  0.00  0.00    +0.047 A 
BRANCH  23  30
ATOM     29  C   UNL     1       0.745  -0.037  -1.219  0.00  0.00    +0.277 C 
ATOM     30  O   UNL     1       0.002  -0.003   0.001  0.00  0.00    -0.495 OA
ENDBRANCH  23  30
ENDBRANCH   1  26
BRANCH   5  31
ATOM     31  C   UNL     1      -7.823  -1.556   2.135  0.00  0.00    +0.052 C 
BRANCH  31  32
ATOM     32  C   UNL     1      -8.610  -1.567   3.421  0.00  0.00    -0.040 C 
ATOM     33  C   UNL     1      -8.127  -1.771   4.668  0.00  0.00    -0.001 A 
ATOM     34  C   UNL     1      -6.778  -2.034   5.181  0.00  0.00    +0.010 A 
ATOM     35  C   UNL     1      -6.603  -2.199   6.512  0.00  0.00    +0.001 A 
ATOM     36  C   UNL     1      -7.676  -2.126   7.411  0.00  0.00    +0.002 A 
ATOM     37  C   UNL     1      -8.944  -1.887   7.015  0.00  0.00    +0.026 A 
ATOM     38  C   UNL     1      -9.243  -1.698   5.638  0.00  0.00    +0.043 A 
ATOM     39  N   UNL     1     -10.372  -1.458   5.015  0.00  0.00    -0.380 N 
ATOM     40  C   UNL     1     -10.098  -1.346   3.578  0.00  0.00    +0.144 C 
ATOM     41  H   UNL     1     -11.241  -1.366   5.434  0.00  0.00    +0.160 HD
ENDBRANCH  31  32
ENDBRANCH   5  31
TORSDOF 4
