REMARK  Name = ZINC09390186
REMARK  11 active torsions:
REMARK  status: ('A' for Active; 'I' for Inactive)
REMARK    1  A    between atoms: C_1  and  C_2
REMARK    2  A    between atoms: C_5  and  C_8
REMARK    3  A    between atoms: C_8  and  C_9
REMARK    4  A    between atoms: C_8  and  C_10
REMARK    5  A    between atoms: C_8  and  C_11
REMARK    6  A    between atoms: C_11  and  C_12
REMARK    7  A    between atoms: N_14  and  C_15
REMARK    8  A    between atoms: C_15  and  C_16
REMARK    9  A    between atoms: C_19  and  C_22
REMARK   10  A    between atoms: C_22  and  S_23
REMARK   11  A    between atoms: S_23  and  N_26
REMARK                            x       y       z     vdW  Elec       q    Type
REMARK                         _______ _______ _______ _____ _____    ______ ____
ROOT
ATOM      1  C   UNL     1      -0.268   1.258  -2.409  0.00  0.00    +0.214 C 
ATOM      2  O   UNL     1       0.726   0.575  -2.534  0.00  0.00    -0.276 OA
ATOM      3  N   UNL     1      -0.721   1.571  -1.179  0.00  0.00    -0.311 N 
ATOM      4  H   UNL     1      -1.516   2.118  -1.079  0.00  0.00    +0.149 HD
ENDROOT
BRANCH   1   5
ATOM      5  C   UNL     1      -0.997   1.758  -3.630  0.00  0.00    +0.106 C 
BRANCH   5   6
ATOM      6  C   UNL     1      -0.281   1.264  -4.889  0.00  0.00    -0.002 C 
ATOM      7  C   UNL     1       1.155   1.794  -4.900  0.00  0.00    +0.016 C 
ATOM      8  C   UNL     1      -0.260  -0.266  -4.897  0.00  0.00    +0.016 C 
BRANCH   6  13
ATOM      9  C   UNL     1      -3.076   3.178  -9.570  0.00  0.00    +0.044 C 
ATOM     10  C   UNL     1      -2.347   2.679  -8.349  0.00  0.00    -0.050 A 
ATOM     11  C   UNL     1      -1.214   1.901  -8.491  0.00  0.00    +0.003 A 
ATOM     12  C   UNL     1      -0.545   1.443  -7.371  0.00  0.00    +0.004 A 
ATOM     13  C   UNL     1      -1.010   1.763  -6.110  0.00  0.00    -0.041 A 
ATOM     14  C   UNL     1      -2.146   2.537  -5.968  0.00  0.00    +0.004 A 
ATOM     15  C   UNL     1      -2.812   2.999  -7.088  0.00  0.00    +0.003 A 
ENDBRANCH   6  13
ENDBRANCH   5   6
ENDBRANCH   1   5
BRANCH   3  16
ATOM     16  C   UNL     1      -0.013   1.086   0.008  0.00  0.00    +0.139 C 
BRANCH  16  17
ATOM     17  C   UNL     1      -0.718   1.572   1.248  0.00  0.00    -0.030 A 
ATOM     18  C   UNL     1      -0.360   2.779   1.819  0.00  0.00    +0.005 A 
ATOM     19  C   UNL     1      -1.010   3.227   2.953  0.00  0.00    +0.005 A 
ATOM     20  C   UNL     1      -2.012   2.463   3.523  0.00  0.00    -0.025 A 
ATOM     21  C   UNL     1      -2.366   1.254   2.955  0.00  0.00    +0.005 A 
ATOM     22  C   UNL     1      -1.719   0.808   1.818  0.00  0.00    +0.005 A 
BRANCH  20  23
ATOM     23  C   UNL     1      -2.718   2.950   4.762  0.00  0.00    +0.219 C 
BRANCH  23  24
ATOM     24  S   UNL     1      -1.842   2.348   6.232  0.00  0.00    +0.031 S 
ATOM     25  O   UNL     1      -1.968   0.937   6.334  0.00  0.00    -0.158 OA
ATOM     26  O   UNL     1      -0.569   2.971   6.332  0.00  0.00    -0.158 OA
BRANCH  24  27
ATOM     27  N   UNL     1      -2.705   2.943   7.515  0.00  0.00    -0.208 NA
ATOM     28  H   UNL     1      -3.494   3.485   7.359  0.00  0.00    +0.144 HD
ATOM     29  H   UNL     1      -2.422   2.749   8.422  0.00  0.00    +0.144 HD
ENDBRANCH  24  27
ENDBRANCH  23  24
ENDBRANCH  20  23
ENDBRANCH  16  17
ENDBRANCH   3  16
TORSDOF 8
