REMARK  Name = ZINC22188946
REMARK  7 active torsions:
REMARK  status: ('A' for Active; 'I' for Inactive)
REMARK    1  A    between atoms: C_4  and  C_7
REMARK    2  A    between atoms: C_7  and  N_8
REMARK    3  A    between atoms: C_11  and  N_14
REMARK    4  A    between atoms: C_15  and  C_17
REMARK    5  A    between atoms: C_17  and  S_18
REMARK    6  A    between atoms: S_18  and  C_19
REMARK    7  A    between atoms: C_27  and  C_29
REMARK                            x       y       z     vdW  Elec       q    Type
REMARK                         _______ _______ _______ _____ _____    ______ ____
ROOT
ATOM      1  N   UNL     1       7.527   0.083  -0.069  0.00  0.00    -0.314 N 
ATOM      2  C   UNL     1       6.544   1.005  -0.054  0.00  0.00    +0.223 C 
ATOM      3  O   UNL     1       6.820   2.186  -0.051  0.00  0.00    -0.275 OA
ATOM      4  H   UNL     1       7.276  -0.988  -0.072  0.00  0.00    +0.149 HD
ENDROOT
BRANCH   1   8
ATOM      5  N   UNL     1      10.745  -1.016  -0.602  0.00  0.00    +0.384 N 
ATOM      6  C   UNL     1      10.857   0.160  -1.502  0.00  0.00    -0.077 C 
ATOM      7  C   UNL     1       9.412   0.724  -1.532  0.00  0.00    +0.002 C 
ATOM      8  C   UNL     1       8.929   0.508  -0.080  0.00  0.00    +0.055 C 
ATOM      9  C   UNL     1       9.829  -0.607   0.484  0.00  0.00    -0.056 C 
ATOM     10  H   UNL     1      10.370  -1.903  -1.133  0.00  0.00    -0.081 HD
BRANCH   5  11
ATOM     11  C   UNL     1      12.060  -1.396  -0.067  0.00  0.00    -0.043 C 
BRANCH  11  15
ATOM     12  C   UNL     1      14.386  -3.207  -3.159  0.00  0.00    +0.000 A 
ATOM     13  C   UNL     1      14.444  -1.839  -2.961  0.00  0.00    +0.000 A 
ATOM     14  C   UNL     1      13.691  -1.254  -1.961  0.00  0.00    +0.002 A 
ATOM     15  C   UNL     1      12.880  -2.035  -1.158  0.00  0.00    -0.064 A 
ATOM     16  C   UNL     1      12.827  -3.402  -1.352  0.00  0.00    +0.002 A 
ATOM     17  C   UNL     1      13.576  -3.988  -2.356  0.00  0.00    +0.000 A 
ENDBRANCH  11  15
ENDBRANCH   5  11
ENDBRANCH   1   8
BRANCH   2  18
ATOM     18  C   UNL     1       5.101   0.569  -0.043  0.00  0.00    +0.171 C 
BRANCH  18  19
ATOM     19  S   UNL     1       4.030   2.027  -0.025  0.00  0.00    -0.096 S 
BRANCH  19  20
ATOM     20  C   UNL     1       2.450   1.246  -0.014  0.00  0.00    +0.109 A 
ATOM     21  C   UNL     1       1.217   2.033   0.001  0.00  0.00    +0.032 A 
ATOM     22  C   UNL     1       1.225   3.429   0.009  0.00  0.00    +0.012 A 
ATOM     23  C   UNL     1       0.041   4.108   0.025  0.00  0.00    +0.001 A 
ATOM     24  C   UNL     1      -1.173   3.426   0.032  0.00  0.00    +0.002 A 
ATOM     25  C   UNL     1      -1.214   2.063   0.030  0.00  0.00    +0.028 A 
ATOM     26  C   UNL     1      -0.016   1.335   0.009  0.00  0.00    +0.076 A 
ATOM     27  N   UNL     1       0.002  -0.004   0.002  0.00  0.00    -0.225 NA
ATOM     28  C   UNL     1       1.144  -0.668  -0.012  0.00  0.00    +0.197 A 
ATOM     29  N   UNL     1       2.338  -0.075  -0.020  0.00  0.00    -0.218 NA
BRANCH  28  30
ATOM     30  C   UNL     1       1.095  -2.143  -0.020  0.00  0.00    +0.172 A 
ATOM     31  C   UNL     1       2.171  -2.978  -0.035  0.00  0.00    +0.053 A 
ATOM     32  C   UNL     1       1.664  -4.290  -0.037  0.00  0.00    +0.042 A 
ATOM     33  C   UNL     1       0.318  -4.195  -0.024  0.00  0.00    +0.196 A 
ATOM     34  O   UNL     1      -0.021  -2.897  -0.007  0.00  0.00    -0.460 OA
ENDBRANCH  28  30
ENDBRANCH  19  20
ENDBRANCH  18  19
ENDBRANCH   2  18
TORSDOF 7
