REMARK  Name = ZINC53364258
REMARK  10 active torsions:
REMARK  status: ('A' for Active; 'I' for Inactive)
REMARK    1  A    between atoms: C_1  and  C_2
REMARK    2  A    between atoms: C_2  and  C_3
REMARK    3  A    between atoms: C_6  and  C_9
REMARK    4  A    between atoms: C_11  and  C_27
REMARK    5  A    between atoms: C_14  and  C_17
REMARK    6  A    between atoms: C_21  and  O_24
REMARK    7  A    between atoms: C_22  and  O_23
REMARK    8  A    between atoms: O_24  and  C_25
REMARK    9  A    between atoms: C_25  and  C_26
REMARK   10  A    between atoms: C_30  and  C_33
REMARK                            x       y       z     vdW  Elec       q    Type
REMARK                         _______ _______ _______ _____ _____    ______ ____
ROOT
ATOM      1  C   UNL     1       2.695  -1.860  -4.731  0.00  0.00    +0.047 C 
ATOM      2  N   UNL     1       2.002  -2.057  -5.788  0.00  0.00    -0.264 NA
ATOM      3  C   UNL     1       2.556  -2.515  -7.056  0.00  0.00    +0.204 C 
ATOM      4  N   UNL     1       3.883  -3.111  -6.856  0.00  0.00    -0.284 NA
ATOM      5  C   UNL     1       4.742  -2.194  -6.087  0.00  0.00    +0.095 C 
ATOM      6  C   UNL     1       4.180  -2.085  -4.668  0.00  0.00    +0.079 C 
ATOM      7  H   UNL     1       3.812  -4.008  -6.400  0.00  0.00    +0.125 HD
ENDROOT
BRANCH   3   8
ATOM      8  C   UNL     1       1.636  -3.546  -7.657  0.00  0.00    -0.009 A 
ATOM      9  C   UNL     1       2.150  -4.553  -8.452  0.00  0.00    +0.007 A 
ATOM     10  C   UNL     1       1.306  -5.498  -9.003  0.00  0.00    +0.004 A 
ATOM     11  C   UNL     1      -0.054  -5.437  -8.759  0.00  0.00    -0.050 A 
ATOM     12  C   UNL     1      -0.568  -4.430  -7.963  0.00  0.00    +0.004 A 
ATOM     13  C   UNL     1       0.277  -3.488  -7.409  0.00  0.00    +0.007 A 
ATOM     14  C   UNL     1      -0.975  -6.467  -9.361  0.00  0.00    +0.044 C 
ENDBRANCH   3   8
BRANCH   1  18
ATOM     15  C   UNL     1       0.707  -0.490  -1.238  0.00  0.00    -0.048 A 
ATOM     16  C   UNL     1      -0.014  -0.718  -2.396  0.00  0.00    +0.004 A 
ATOM     17  C   UNL     1       0.625  -1.163  -3.535  0.00  0.00    +0.010 A 
ATOM     18  C   UNL     1       2.004  -1.383  -3.516  0.00  0.00    -0.004 A 
ATOM     19  C   UNL     1       2.726  -1.151  -2.344  0.00  0.00    +0.010 A 
ATOM     20  C   UNL     1       2.075  -0.701  -1.214  0.00  0.00    +0.004 A 
BRANCH  15  22
ATOM     21  C   UNL     1      -0.019   1.526   0.010  0.00  0.00    +0.009 C 
ATOM     22  C   UNL     1       0.002  -0.004   0.002  0.00  0.00    +0.032 C 
ENDBRANCH  15  22
ENDBRANCH   1  18
BRANCH   5  23
ATOM     23  C   UNL     1       6.148  -2.734  -6.040  0.00  0.00    +0.015 A 
ATOM     24  C   UNL     1       6.383  -4.073  -6.292  0.00  0.00    +0.009 A 
ATOM     25  C   UNL     1       7.672  -4.572  -6.249  0.00  0.00    +0.004 A 
ATOM     26  C   UNL     1       8.731  -3.733  -5.954  0.00  0.00    +0.049 A 
ATOM     27  C   UNL     1       8.502  -2.391  -5.701  0.00  0.00    +0.162 A 
ATOM     28  C   UNL     1       7.205  -1.888  -5.750  0.00  0.00    +0.163 A 
BRANCH  28  29
ATOM     29  O   UNL     1       6.976  -0.569  -5.508  0.00  0.00    -0.503 OA
ATOM     30  H   UNL     1       6.814  -0.363  -4.577  0.00  0.00    +0.292 HD
ENDBRANCH  28  29
BRANCH  27  31
ATOM     31  O   UNL     1       9.543  -1.565  -5.411  0.00  0.00    -0.489 OA
BRANCH  31  32
ATOM     32  C   UNL     1      10.847  -2.149  -5.383  0.00  0.00    +0.226 C 
ATOM     33  C   UNL     1      11.881  -1.074  -5.042  0.00  0.00    +0.048 C 
ENDBRANCH  31  32
ENDBRANCH  27  31
ENDBRANCH   5  23
TORSDOF 7
