REMARK  Name = ZINC58264240
REMARK  6 active torsions:
REMARK  status: ('A' for Active; 'I' for Inactive)
REMARK    1  A    between atoms: C_11  and  C_13
REMARK    2  A    between atoms: C_13  and  N_14
REMARK    3  A    between atoms: C_15  and  C_17
REMARK    4  A    between atoms: C_17  and  N_18
REMARK    5  A    between atoms: N_18  and  C_19
REMARK    6  A    between atoms: C_22  and  C_25
REMARK                            x       y       z     vdW  Elec       q    Type
REMARK                         _______ _______ _______ _____ _____    ______ ____
ROOT
ATOM      1  N   UNL     1       6.040   1.946  -1.104  0.00  0.00    -0.305 N 
ATOM      2  C   UNL     1       6.227   3.220  -1.504  0.00  0.00    +0.231 C 
ATOM      3  O   UNL     1       5.285   3.982  -1.559  0.00  0.00    -0.274 OA
ATOM      4  H   UNL     1       6.794   1.337  -1.059  0.00  0.00    +0.149 HD
ENDROOT
BRANCH   1   5
ATOM      5  C   UNL     1       4.700   1.482  -0.737  0.00  0.00    +0.200 C 
BRANCH   5  16
ATOM      6  C   UNL     1       3.777  -4.737   0.699  0.00  0.00    +0.000 A 
ATOM      7  C   UNL     1       4.868  -4.093   0.143  0.00  0.00    +0.002 A 
ATOM      8  C   UNL     1       4.813  -2.736  -0.105  0.00  0.00    +0.024 A 
ATOM      9  C   UNL     1       3.663  -2.018   0.202  0.00  0.00    +0.039 A 
ATOM     10  C   UNL     1       2.569  -2.664   0.756  0.00  0.00    -0.026 A 
ATOM     11  C   UNL     1       2.633  -4.026   1.004  0.00  0.00    +0.005 A 
ATOM     12  C   UNL     1       1.304  -1.921   1.092  0.00  0.00    +0.038 C 
ATOM     13  C   UNL     1       1.582  -0.425   1.232  0.00  0.00    +0.024 C 
ATOM     14  C   UNL     1       2.338   0.058  -0.013  0.00  0.00    +0.114 C 
ATOM     15  N   UNL     1       3.630  -0.640  -0.053  0.00  0.00    -0.270 N 
ATOM     16  C   UNL     1       4.764   0.033  -0.330  0.00  0.00    +0.237 C 
ATOM     17  O   UNL     1       5.837  -0.528  -0.251  0.00  0.00    -0.274 OA
ENDBRANCH   5  16
ENDBRANCH   1   5
BRANCH   2  18
ATOM     18  C   UNL     1       7.605   3.697  -1.881  0.00  0.00    +0.197 C 
BRANCH  18  19
ATOM     19  N   UNL     1       7.543   5.106  -2.277  0.00  0.00    -0.335 N 
ATOM     20  H   UNL     1       6.694   5.576  -2.265  0.00  0.00    +0.147 HD
BRANCH  19  21
ATOM     21  C   UNL     1       8.701   5.770  -2.671  0.00  0.00    +0.028 A 
ATOM     22  C   UNL     1       9.916   5.093  -2.693  0.00  0.00    +0.024 A 
ATOM     23  C   UNL     1      11.064   5.747  -3.082  0.00  0.00    +0.020 A 
ATOM     24  C   UNL     1      11.007   7.093  -3.454  0.00  0.00    +0.052 A 
ATOM     25  C   UNL     1       9.784   7.771  -3.430  0.00  0.00    +0.020 A 
ATOM     26  C   UNL     1       8.640   7.109  -3.046  0.00  0.00    +0.024 A 
BRANCH  24  27
ATOM     27  C   UNL     1      12.199   7.777  -3.858  0.00  0.00    +0.099 C 
ATOM     28  N   UNL     1      13.144   8.319  -4.179  0.00  0.00    -0.191 NA
ENDBRANCH  24  27
ENDBRANCH  19  21
ENDBRANCH  18  19
ENDBRANCH   2  18
TORSDOF 6
