REMARK  Name = ZINC44793239
REMARK  12 active torsions:
REMARK  status: ('A' for Active; 'I' for Inactive)
REMARK    1  A    between atoms: C_1  and  C_2
REMARK    2  A    between atoms: C_2  and  C_3
REMARK    3  A    between atoms: C_3  and  C_4
REMARK    4  A    between atoms: C_4  and  N_5
REMARK    5  A    between atoms: C_6  and  S_8
REMARK    6  A    between atoms: S_8  and  C_9
REMARK    7  A    between atoms: C_9  and  C_10
REMARK    8  A    between atoms: C_11  and  C_23
REMARK    9  A    between atoms: C_12  and  C_18
REMARK   10  A    between atoms: C_23  and  O_25
REMARK   11  A    between atoms: O_25  and  C_26
REMARK   12  A    between atoms: C_26  and  C_27
REMARK                            x       y       z     vdW  Elec       q    Type
REMARK                         _______ _______ _______ _____ _____    ______ ____
ROOT
ATOM      1  C   UNL     1       2.968  -6.884  -5.158  0.00  0.00    +0.034 C 
ATOM      2  C   UNL     1       4.270  -7.229  -5.069  0.00  0.00    +0.082 C 
ATOM      3  C   UNL     1       4.957  -7.722  -6.326  0.00  0.00    +0.179 C 
ATOM      4  N   UNL     1       4.142  -7.786  -7.550  0.00  0.00    -0.285 N 
ATOM      5  C   UNL     1       2.851  -7.406  -7.482  0.00  0.00    +0.304 C 
ATOM      6  O   UNL     1       2.169  -7.455  -8.487  0.00  0.00    -0.252 OA
ATOM      7  N   UNL     1       2.292  -6.982  -6.341  0.00  0.00    -0.272 N 
ATOM      8  H   UNL     1       4.525  -8.093  -8.387  0.00  0.00    +0.151 HD
ATOM      9  H   UNL     1       1.357  -6.727  -6.356  0.00  0.00    +0.156 HD
ENDROOT
BRANCH   3  10
ATOM     10  C   UNL     1       5.491  -9.105  -6.051  0.00  0.00    +0.130 A 
ATOM     11  C   UNL     1       6.763  -9.409  -5.740  0.00  0.00    +0.047 A 
ATOM     12  C   UNL     1       6.818 -10.812  -5.567  0.00  0.00    +0.041 A 
ATOM     13  C   UNL     1       5.576 -11.280  -5.783  0.00  0.00    +0.195 A 
ATOM     14  O   UNL     1       4.775 -10.241  -6.071  0.00  0.00    -0.466 OA
ENDBRANCH   3  10
BRANCH   2  15
ATOM     15  C   UNL     1       4.970  -7.132  -3.843  0.00  0.00    +0.339 C 
ATOM     16  O   UNL     1       5.708  -6.187  -3.637  0.00  0.00    -0.245 OA
BRANCH  15  17
ATOM     17  O   UNL     1       4.818  -8.087  -2.902  0.00  0.00    -0.462 OA
BRANCH  17  18
ATOM     18  C   UNL     1       5.555  -7.925  -1.688  0.00  0.00    +0.229 C 
ATOM     19  C   UNL     1       5.257  -9.097  -0.751  0.00  0.00    +0.048 C 
ENDBRANCH  17  18
ENDBRANCH  15  17
ENDBRANCH   2  15
BRANCH   1  20
ATOM     20  C   UNL     1       2.246  -6.388  -3.932  0.00  0.00    +0.128 C 
BRANCH  20  21
ATOM     21  S   UNL     1       2.032  -4.590  -4.042  0.00  0.00    -0.087 S 
BRANCH  21  23
ATOM     22  N   UNL     1       0.869  -2.927  -2.313  0.00  0.00    -0.368 N 
ATOM     23  C   UNL     1       1.185  -4.170  -2.555  0.00  0.00    +0.126 C 
ATOM     24  N   UNL     1       0.856  -5.152  -1.650  0.00  0.00    -0.339 N 
ATOM     25  H   UNL     1       0.390  -4.920  -0.831  0.00  0.00    +0.144 HD
ATOM     26  H   UNL     1       1.091  -6.075  -1.829  0.00  0.00    +0.144 HD
ATOM     27  H   UNL     1       1.100  -2.235  -2.952  0.00  0.00    +0.161 HD
BRANCH  22  28
ATOM     28  C   UNL     1       0.164  -2.578  -1.077  0.00  0.00    +0.114 C 
BRANCH  28  29
ATOM     29  C   UNL     1      -0.084  -1.069  -1.041  0.00  0.00    +0.021 C 
BRANCH  29  31
ATOM     30  C   UNL     1      -1.067   0.806   0.287  0.00  0.00    +0.004 C 
ATOM     31  C   UNL     1      -0.819  -0.704   0.250  0.00  0.00    -0.002 C 
ENDBRANCH  29  31
ENDBRANCH  28  29
ENDBRANCH  22  28
ENDBRANCH  21  23
ENDBRANCH  20  21
ENDBRANCH   1  20
TORSDOF 10
