REMARK  Name = ZINC40021833
REMARK  8 active torsions:
REMARK  status: ('A' for Active; 'I' for Inactive)
REMARK    1  A    between atoms: C_1  and  C_2
REMARK    2  A    between atoms: C_7  and  C_8
REMARK    3  A    between atoms: C_14  and  C_22
REMARK    4  A    between atoms: N_16  and  C_19
REMARK    5  A    between atoms: C_19  and  C_20
REMARK    6  A    between atoms: C_20  and  O_21
REMARK    7  A    between atoms: C_26  and  O_28
REMARK    8  A    between atoms: O_28  and  C_29
REMARK                            x       y       z     vdW  Elec       q    Type
REMARK                         _______ _______ _______ _____ _____    ______ ____
ROOT
ATOM      1  C   UNL     1      -1.327  -1.002   0.692  0.00  0.00    +0.044 C 
ATOM      2  C   UNL     1      -1.008  -2.434   0.345  0.00  0.00    -0.047 A 
ATOM      3  C   UNL     1      -0.814  -2.796  -0.969  0.00  0.00    +0.019 A 
ATOM      4  C   UNL     1      -0.521  -4.123  -1.281  0.00  0.00    +0.065 A 
ATOM      5  C   UNL     1      -0.428  -5.092  -0.268  0.00  0.00    +0.140 A 
ATOM      6  C   UNL     1      -0.626  -4.699   1.055  0.00  0.00    +0.050 A 
ATOM      7  C   UNL     1      -0.907  -3.384   1.351  0.00  0.00    -0.044 A 
ATOM      8  C   UNL     1      -1.112  -2.972   2.787  0.00  0.00    +0.044 C 
ATOM      9  O   UNL     1      -0.159  -6.391  -0.533  0.00  0.00    -0.450 OA
ATOM     10  C   UNL     1       0.264  -6.747  -1.762  0.00  0.00    +0.199 A 
ATOM     11  C   UNL     1       0.216  -5.899  -2.832  0.00  0.00    +0.072 A 
ATOM     12  C   UNL     1      -0.299  -4.533  -2.692  0.00  0.00    +0.199 A 
ATOM     13  O   UNL     1      -0.524  -3.803  -3.641  0.00  0.00    -0.287 OA
ATOM     14  C   UNL     1       0.755  -6.630  -4.018  0.00  0.00    +0.145 C 
ATOM     15  N   UNL     1       1.122  -7.970  -3.530  0.00  0.00    -0.281 N 
ATOM     16  C   UNL     1       0.834  -8.028  -2.214  0.00  0.00    +0.283 C 
ATOM     17  O   UNL     1       1.016  -8.997  -1.504  0.00  0.00    -0.267 OA
ENDROOT
BRANCH  14  18
ATOM     18  C   UNL     1       1.970  -5.920  -4.558  0.00  0.00    -0.019 A 
ATOM     19  C   UNL     1       3.194  -6.073  -3.932  0.00  0.00    +0.006 A 
ATOM     20  C   UNL     1       4.310  -5.424  -4.425  0.00  0.00    +0.004 A 
ATOM     21  C   UNL     1       4.206  -4.620  -5.545  0.00  0.00    +0.046 A 
ATOM     22  C   UNL     1       2.979  -4.466  -6.174  0.00  0.00    +0.129 A 
ATOM     23  C   UNL     1       1.861  -5.123  -5.680  0.00  0.00    +0.052 A 
BRANCH  22  24
ATOM     24  O   UNL     1       2.873  -3.676  -7.274  0.00  0.00    -0.456 OA
BRANCH  24  25
ATOM     25  C   UNL     1       1.650  -3.546  -7.852  0.00  0.00    +0.128 A 
ATOM     26  C   UNL     1       0.793  -2.533  -7.445  0.00  0.00    +0.046 A 
ATOM     27  C   UNL     1      -0.450  -2.404  -8.033  0.00  0.00    +0.004 A 
ATOM     28  C   UNL     1      -0.841  -3.283  -9.027  0.00  0.00    +0.000 A 
ATOM     29  C   UNL     1       0.011  -4.293  -9.433  0.00  0.00    +0.004 A 
ATOM     30  C   UNL     1       1.258  -4.423  -8.853  0.00  0.00    +0.046 A 
ENDBRANCH  24  25
ENDBRANCH  22  24
ENDBRANCH  14  18
BRANCH  15  31
ATOM     31  C   UNL     1       1.700  -9.050  -4.333  0.00  0.00    +0.137 C 
BRANCH  31  32
ATOM     32  C   UNL     1       3.227  -8.948  -4.301  0.00  0.00    +0.175 C 
BRANCH  32  33
ATOM     33  O   UNL     1       3.691  -9.178  -2.969  0.00  0.00    -0.393 OA
ATOM     34  H   UNL     1       4.652  -9.129  -2.874  0.00  0.00    +0.209 HD
ENDBRANCH  32  33
ENDBRANCH  31  32
ENDBRANCH  15  31
TORSDOF 6
