REMARK  Name = ZINC36600211
REMARK  14 active torsions:
REMARK  status: ('A' for Active; 'I' for Inactive)
REMARK    1  A    between atoms: C_1  and  C_2
REMARK    2  A    between atoms: C_5  and  C_7
REMARK    3  A    between atoms: C_7  and  N_8
REMARK    4  A    between atoms: N_8  and  C_9
REMARK    5  A    between atoms: C_9  and  C_11
REMARK    6  A    between atoms: C_9  and  C_18
REMARK    7  A    between atoms: C_16  and  O_17
REMARK    8  A    between atoms: N_20  and  C_21
REMARK    9  A    between atoms: C_21  and  C_22
REMARK   10  A    between atoms: C_21  and  C_23
REMARK   11  A    between atoms: C_21  and  C_24
REMARK   12  A    between atoms: C_25  and  C_27
REMARK   13  A    between atoms: C_27  and  C_28
REMARK   14  A    between atoms: C_27  and  C_34
REMARK                            x       y       z     vdW  Elec       q    Type
REMARK                         _______ _______ _______ _____ _____    ______ ____
ROOT
ATOM      1  N   UNL     1       0.969  -2.455  -0.152  0.00  0.00    -0.278 N 
ATOM      2  C   UNL     1       0.853  -3.727  -0.585  0.00  0.00    +0.229 C 
ATOM      3  O   UNL     1       1.631  -4.160  -1.408  0.00  0.00    -0.275 OA
ENDROOT
BRANCH   1   4
ATOM      4  C   UNL     1      -0.013  -1.909   0.787  0.00  0.00    +0.183 C 
BRANCH   4   9
ATOM      5  C   UNL     1      -2.677   1.806  -1.344  0.00  0.00    +0.086 C 
ATOM      6  C   UNL     1      -2.251   0.429  -0.904  0.00  0.00    +0.102 A 
ATOM      7  C   UNL     1      -2.902  -0.718  -1.166  0.00  0.00    +0.045 A 
ATOM      8  C   UNL     1      -2.156  -1.759  -0.569  0.00  0.00    +0.046 A 
ATOM      9  C   UNL     1      -1.092  -1.186   0.022  0.00  0.00    +0.122 A 
ATOM     10  O   UNL     1      -1.152   0.139  -0.189  0.00  0.00    -0.463 OA
ENDBRANCH   4   9
ENDBRANCH   1   4
BRANCH   1  11
ATOM     11  C   UNL     1       2.077  -1.620  -0.621  0.00  0.00    +0.196 C 
BRANCH  11  12
ATOM     12  C   UNL     1       2.087  -1.599  -2.128  0.00  0.00    +0.023 A 
ATOM     13  C   UNL     1       2.987  -2.383  -2.824  0.00  0.00    +0.009 A 
ATOM     14  C   UNL     1       2.997  -2.364  -4.207  0.00  0.00    +0.001 A 
ATOM     15  C   UNL     1       2.107  -1.561  -4.896  0.00  0.00    +0.004 A 
ATOM     16  C   UNL     1       1.205  -0.776  -4.205  0.00  0.00    +0.046 A 
ATOM     17  C   UNL     1       1.190  -0.797  -2.817  0.00  0.00    +0.122 A 
BRANCH  17  18
ATOM     18  O   UNL     1       0.299  -0.030  -2.135  0.00  0.00    -0.506 OA
ATOM     19  H   UNL     1       0.593   0.880  -1.991  0.00  0.00    +0.292 HD
ENDBRANCH  17  18
ENDBRANCH  11  12
BRANCH  11  20
ATOM     20  C   UNL     1       3.380  -2.186  -0.118  0.00  0.00    +0.239 C 
ATOM     21  O   UNL     1       3.419  -3.310   0.334  0.00  0.00    -0.273 OA
ATOM     22  N   UNL     1       4.503  -1.441  -0.171  0.00  0.00    -0.309 N 
ATOM     23  H   UNL     1       4.458  -0.516  -0.460  0.00  0.00    +0.149 HD
BRANCH  22  24
ATOM     24  C   UNL     1       5.790  -2.029   0.209  0.00  0.00    +0.026 C 
ATOM     25  C   UNL     1       6.094  -3.221  -0.701  0.00  0.00    +0.031 C 
ATOM     26  C   UNL     1       6.893  -0.980   0.060  0.00  0.00    +0.031 C 
ATOM     27  C   UNL     1       5.726  -2.501   1.663  0.00  0.00    +0.031 C 
ENDBRANCH  22  24
ENDBRANCH  11  20
ENDBRANCH   1  11
BRANCH   2  28
ATOM     28  C   UNL     1      -0.243  -4.609  -0.045  0.00  0.00    +0.135 C 
BRANCH  28  29
ATOM     29  C   UNL     1      -0.554  -5.693  -1.045  0.00  0.00    -0.031 A 
ATOM     30  C   UNL     1       0.397  -6.651  -1.344  0.00  0.00    +0.005 A 
ATOM     31  C   UNL     1       0.112  -7.645  -2.261  0.00  0.00    +0.000 A 
ATOM     32  C   UNL     1      -1.123  -7.681  -2.880  0.00  0.00    +0.000 A 
ATOM     33  C   UNL     1      -2.074  -6.724  -2.581  0.00  0.00    +0.000 A 
ATOM     34  C   UNL     1      -1.791  -5.732  -1.660  0.00  0.00    +0.005 A 
ENDBRANCH  28  29
BRANCH  28  35
ATOM     35  C   UNL     1       0.207  -5.235   1.250  0.00  0.00    -0.031 A 
ATOM     36  C   UNL     1      -0.629  -5.222   2.351  0.00  0.00    +0.005 A 
ATOM     37  C   UNL     1      -0.216  -5.796   3.539  0.00  0.00    +0.000 A 
ATOM     38  C   UNL     1       1.032  -6.383   3.626  0.00  0.00    +0.000 A 
ATOM     39  C   UNL     1       1.868  -6.396   2.524  0.00  0.00    +0.000 A 
ATOM     40  C   UNL     1       1.453  -5.826   1.335  0.00  0.00    +0.005 A 
ENDBRANCH  28  35
ENDBRANCH   2  28
TORSDOF 10
