REMARK  Name = ZINC23622513
REMARK  3 active torsions:
REMARK  status: ('A' for Active; 'I' for Inactive)
REMARK    1  A    between atoms: C_1  and  N_2
REMARK    2  A    between atoms: C_6  and  C_7
REMARK    3  A    between atoms: N_13  and  C_14
REMARK                            x       y       z     vdW  Elec       q    Type
REMARK                         _______ _______ _______ _____ _____    ______ ____
ROOT
ATOM      1  C   UNL     1       0.129   0.664  -0.771  0.00  0.00    +0.093 C 
ATOM      2  N   UNL     1      -0.980   1.322  -0.665  0.00  0.00    -0.183 NA
ATOM      3  N   UNL     1      -1.129   2.583  -0.688  0.00  0.00    -0.215 N 
ATOM      4  C   UNL     1      -0.277   3.433  -1.208  0.00  0.00    +0.174 C 
ATOM      5  S   UNL     1       1.205   2.835  -1.960  0.00  0.00    -0.083 S 
ATOM      6  C   UNL     1       1.458   1.361  -0.932  0.00  0.00    +0.136 C 
ATOM      7  N   UNL     1      -0.536   4.783  -1.168  0.00  0.00    -0.222 NA
ATOM      8  H   UNL     1      -2.029   3.039  -0.248  0.00  0.00    +0.176 HD
ENDROOT
BRANCH   7   9
ATOM      9  C   UNL     1      -1.770   5.245  -0.700  0.00  0.00    +0.102 A 
ATOM     10  C   UNL     1      -2.898   4.442  -0.801  0.00  0.00    +0.031 A 
ATOM     11  C   UNL     1      -4.115   4.899  -0.334  0.00  0.00    +0.002 A 
ATOM     12  C   UNL     1      -4.214   6.160   0.226  0.00  0.00    +0.003 A 
ATOM     13  C   UNL     1      -3.095   6.966   0.324  0.00  0.00    +0.040 A 
ATOM     14  C   UNL     1      -1.873   6.513  -0.137  0.00  0.00    +0.149 A 
ATOM     15  F   UNL     1      -0.779   7.301  -0.041  0.00  0.00    -0.203 F 
ENDBRANCH   7   9
BRANCH   1  21
ATOM     16  C   UNL     1      -2.332  -1.084  -0.090  0.00  0.00    +0.149 C 
ATOM     17  N   UNL     1      -0.998  -1.579  -0.439  0.00  0.00    -0.349 N 
ATOM     18  C   UNL     1      -0.631  -2.890  -0.518  0.00  0.00    +0.086 A 
ATOM     19  C   UNL     1       0.674  -2.957  -0.865  0.00  0.00    +0.020 A 
ATOM     20  C   UNL     1       1.147  -1.646  -1.015  0.00  0.00    +0.029 A 
ATOM     21  C   UNL     1       0.094  -0.799  -0.740  0.00  0.00    +0.065 A 
ENDBRANCH   1  21
TORSDOF 2
