REMARK  Name = ZINC28053597
REMARK  3 active torsions:
REMARK  status: ('A' for Active; 'I' for Inactive)
REMARK    1  A    between atoms: C_1  and  C_2
REMARK    2  A    between atoms: C_10  and  C_18
REMARK    3  A    between atoms: C_24  and  C_27
REMARK                            x       y       z     vdW  Elec       q    Type
REMARK                         _______ _______ _______ _____ _____    ______ ____
ROOT
ATOM      1  C   UNL     1       2.138  -6.091   0.923  0.00  0.00    +0.044 C 
ATOM      2  C   UNL     1       1.250  -4.971   0.445  0.00  0.00    -0.050 A 
ATOM      3  C   UNL     1       1.172  -4.683  -0.907  0.00  0.00    +0.007 A 
ATOM      4  C   UNL     1       0.363  -3.657  -1.362  0.00  0.00    +0.046 A 
ATOM      5  C   UNL     1      -0.374  -2.914  -0.459  0.00  0.00    +0.131 A 
ATOM      6  C   UNL     1      -0.299  -3.207   0.909  0.00  0.00    +0.038 A 
ATOM      7  C   UNL     1       0.518  -4.237   1.357  0.00  0.00    +0.016 A 
ATOM      8  C   UNL     1      -1.111  -2.395   1.847  0.00  0.00    +0.050 C 
ATOM      9  C   UNL     1      -1.596  -1.227   1.420  0.00  0.00    +0.025 C 
ATOM     10  C   UNL     1      -2.435  -0.332   2.299  0.00  0.00    +0.174 C 
ATOM     11  N   UNL     1      -2.860  -1.054   3.489  0.00  0.00    -0.201 N 
ATOM     12  C   UNL     1      -2.337  -2.246   3.879  0.00  0.00    +0.240 A 
ATOM     13  N   UNL     1      -2.939  -2.593   4.980  0.00  0.00    -0.092 NA
ATOM     14  N   UNL     1      -3.812  -1.704   5.311  0.00  0.00    -0.021 NA
ATOM     15  N   UNL     1      -3.822  -0.739   4.448  0.00  0.00    -0.042 NA
ATOM     16  N   UNL     1      -1.349  -2.876   3.140  0.00  0.00    -0.282 N 
ATOM     17  C   UNL     1      -1.293  -0.775   0.010  0.00  0.00    +0.234 C 
ATOM     18  O   UNL     1      -1.178  -1.898  -0.863  0.00  0.00    -0.479 OA
ATOM     19  H   UNL     1      -0.762  -3.721   3.529  0.00  0.00    +0.155 HD
ENDROOT
BRANCH  17  20
ATOM     20  C   UNL     1       0.002  -0.004   0.002  0.00  0.00    -0.002 A 
ATOM     21  C   UNL     1      -0.014   1.373  -0.125  0.00  0.00    +0.010 A 
ATOM     22  C   UNL     1       1.173   2.081  -0.132  0.00  0.00    +0.040 A 
ATOM     23  C   UNL     1       2.379   1.411  -0.013  0.00  0.00    +0.137 A 
ATOM     24  C   UNL     1       2.394   0.032   0.114  0.00  0.00    +0.053 A 
ATOM     25  C   UNL     1       1.205  -0.674   0.121  0.00  0.00    +0.025 A 
ATOM     26 BR   UNL     1       4.040  -0.885   0.277  0.00  0.00    -0.047 Br
ATOM     27  F   UNL     1       3.539   2.102  -0.021  0.00  0.00    -0.204 F 
ENDBRANCH  17  20
BRANCH  10  28
ATOM     28  C   UNL     1      -1.624   0.871   2.707  0.00  0.00    -0.019 A 
ATOM     29  C   UNL     1      -0.455   0.704   3.426  0.00  0.00    +0.006 A 
ATOM     30  C   UNL     1       0.292   1.807   3.796  0.00  0.00    +0.000 A 
ATOM     31  C   UNL     1      -0.136   3.077   3.457  0.00  0.00    +0.000 A 
ATOM     32  C   UNL     1      -1.308   3.244   2.743  0.00  0.00    +0.000 A 
ATOM     33  C   UNL     1      -2.052   2.141   2.368  0.00  0.00    +0.006 A 
ENDBRANCH  10  28
TORSDOF 2
