REMARK  Name = ZINC40947160
REMARK  13 active torsions:
REMARK  status: ('A' for Active; 'I' for Inactive)
REMARK    1  A    between atoms: C_1  and  C_2
REMARK    2  A    between atoms: C_2  and  C_3
REMARK    3  A    between atoms: C_2  and  C_4
REMARK    4  A    between atoms: C_4  and  C_5
REMARK    5  A    between atoms: C_5  and  O_6
REMARK    6  A    between atoms: O_6  and  C_7
REMARK    7  A    between atoms: C_8  and  O_27
REMARK    8  A    between atoms: C_10  and  C_14
REMARK    9  A    between atoms: N_15  and  N_16
REMARK   10  A    between atoms: C_17  and  C_19
REMARK   11  A    between atoms: C_19  and  S_20
REMARK   12  A    between atoms: S_20  and  C_21
REMARK   13  A    between atoms: O_27  and  C_28
REMARK                            x       y       z     vdW  Elec       q    Type
REMARK                         _______ _______ _______ _____ _____    ______ ____
ROOT
ATOM      1  C   UNL     1      -1.690   0.483   8.637  0.00  0.00    +0.138 C 
ATOM      2  N   UNL     1      -2.525  -0.364   9.157  0.00  0.00    -0.188 NA
ENDROOT
BRANCH   1   6
ATOM      3  C   UNL     1       0.083  -0.334   4.862  0.00  0.00    +0.176 A 
ATOM      4  C   UNL     1       0.400   0.842   5.538  0.00  0.00    +0.163 A 
ATOM      5  C   UNL     1      -0.175   1.111   6.765  0.00  0.00    +0.059 A 
ATOM      6  C   UNL     1      -1.074   0.201   7.327  0.00  0.00    -0.001 A 
ATOM      7  C   UNL     1      -1.388  -0.977   6.645  0.00  0.00    +0.028 A 
ATOM      8  C   UNL     1      -0.814  -1.236   5.417  0.00  0.00    +0.064 A 
ATOM      9 BR   UNL     1      -1.246  -2.828   4.491  0.00  0.00    -0.046 Br
BRANCH   4  10
ATOM     10  O   UNL     1       1.275   1.726   4.989  0.00  0.00    -0.491 OA
ATOM     11  C   UNL     1       1.554   2.912   5.736  0.00  0.00    +0.277 C 
ENDBRANCH   4  10
BRANCH   3  12
ATOM     12  O   UNL     1       0.650  -0.597   3.655  0.00  0.00    -0.487 OA
BRANCH  12  13
ATOM     13  C   UNL     1      -0.042  -0.124   2.497  0.00  0.00    +0.229 C 
BRANCH  13  14
ATOM     14  C   UNL     1       0.742  -0.511   1.242  0.00  0.00    +0.044 C 
BRANCH  14  16
ATOM     15  C   UNL     1      -0.019   1.526   0.010  0.00  0.00    +0.007 C 
ATOM     16  C   UNL     1       0.002  -0.004   0.002  0.00  0.00    -0.014 C 
ATOM     17  C   UNL     1       0.718  -0.497  -1.257  0.00  0.00    +0.007 C 
ENDBRANCH  14  16
ENDBRANCH  13  14
ENDBRANCH  12  13
ENDBRANCH   3  12
ENDBRANCH   1   6
BRANCH   2  18
ATOM     18  N   UNL     1      -3.110  -0.096  10.402  0.00  0.00    -0.206 N 
ATOM     19  C   UNL     1      -3.977  -0.975  10.942  0.00  0.00    +0.242 C 
ATOM     20  O   UNL     1      -4.250  -1.999  10.351  0.00  0.00    -0.273 OA
ATOM     21  H   UNL     1      -2.891   0.722  10.874  0.00  0.00    +0.177 HD
BRANCH  19  22
ATOM     22  C   UNL     1      -4.606  -0.687  12.280  0.00  0.00    +0.173 C 
BRANCH  22  23
ATOM     23  S   UNL     1      -5.716  -2.049  12.732  0.00  0.00    -0.088 S 
BRANCH  23  24
ATOM     24  C   UNL     1      -6.365  -1.568  14.299  0.00  0.00    +0.160 A 
ATOM     25  N   UNL     1      -6.127  -0.479  15.003  0.00  0.00    -0.133 NA
ATOM     26  N   UNL     1      -6.748  -0.300  16.218  0.00  0.00    -0.125 NA
ATOM     27  C   UNL     1      -7.578  -1.219  16.672  0.00  0.00    +0.180 A 
ATOM     28  S   UNL     1      -7.526  -2.423  15.353  0.00  0.00    -0.025 S 
ATOM     29  N   UNL     1      -8.303  -1.242  17.857  0.00  0.00    -0.336 N 
ATOM     30  H   UNL     1      -8.232  -0.504  18.484  0.00  0.00    +0.144 HD
ATOM     31  H   UNL     1      -8.881  -1.995  18.058  0.00  0.00    +0.144 HD
ENDBRANCH  23  24
ENDBRANCH  22  23
ENDBRANCH  19  22
ENDBRANCH   2  18
TORSDOF 10
