REMARK  Name = ZINC39301923
REMARK  6 active torsions:
REMARK  status: ('A' for Active; 'I' for Inactive)
REMARK    1  A    between atoms: C_13  and  C_15
REMARK    2  A    between atoms: C_21  and  C_23
REMARK    3  A    between atoms: N_25  and  C_26
REMARK    4  A    between atoms: C_26  and  C_27
REMARK    5  A    between atoms: N_30  and  C_33
REMARK    6  A    between atoms: C_33  and  C_34
REMARK                            x       y       z     vdW  Elec       q    Type
REMARK                         _______ _______ _______ _____ _____    ______ ____
ROOT
ATOM      1  C   UNL     1       6.814  -4.060   1.218  0.00  0.00    +0.091 C 
ATOM      2  C   UNL     1       6.059  -4.494   2.476  0.00  0.00    +0.040 C 
ATOM      3  C   UNL     1       6.278  -5.956   2.732  0.00  0.00    -0.030 C 
ATOM      4  C   UNL     1       7.231  -6.651   2.197  0.00  0.00    -0.030 C 
ATOM      5  C   UNL     1       8.243  -6.093   1.240  0.00  0.00    +0.040 C 
ATOM      6  C   UNL     1       8.258  -4.565   1.315  0.00  0.00    +0.091 C 
ENDROOT
BRANCH   1  19
ATOM      7  C   UNL     1       1.268   1.170  -3.210  0.00  0.00    +0.039 A 
ATOM      8  C   UNL     1       2.304   1.887  -2.634  0.00  0.00    +0.116 A 
ATOM      9  N   UNL     1       3.317   1.234  -2.091  0.00  0.00    -0.223 NA
ATOM     10  C   UNL     1       3.349  -0.091  -2.094  0.00  0.00    +0.218 A 
ATOM     11  N   UNL     1       2.374  -0.806  -2.637  0.00  0.00    -0.223 NA
ATOM     12  C   UNL     1       1.332  -0.214  -3.196  0.00  0.00    +0.116 A 
ATOM     13  N   UNL     1       4.425  -0.743  -1.517  0.00  0.00    -0.297 N 
ATOM     14  C   UNL     1       5.519   0.021  -0.901  0.00  0.00    +0.127 C 
ATOM     15  C   UNL     1       5.693  -0.453   0.547  0.00  0.00    +0.127 C 
ATOM     16  N   UNL     1       5.761  -1.921   0.556  0.00  0.00    -0.298 N 
ATOM     17  C   UNL     1       4.667  -2.685  -0.060  0.00  0.00    +0.127 C 
ATOM     18  C   UNL     1       4.490  -2.211  -1.503  0.00  0.00    +0.127 C 
ATOM     19  C   UNL     1       6.809  -2.556   1.118  0.00  0.00    +0.220 C 
ATOM     20  O   UNL     1       7.748  -1.917   1.544  0.00  0.00    -0.275 OA
ENDBRANCH   1  19
BRANCH   6  21
ATOM     21  C   UNL     1       9.068  -4.007   0.173  0.00  0.00    +0.217 C 
ATOM     22  O   UNL     1       8.545  -3.275  -0.640  0.00  0.00    -0.275 OA
ATOM     23  N   UNL     1      10.374  -4.320   0.057  0.00  0.00    -0.315 N 
ATOM     24  H   UNL     1      10.792  -4.905   0.708  0.00  0.00    +0.149 HD
BRANCH  23  25
ATOM     25  C   UNL     1      11.161  -3.777  -1.053  0.00  0.00    +0.107 C 
BRANCH  25  26
ATOM     26  C   UNL     1      12.602  -4.284  -0.952  0.00  0.00    +0.003 C 
ATOM     27  C   UNL     1      13.256  -3.719   0.311  0.00  0.00    -0.014 C 
ATOM     28  C   UNL     1      14.719  -4.164   0.364  0.00  0.00    -0.078 C 
ATOM     29  N   UNL     1      15.429  -3.667  -0.820  0.00  0.00    +0.382 N 
ATOM     30  C   UNL     1      14.852  -4.261  -2.032  0.00  0.00    -0.078 C 
ATOM     31  C   UNL     1      13.395  -3.819  -2.177  0.00  0.00    -0.014 C 
ATOM     32  H   UNL     1      15.344  -2.663  -0.866  0.00  0.00    -0.081 HD
BRANCH  29  33
ATOM     33  C   UNL     1      16.849  -4.031  -0.727  0.00  0.00    -0.042 C 
BRANCH  33  34
ATOM     34  C   UNL     1      17.602  -3.417  -1.879  0.00  0.00    -0.057 A 
ATOM     35  C   UNL     1      17.741  -4.104  -3.071  0.00  0.00    +0.009 A 
ATOM     36  C   UNL     1      18.425  -3.523  -4.087  0.00  0.00    +0.045 A 
ATOM     37  S   UNL     1      18.897  -1.959  -3.369  0.00  0.00    -0.105 S 
ATOM     38  C   UNL     1      18.148  -2.182  -1.764  0.00  0.00    +0.047 A 
ENDBRANCH  33  34
ENDBRANCH  29  33
ENDBRANCH  25  26
ENDBRANCH  23  25
ENDBRANCH   6  21
TORSDOF 6
