REMARK  Name = ZINC43337670
REMARK  7 active torsions:
REMARK  status: ('A' for Active; 'I' for Inactive)
REMARK    1  A    between atoms: C_1  and  C_2
REMARK    2  A    between atoms: C_2  and  C_3
REMARK    3  A    between atoms: C_3  and  C_5
REMARK    4  A    between atoms: C_3  and  N_20
REMARK    5  A    between atoms: C_5  and  C_7
REMARK    6  A    between atoms: C_5  and  O_12
REMARK    7  A    between atoms: O_12  and  C_13
REMARK                            x       y       z     vdW  Elec       q    Type
REMARK                         _______ _______ _______ _____ _____    ______ ____
ROOT
ATOM      1  C   UNL     1      -1.210  -1.967   0.071  0.00  0.00    +0.224 C 
ENDROOT
BRANCH   1   2
ATOM      2  C   UNL     1      -2.595  -2.497  -0.197  0.00  0.00    +0.143 A 
ATOM      3  C   UNL     1      -3.049  -2.951  -1.378  0.00  0.00    +0.048 A 
ATOM      4  C   UNL     1      -4.391  -3.347  -1.177  0.00  0.00    +0.041 A 
ATOM      5  C   UNL     1      -4.677  -3.111   0.116  0.00  0.00    +0.195 A 
ATOM      6  O   UNL     1      -3.583  -2.601   0.706  0.00  0.00    -0.464 OA
ENDBRANCH   1   2
BRANCH   1   7
ATOM      7  C   UNL     1      -1.240  -0.437   0.071  0.00  0.00    -0.026 C 
BRANCH   7   8
ATOM      8  N   UNL     1      -1.705   0.044  -1.236  0.00  0.00    +0.383 N 
ATOM      9  H   UNL     1      -1.076  -0.280  -1.956  0.00  0.00    -0.089 HD
ATOM     10  H   UNL     1      -2.632  -0.311  -1.415  0.00  0.00    -0.089 HD
ATOM     11  H   UNL     1      -1.725   1.053  -1.236  0.00  0.00    -0.089 HD
ENDBRANCH   7   8
BRANCH   7  13
ATOM     12  C   UNL     1       0.114   1.625   0.467  0.00  0.00    +0.002 C 
ATOM     13  C   UNL     1       0.166   0.101   0.343  0.00  0.00    -0.016 C 
ENDBRANCH   7  13
ENDBRANCH   1   7
BRANCH   1  14
ATOM     14  O   UNL     1      -0.758  -2.435   1.343  0.00  0.00    -0.483 OA
BRANCH  14  15
ATOM     15  C   UNL     1      -0.189  -3.669   1.380  0.00  0.00    +0.122 A 
ATOM     16  C   UNL     1      -0.165  -4.457   0.239  0.00  0.00    +0.046 A 
ATOM     17  C   UNL     1       0.414  -5.711   0.279  0.00  0.00    +0.005 A 
ATOM     18  C   UNL     1       0.969  -6.180   1.455  0.00  0.00    +0.014 A 
ATOM     19  C   UNL     1       0.946  -5.397   2.594  0.00  0.00    +0.017 A 
ATOM     20  C   UNL     1       0.373  -4.139   2.558  0.00  0.00    +0.060 A 
ATOM     21  I   UNL     1       1.786  -6.112   4.375  0.00  0.00    -0.044 I 
ENDBRANCH  14  15
ENDBRANCH   1  14
TORSDOF 6
