REMARK  Name = ZINC40687301
REMARK  5 active torsions:
REMARK  status: ('A' for Active; 'I' for Inactive)
REMARK    1  A    between atoms: C_4  and  C_7
REMARK    2  A    between atoms: C_7  and  C_8
REMARK    3  A    between atoms: C_7  and  N_14
REMARK    4  A    between atoms: C_21  and  N_35
REMARK    5  A    between atoms: C_22  and  N_26
REMARK                            x       y       z     vdW  Elec       q    Type
REMARK                         _______ _______ _______ _____ _____    ______ ____
ROOT
ATOM      1  N   UNL     1       3.312  -1.673  -1.179  0.00  0.00    -0.289 NA
ATOM      2  C   UNL     1       2.984  -1.325  -2.568  0.00  0.00    +0.104 C 
ATOM      3  C   UNL     1       2.773  -2.609  -3.377  0.00  0.00    +0.122 C 
ATOM      4  N   UNL     1       3.959  -3.464  -3.213  0.00  0.00    -0.311 N 
ATOM      5  C   UNL     1       4.431  -3.745  -1.849  0.00  0.00    +0.122 C 
ATOM      6  C   UNL     1       4.576  -2.416  -1.100  0.00  0.00    +0.104 C 
ATOM      7  C   UNL     1       4.616  -3.992  -4.318  0.00  0.00    +0.147 A 
ATOM      8  C   UNL     1       4.255  -5.241  -4.828  0.00  0.00    +0.104 A 
ATOM      9  C   UNL     1       4.946  -5.725  -5.939  0.00  0.00    +0.129 A 
ATOM     10  N   UNL     1       5.917  -4.983  -6.468  0.00  0.00    -0.332 N 
ATOM     11  C   UNL     1       6.227  -3.809  -5.956  0.00  0.00    +0.200 A 
ATOM     12  N   UNL     1       5.595  -3.313  -4.911  0.00  0.00    -0.221 NA
ATOM     13  H   UNL     1       6.403  -5.311  -7.240  0.00  0.00    +0.168 HD
ENDROOT
BRANCH   9  14
ATOM     14  N   UNL     1       4.627  -6.963  -6.486  0.00  0.00    -0.284 N 
ATOM     15  C   UNL     1       3.609  -7.189  -7.515  0.00  0.00    +0.117 C 
ATOM     16  C   UNL     1       3.634  -8.703  -7.781  0.00  0.00    +0.056 C 
ATOM     17  C   UNL     1       4.700  -9.235  -6.851  0.00  0.00    -0.025 A 
ATOM     18  C   UNL     1       5.234  -8.172  -6.138  0.00  0.00    +0.038 A 
ATOM     19  C   UNL     1       6.250  -8.418  -5.212  0.00  0.00    +0.024 A 
ATOM     20  C   UNL     1       6.715  -9.701  -5.016  0.00  0.00    +0.002 A 
ATOM     21  C   UNL     1       6.179 -10.754  -5.734  0.00  0.00    +0.000 A 
ATOM     22  C   UNL     1       5.166 -10.519  -6.646  0.00  0.00    +0.005 A 
ENDBRANCH   9  14
BRANCH   8  23
ATOM     23  N   UNL     1       3.224  -5.990  -4.238  0.00  0.00    -0.353 N 
ATOM     24  H   UNL     1       2.690  -5.604  -3.526  0.00  0.00    +0.143 HD
ATOM     25  H   UNL     1       3.046  -6.894  -4.542  0.00  0.00    +0.143 HD
ENDBRANCH   8  23
BRANCH   1  26
ATOM     26  C   UNL     1       3.353  -0.474  -0.332  0.00  0.00    +0.117 C 
BRANCH  26  30
ATOM     27  C   UNL     1      -0.364   1.610  -0.636  0.00  0.00    +0.000 A 
ATOM     28  C   UNL     1       0.823   2.317  -0.592  0.00  0.00    +0.000 A 
ATOM     29  C   UNL     1       2.026   1.642  -0.493  0.00  0.00    +0.005 A 
ATOM     30  C   UNL     1       2.041   0.261  -0.438  0.00  0.00    -0.026 A 
ATOM     31  C   UNL     1       0.854  -0.446  -0.481  0.00  0.00    +0.005 A 
ATOM     32  C   UNL     1      -0.349   0.229  -0.581  0.00  0.00    +0.000 A 
ENDBRANCH  26  30
BRANCH  26  33
ATOM     33  C   UNL     1       3.586  -0.879   1.101  0.00  0.00    -0.026 A 
ATOM     34  C   UNL     1       2.962  -2.001   1.613  0.00  0.00    +0.005 A 
ATOM     35  C   UNL     1       3.176  -2.372   2.927  0.00  0.00    +0.000 A 
ATOM     36  C   UNL     1       4.016  -1.623   3.729  0.00  0.00    +0.000 A 
ATOM     37  C   UNL     1       4.641  -0.501   3.217  0.00  0.00    +0.000 A 
ATOM     38  C   UNL     1       4.430  -0.132   1.902  0.00  0.00    +0.005 A 
ENDBRANCH  26  33
ENDBRANCH   1  26
TORSDOF 5
