REMARK  Name = ZINC21323258
REMARK  7 active torsions:
REMARK  status: ('A' for Active; 'I' for Inactive)
REMARK    1  A    between atoms: C_1  and  C_2
REMARK    2  A    between atoms: C_2  and  C_20
REMARK    3  A    between atoms: N_3  and  N_4
REMARK    4  A    between atoms: C_8  and  S_11
REMARK    5  A    between atoms: N_9  and  N_10
REMARK    6  A    between atoms: S_11  and  C_12
REMARK    7  A    between atoms: C_12  and  C_13
REMARK                            x       y       z     vdW  Elec       q    Type
REMARK                         _______ _______ _______ _____ _____    ______ ____
ROOT
ATOM      1  N   UNL     1       1.635   3.144   0.003  0.00  0.00    -0.204 N 
ATOM      2  C   UNL     1       1.224   1.819   0.000  0.00  0.00    +0.254 A 
ATOM      3  N   UNL     1      -0.017   1.397   0.010  0.00  0.00    -0.109 NA
ATOM      4  N   UNL     1       0.002  -0.004   0.002  0.00  0.00    -0.119 NA
ATOM      5  C   UNL     1       1.255  -0.392  -0.012  0.00  0.00    +0.210 A 
ATOM      6  N   UNL     1       2.043   0.724  -0.014  0.00  0.00    -0.211 N 
ATOM      7  H   UNL     1       2.708   3.387  -0.006  0.00  0.00    +0.178 HD
ENDROOT
BRANCH   1  10
ATOM      8  C   UNL     1       2.538   5.746   0.009  0.00  0.00    +0.068 C 
ATOM      9  C   UNL     1       1.069   5.413   0.021  0.00  0.00    +0.063 C 
ATOM     10  N   UNL     1       0.684   4.172   0.018  0.00  0.00    -0.184 NA
BRANCH   9  11
ATOM     11  C   UNL     1       0.067   6.495   0.037  0.00  0.00    -0.002 A 
ATOM     12  C   UNL     1       0.478   7.830   0.046  0.00  0.00    +0.012 A 
ATOM     13  C   UNL     1      -0.463   8.838   0.055  0.00  0.00    +0.039 A 
ATOM     14  C   UNL     1      -1.814   8.528   0.067  0.00  0.00    +0.123 A 
ATOM     15  C   UNL     1      -2.227   7.205   0.064  0.00  0.00    +0.039 A 
ATOM     16  C   UNL     1      -1.296   6.189   0.049  0.00  0.00    +0.012 A 
ATOM     17  F   UNL     1      -2.731   9.520   0.082  0.00  0.00    -0.205 F 
ENDBRANCH   9  11
ENDBRANCH   1  10
BRANCH   6  18
ATOM     18  N   UNL     1       3.409   0.742  -0.027  0.00  0.00    -0.294 N 
ATOM     19  H   UNL     1       3.971  -0.203  -0.038  0.00  0.00    +0.163 HD
ATOM     20  H   UNL     1       3.946   1.702  -0.028  0.00  0.00    +0.163 HD
ENDBRANCH   6  18
BRANCH   5  21
ATOM     21  S   UNL     1       1.822  -2.061  -0.026  0.00  0.00    -0.080 S 
BRANCH  21  22
ATOM     22  C   UNL     1       0.297  -3.043  -0.017  0.00  0.00    +0.112 C 
BRANCH  22  23
ATOM     23  C   UNL     1       0.644  -4.509  -0.028  0.00  0.00    -0.036 A 
ATOM     24  C   UNL     1       0.814  -5.188   1.165  0.00  0.00    +0.004 A 
ATOM     25  C   UNL     1       1.131  -6.533   1.156  0.00  0.00    +0.001 A 
ATOM     26  C   UNL     1       1.279  -7.200  -0.046  0.00  0.00    +0.015 A 
ATOM     27  C   UNL     1       1.109  -6.522  -1.239  0.00  0.00    +0.018 A 
ATOM     28  C   UNL     1       0.786  -5.177  -1.229  0.00  0.00    +0.019 A 
ATOM     29 BR   UNL     1       1.311  -7.434  -2.883  0.00  0.00    -0.050 Br
ENDBRANCH  22  23
ENDBRANCH  21  22
ENDBRANCH   5  21
TORSDOF 6
