REMARK  Name = ZINC67103493
REMARK  6 active torsions:
REMARK  status: ('A' for Active; 'I' for Inactive)
REMARK    1  A    between atoms: C_1  and  O_2
REMARK    2  A    between atoms: O_2  and  C_3
REMARK    3  A    between atoms: C_6  and  C_9
REMARK    4  A    between atoms: N_17  and  N_18
REMARK    5  A    between atoms: C_19  and  C_21
REMARK    6  A    between atoms: C_21  and  C_22
REMARK                            x       y       z     vdW  Elec       q    Type
REMARK                         _______ _______ _______ _____ _____    ______ ____
ROOT
ATOM      1  C   UNL     1       2.505  -2.503  -4.382  0.00  0.00    +0.038 C 
ATOM      2  C   UNL     1       3.635  -3.454  -3.909  0.00  0.00    +0.029 C 
ATOM      3  C   UNL     1       3.712  -4.493  -5.047  0.00  0.00    +0.110 C 
ATOM      4  N   UNL     1       2.419  -4.471  -5.746  0.00  0.00    -0.284 N 
ATOM      5  C   UNL     1       1.539  -3.491  -5.083  0.00  0.00    +0.117 C 
ATOM      6  C   UNL     1       2.092  -5.222  -6.816  0.00  0.00    +0.319 C 
ATOM      7  O   UNL     1       0.960  -5.188  -7.260  0.00  0.00    -0.251 OA
ATOM      8  N   UNL     1       3.019  -6.010  -7.396  0.00  0.00    -0.218 N 
ATOM      9  H   UNL     1       3.901  -6.093  -7.000  0.00  0.00    +0.174 HD
ENDROOT
BRANCH   1  13
ATOM     10  C   UNL     1       0.606  -0.606  -1.057  0.00  0.00    +0.120 A 
ATOM     11  C   UNL     1       1.173   0.162  -2.064  0.00  0.00    +0.046 A 
ATOM     12  C   UNL     1       1.787  -0.454  -3.138  0.00  0.00    +0.007 A 
ATOM     13  C   UNL     1       1.835  -1.834  -3.209  0.00  0.00    -0.043 A 
ATOM     14  C   UNL     1       1.270  -2.601  -2.207  0.00  0.00    +0.007 A 
ATOM     15  C   UNL     1       0.661  -1.990  -1.128  0.00  0.00    +0.046 A 
BRANCH  10  17
ATOM     16  C   UNL     1      -0.017   1.427   0.008  0.00  0.00    +0.277 C 
ATOM     17  O   UNL     1       0.003  -0.002   0.001  0.00  0.00    -0.495 OA
ENDBRANCH  10  17
ENDBRANCH   1  13
BRANCH   8  18
ATOM     18  N   UNL     1       2.710  -6.709  -8.570  0.00  0.00    -0.233 N 
ATOM     19  C   UNL     1       3.600  -7.575  -9.093  0.00  0.00    +0.229 C 
ATOM     20  O   UNL     1       4.670  -7.748  -8.548  0.00  0.00    -0.274 OA
ATOM     21  H   UNL     1       1.854  -6.571  -9.006  0.00  0.00    +0.173 HD
BRANCH  19  22
ATOM     22  C   UNL     1       3.268  -8.327 -10.356  0.00  0.00    +0.101 C 
BRANCH  22  23
ATOM     23  C   UNL     1       4.440  -9.236 -10.732  0.00  0.00    -0.002 C 
ATOM     24  C   UNL     1       5.658  -8.378 -11.081  0.00  0.00    +0.004 C 
ATOM     25  C   UNL     1       6.830  -9.287 -11.457  0.00  0.00    +0.000 C 
ATOM     26  C   UNL     1       6.445 -10.141 -12.666  0.00  0.00    +0.000 C 
ATOM     27  C   UNL     1       5.227 -10.999 -12.318  0.00  0.00    +0.000 C 
ATOM     28  C   UNL     1       4.054 -10.090 -11.941  0.00  0.00    +0.004 C 
ENDBRANCH  22  23
ENDBRANCH  19  22
ENDBRANCH   8  18
TORSDOF 5
