REMARK  Name = ZINC21235371
REMARK  9 active torsions:
REMARK  status: ('A' for Active; 'I' for Inactive)
REMARK    1  A    between atoms: C_1  and  C_2
REMARK    2  A    between atoms: C_11  and  N_31
REMARK    3  A    between atoms: C_13  and  S_15
REMARK    4  A    between atoms: S_15  and  C_16
REMARK    5  A    between atoms: C_16  and  C_18
REMARK    6  A    between atoms: C_16  and  C_19
REMARK    7  A    between atoms: N_21  and  C_22
REMARK    8  A    between atoms: C_26  and  C_28
REMARK    9  A    between atoms: C_28  and  C_30
REMARK                            x       y       z     vdW  Elec       q    Type
REMARK                         _______ _______ _______ _____ _____    ______ ____
ROOT
ATOM      1  C   UNL     1       5.067  -0.333  -9.185  0.00  0.00    +0.008 C 
ATOM      2  C   UNL     1       4.241  -0.043  -7.930  0.00  0.00    -0.009 C 
ATOM      3  C   UNL     1       3.819  -1.363  -7.277  0.00  0.00    +0.008 C 
ATOM      4  C   UNL     1       2.796  -1.093  -6.173  0.00  0.00    +0.037 C 
ATOM      5  C   UNL     1       3.360  -0.039  -5.225  0.00  0.00    -0.025 A 
ATOM      6  C   UNL     1       4.379   0.756  -5.607  0.00  0.00    -0.004 A 
ATOM      7  S   UNL     1       4.696   1.805  -4.213  0.00  0.00    -0.073 S 
ATOM      8  C   UNL     1       3.454   1.173  -3.115  0.00  0.00    +0.115 A 
ATOM      9  C   UNL     1       2.832   0.161  -3.873  0.00  0.00    +0.051 A 
ATOM     10  C   UNL     1       1.773  -0.530  -3.221  0.00  0.00    +0.129 A 
ATOM     11  N   UNL     1       1.446  -0.194  -1.985  0.00  0.00    -0.207 NA
ATOM     12  C   UNL     1       2.075   0.773  -1.327  0.00  0.00    +0.192 A 
ATOM     13  N   UNL     1       3.066   1.454  -1.887  0.00  0.00    -0.214 NA
ATOM     14  C   UNL     1       5.089   0.752  -6.927  0.00  0.00    +0.046 C 
ENDROOT
BRANCH  10  15
ATOM     15  N   UNL     1       1.094  -1.544  -3.873  0.00  0.00    -0.343 N 
ATOM     16  H   UNL     1       0.276  -2.074  -3.363  0.00  0.00    +0.144 HD
ATOM     17  H   UNL     1       1.371  -1.819  -4.901  0.00  0.00    +0.144 HD
ENDBRANCH  10  15
BRANCH  12  18
ATOM     18  S   UNL     1       1.580   1.162   0.319  0.00  0.00    -0.073 S 
BRANCH  18  19
ATOM     19  C   UNL     1       0.240  -0.035   0.536  0.00  0.00    +0.137 C 
ATOM     20  C   UNL     1      -0.898   0.292  -0.433  0.00  0.00    +0.029 C 
BRANCH  19  21
ATOM     21  C   UNL     1      -0.270   0.033   1.952  0.00  0.00    +0.230 C 
ATOM     22  O   UNL     1      -0.137   1.052   2.596  0.00  0.00    -0.274 OA
ATOM     23  N   UNL     1      -0.874  -1.039   2.503  0.00  0.00    -0.285 N 
ATOM     24  H   UNL     1      -0.926  -1.987   1.947  0.00  0.00    +0.155 HD
BRANCH  23  25
ATOM     25  C   UNL     1      -1.434  -0.946   3.782  0.00  0.00    +0.034 A 
ATOM     26  C   UNL     1      -2.601  -1.640   4.082  0.00  0.00    +0.023 A 
ATOM     27  C   UNL     1      -3.159  -1.552   5.344  0.00  0.00    +0.002 A 
ATOM     28  C   UNL     1      -2.563  -0.775   6.315  0.00  0.00    +0.011 A 
ATOM     29  C   UNL     1      -1.389  -0.073   6.025  0.00  0.00    +0.019 A 
ATOM     30  C   UNL     1      -0.822  -0.167   4.751  0.00  0.00    +0.034 A 
BRANCH  29  31
ATOM     31  C   UNL     1      -0.749   0.756   7.059  0.00  0.00    +0.160 C 
ATOM     32  O   UNL     1       0.269   1.364   6.805  0.00  0.00    -0.292 OA
ATOM     33  C   UNL     1      -1.359   0.850   8.434  0.00  0.00    +0.091 C 
ENDBRANCH  29  31
ENDBRANCH  23  25
ENDBRANCH  19  21
ENDBRANCH  18  19
ENDBRANCH  12  18
TORSDOF 6
