REMARK  Name = ZINC43743502
REMARK  13 active torsions:
REMARK  status: ('A' for Active; 'I' for Inactive)
REMARK    1  A    between atoms: CD1_1  and  CG1_2
REMARK    2  A    between atoms: CG1_2  and  CB_3
REMARK    3  A    between atoms: CB_3  and  CG2_5
REMARK    4  A    between atoms: CB_3  and  CA_6
REMARK    5  A    between atoms: CA_6  and  C_8
REMARK    6  A    between atoms: CA_6  and  N_11
REMARK    7  A    between atoms: C_12  and  C_14
REMARK    8  A    between atoms: C_14  and  O_15
REMARK    9  A    between atoms: O_15  and  N_16
REMARK   10  A    between atoms: C_20  and  C_42
REMARK   11  A    between atoms: C_25  and  C_41
REMARK   12  A    between atoms: C_36  and  C_38
REMARK   13  A    between atoms: C_38  and  C_40
REMARK                            x       y       z     vdW  Elec       q    Type
REMARK                         _______ _______ _______ _____ _____    ______ ____
ROOT
ATOM      1  N   UNK A   0       2.560  -6.313   6.891  0.00  0.00    -0.089 NA
ATOM      2  C   UNK A   0       1.953  -7.426   7.159  0.00  0.00    +0.080 C 
ATOM      3  C   UNK A   0       0.880  -7.994   6.249  0.00  0.00    +0.059 C 
ATOM      4  C   UNK A   0      -0.346  -8.289   7.112  0.00  0.00    +0.017 C 
ATOM      5  C   UNK A   0      -0.025  -9.194   8.276  0.00  0.00    -0.007 C 
ATOM      6  C   UNK A   0      -0.272 -10.665   7.939  0.00  0.00    +0.002 C 
ATOM      7  C   UNK A   0      -1.698 -10.840   7.429  0.00  0.00    +0.005 C 
ATOM      8  C   UNK A   0      -2.039 -12.321   7.196  0.00  0.00    +0.008 C 
ATOM      9  C   UNK A   0      -1.824 -13.044   8.511  0.00  0.00    -0.019 C 
ATOM     10  C   UNK A   0      -0.310 -12.954   8.843  0.00  0.00    -0.001 C 
ATOM     11  C   UNK A   0      -0.035 -11.507   9.205  0.00  0.00    -0.003 C 
ATOM     12  C   UNK A   0       1.417 -11.366   9.660  0.00  0.00    +0.008 C 
ATOM     13  C   UNK A   0       1.707  -9.911  10.045  0.00  0.00    +0.031 C 
ATOM     14  C   UNK A   0       1.347  -9.038   8.854  0.00  0.00    -0.062 C 
ATOM     15  C   UNK A   0       2.269  -8.219   8.363  0.00  0.00    +0.026 C 
ATOM     16  C   UNK A   0      -0.183 -13.964   9.989  0.00  0.00    +0.005 C 
ATOM     17  C   UNK A   0      -1.073 -15.144   9.513  0.00  0.00    +0.012 C 
ATOM     18  C   UNK A   0      -2.095 -14.545   8.514  0.00  0.00    +0.061 C 
ATOM     19  C   UNK A   0      -2.641 -12.368   9.614  0.00  0.00    +0.012 C 
ATOM     20  C   UNK A   0      -1.014  -8.846   9.391  0.00  0.00    +0.016 C 
ENDROOT
BRANCH  18  21
ATOM     21  C   UNK A   0      -1.876 -15.118   7.138  0.00  0.00    +0.134 C 
ATOM     22  O   UNK A   0      -1.067 -14.614   6.396  0.00  0.00    -0.297 OA
ATOM     23  C   UNK A   0      -2.667 -16.319   6.687  0.00  0.00    +0.086 C 
ENDBRANCH  18  21
BRANCH   1  24
ATOM     24  O   UNK A   0       2.224  -5.586   5.724  0.00  0.00    -0.384 OA
BRANCH  24  25
ATOM     25  C   UNK A   0       2.972  -4.380   5.555  0.00  0.00    +0.358 C 
BRANCH  25  27
ATOM     26  N   ILE A   1       3.106  -2.527   3.922  0.00  0.00    -0.299 N 
ATOM     27  C   UNK A   0       2.534  -3.691   4.288  0.00  0.00    +0.254 C 
ATOM     28  O   UNK A   0       1.668  -4.185   3.597  0.00  0.00    -0.272 OA
ATOM     29  H   ILE A   1       3.799  -2.132   4.474  0.00  0.00    +0.150 HD
BRANCH  26  30
ATOM     30  CA  ILE A   1       2.681  -1.858   2.690  0.00  0.00    +0.189 C 
BRANCH  30  31
ATOM     31  C   ILE A   1       3.438  -2.431   1.520  0.00  0.00    +0.376 C 
ATOM     32  O   ILE A   1       4.380  -3.180   1.711  0.00  0.00    -0.244 OA
ATOM     33  OXT ILE A   1       3.108  -2.145   0.381  0.00  0.00    -0.244 OA
ENDBRANCH  30  31
BRANCH  30  34
ATOM     34  CB  ILE A   1       2.968  -0.359   2.799  0.00  0.00    +0.017 C 
ATOM     35  CG2 ILE A   1       4.479  -0.134   2.881  0.00  0.00    +0.010 C 
BRANCH  34  37
ATOM     36  CD1 ILE A   1       2.588   1.869   1.733  0.00  0.00    +0.004 C 
ATOM     37  CG1 ILE A   1       2.412   0.358   1.567  0.00  0.00    +0.002 C 
ENDBRANCH  34  37
ENDBRANCH  30  34
ENDBRANCH  26  30
ENDBRANCH  25  27
ENDBRANCH  24  25
ENDBRANCH   1  24
TORSDOF 8
