REMARK  Name = ZINC48273855
REMARK  6 active torsions:
REMARK  status: ('A' for Active; 'I' for Inactive)
REMARK    1  A    between atoms: C_1  and  C_2
REMARK    2  A    between atoms: C_5  and  C_32
REMARK    3  A    between atoms: C_6  and  S_8
REMARK    4  A    between atoms: S_8  and  N_11
REMARK    5  A    between atoms: N_11  and  C_12
REMARK    6  A    between atoms: C_16  and  C_18
REMARK                            x       y       z     vdW  Elec       q    Type
REMARK                         _______ _______ _______ _____ _____    ______ ____
ROOT
ATOM      1  C   UNL     1      -1.232  -5.140   2.098  0.00  0.00    +0.049 A 
ATOM      2  C   UNL     1      -1.664  -4.863   0.806  0.00  0.00    +0.024 A 
ATOM      3  C   UNL     1      -2.506  -5.742   0.152  0.00  0.00    +0.003 A 
ATOM      4  C   UNL     1      -2.924  -6.900   0.776  0.00  0.00    +0.013 A 
ATOM      5  C   UNL     1      -2.496  -7.187   2.073  0.00  0.00    +0.039 A 
ATOM      6  C   UNL     1      -1.641  -6.303   2.732  0.00  0.00    +0.037 A 
ENDROOT
BRANCH   5   7
ATOM      7  C   UNL     1      -2.942  -8.427   2.744  0.00  0.00    +0.247 C 
ATOM      8  O   UNL     1      -3.132  -8.434   3.944  0.00  0.00    -0.270 OA
ATOM      9  N   UNL     1      -3.139  -9.549   2.024  0.00  0.00    -0.290 N 
ATOM     10  C   UNL     1      -2.797  -9.612   0.592  0.00  0.00    +0.136 C 
ATOM     11  C   UNL     1      -3.998 -10.168  -0.180  0.00  0.00    +0.179 C 
ATOM     12  O   UNL     1      -4.446 -11.384   0.430  0.00  0.00    -0.373 OA
ATOM     13  C   UNL     1      -4.886 -11.217   1.775  0.00  0.00    +0.139 C 
ATOM     14  C   UNL     1      -3.697 -10.762   2.636  0.00  0.00    +0.105 C 
ATOM     15  C   UNL     1      -4.188 -10.479   4.054  0.00  0.00    +0.025 C 
ATOM     16  C   UNL     1      -4.759 -11.772   4.647  0.00  0.00    +0.002 C 
ATOM     17  C   UNL     1      -5.915 -12.277   3.785  0.00  0.00    +0.003 C 
ATOM     18  C   UNL     1      -5.426 -12.525   2.351  0.00  0.00    +0.033 C 
ENDBRANCH   5   7
BRANCH   1  19
ATOM     19  N   UNL     1      -0.380  -4.249   2.756  0.00  0.00    -0.216 N 
ATOM     20  H   UNL     1      -0.553  -4.003   3.678  0.00  0.00    +0.174 HD
BRANCH  19  21
ATOM     21  S   UNL     1       0.927  -3.614   1.961  0.00  0.00    +0.073 S 
ATOM     22  O   UNL     1       1.648  -2.846   2.915  0.00  0.00    -0.150 OA
ATOM     23  O   UNL     1       0.434  -3.057   0.750  0.00  0.00    -0.150 OA
BRANCH  21  29
ATOM     24  C   UNL     1       3.181  -6.666  -1.634  0.00  0.00    +0.044 C 
ATOM     25  C   UNL     1       2.974  -6.329  -0.180  0.00  0.00    -0.049 A 
ATOM     26  C   UNL     1       3.600  -7.077   0.799  0.00  0.00    +0.004 A 
ATOM     27  C   UNL     1       3.410  -6.768   2.133  0.00  0.00    +0.005 A 
ATOM     28  C   UNL     1       2.593  -5.710   2.488  0.00  0.00    -0.024 A 
ATOM     29  C   UNL     1       1.968  -4.962   1.509  0.00  0.00    +0.112 A 
ATOM     30  C   UNL     1       2.162  -5.268   0.175  0.00  0.00    +0.032 A 
ATOM     31  C   UNL     1       2.385  -5.374   3.942  0.00  0.00    +0.046 C 
ENDBRANCH  21  29
ENDBRANCH  19  21
ENDBRANCH   1  19
TORSDOF 4
