REMARK  Name = ZINC38714789
REMARK  10 active torsions:
REMARK  status: ('A' for Active; 'I' for Inactive)
REMARK    1  A    between atoms: C_1  and  C_2
REMARK    2  A    between atoms: C_2  and  N_3
REMARK    3  A    between atoms: N_3  and  C_4
REMARK    4  A    between atoms: N_3  and  C_6
REMARK    5  A    between atoms: C_4  and  C_5
REMARK    6  A    between atoms: C_6  and  C_7
REMARK    7  A    between atoms: C_7  and  C_8
REMARK    8  A    between atoms: C_8  and  N_9
REMARK    9  A    between atoms: C_10  and  C_27
REMARK   10  A    between atoms: C_18  and  C_25
REMARK                            x       y       z     vdW  Elec       q    Type
REMARK                         _______ _______ _______ _____ _____    ______ ____
ROOT
ATOM      1  N   UNL     1      -4.288  -4.606   0.107  0.00  0.00    -0.284 N 
ATOM      2  C   UNL     1      -5.243  -4.759   1.217  0.00  0.00    +0.145 C 
ATOM      3  C   UNL     1      -6.497  -5.292   0.604  0.00  0.00    +0.072 A 
ATOM      4  C   UNL     1      -7.787  -5.653   1.202  0.00  0.00    +0.199 A 
ATOM      5  O   UNL     1      -8.084  -5.393   2.354  0.00  0.00    -0.287 OA
ATOM      6  C   UNL     1      -8.695  -6.365   0.268  0.00  0.00    +0.066 A 
ATOM      7  C   UNL     1      -9.872  -6.949   0.737  0.00  0.00    +0.035 A 
ATOM      8  C   UNL     1     -10.701  -7.611  -0.142  0.00  0.00    +0.045 A 
ATOM      9  C   UNL     1     -10.363  -7.695  -1.487  0.00  0.00    -0.029 A 
ATOM     10  C   UNL     1      -9.206  -7.121  -1.961  0.00  0.00    +0.051 A 
ATOM     11  C   UNL     1      -8.351  -6.443  -1.091  0.00  0.00    +0.140 A 
ATOM     12  O   UNL     1      -7.225  -5.880  -1.585  0.00  0.00    -0.450 OA
ATOM     13  C   UNL     1      -6.280  -5.426  -0.738  0.00  0.00    +0.199 A 
ATOM     14  C   UNL     1      -4.903  -4.992  -1.029  0.00  0.00    +0.283 C 
ATOM     15  O   UNL     1      -4.393  -4.987  -2.132  0.00  0.00    -0.267 OA
ATOM     16  C   UNL     1     -11.276  -8.424  -2.440  0.00  0.00    +0.045 C 
ATOM     17 CL   UNL     1     -12.168  -8.341   0.431  0.00  0.00    -0.083 Cl
ENDROOT
BRANCH   2  18
ATOM     18  C   UNL     1      -4.706  -5.732   2.234  0.00  0.00    -0.021 A 
ATOM     19  C   UNL     1      -4.042  -6.871   1.818  0.00  0.00    +0.007 A 
ATOM     20  C   UNL     1      -3.549  -7.764   2.750  0.00  0.00    +0.022 A 
ATOM     21  C   UNL     1      -3.720  -7.519   4.101  0.00  0.00    +0.059 A 
ATOM     22  C   UNL     1      -4.385  -6.379   4.518  0.00  0.00    +0.060 A 
ATOM     23  C   UNL     1      -4.873  -5.483   3.583  0.00  0.00    +0.027 A 
ATOM     24 CL   UNL     1      -4.600  -6.070   6.213  0.00  0.00    -0.082 Cl
ATOM     25 CL   UNL     1      -3.102  -8.641   5.272  0.00  0.00    -0.082 Cl
ENDBRANCH   2  18
BRANCH   1  26
ATOM     26  C   UNL     1      -2.913  -4.113   0.217  0.00  0.00    +0.107 C 
BRANCH  26  27
ATOM     27  C   UNL     1      -2.901  -2.592   0.048  0.00  0.00    +0.000 C 
BRANCH  27  28
ATOM     28  C   UNL     1      -1.464  -2.078   0.163  0.00  0.00    -0.077 C 
BRANCH  28  29
ATOM     29  N   UNL     1      -1.438  -0.634  -0.108  0.00  0.00    +0.379 N 
ATOM     30  H   UNL     1      -1.863  -0.453  -1.004  0.00  0.00    -0.082 HD
BRANCH  29  32
ATOM     31  C   UNL     1      -2.263   1.562   0.594  0.00  0.00    -0.017 C 
ATOM     32  C   UNL     1      -2.184   0.074   0.941  0.00  0.00    -0.082 C 
ENDBRANCH  29  32
BRANCH  29  33
ATOM     33  C   UNL     1      -0.046  -0.164  -0.121  0.00  0.00    -0.082 C 
ATOM     34  C   UNL     1       0.689  -0.780  -1.313  0.00  0.00    -0.017 C 
ENDBRANCH  29  33
ENDBRANCH  28  29
ENDBRANCH  27  28
ENDBRANCH  26  27
ENDBRANCH   1  26
TORSDOF 7
