REMARK  Name = ZINC42197455
REMARK  6 active torsions:
REMARK  status: ('A' for Active; 'I' for Inactive)
REMARK    1  A    between atoms: C_1  and  C_2
REMARK    2  A    between atoms: C_3  and  C_11
REMARK    3  A    between atoms: C_7  and  N_8
REMARK    4  A    between atoms: C_11  and  S_12
REMARK    5  A    between atoms: S_12  and  C_14
REMARK    6  A    between atoms: C_17  and  N_20
REMARK                            x       y       z     vdW  Elec       q    Type
REMARK                         _______ _______ _______ _____ _____    ______ ____
ROOT
ATOM      1  C   UNL     1      -0.753   0.014  -2.412  0.00  0.00    +0.144 C 
ENDROOT
BRANCH   1   4
ATOM      2  C   UNL     1      -0.542   1.446   0.089  0.00  0.00    +0.046 C 
ATOM      3  C   UNL     1      -0.248  -0.031   0.040  0.00  0.00    -0.016 A 
ATOM      4  C   UNL     1      -0.349  -0.716  -1.157  0.00  0.00    -0.030 A 
ATOM      5  C   UNL     1      -0.080  -2.071  -1.202  0.00  0.00    +0.005 A 
ATOM      6  C   UNL     1       0.291  -2.741  -0.051  0.00  0.00    +0.003 A 
ATOM      7  C   UNL     1       0.392  -2.056   1.145  0.00  0.00    +0.033 A 
ATOM      8  C   UNL     1       0.127  -0.700   1.190  0.00  0.00    +0.129 A 
BRANCH   8   9
ATOM      9  N   UNL     1       0.241   0.035   2.470  0.00  0.00    +0.057 N 
ATOM     10  O   UNL     1       0.674   1.163   2.482  0.00  0.00    -0.126 OA
ATOM     11  O   UNL     1      -0.099  -0.494   3.502  0.00  0.00    -0.126 OA
ENDBRANCH   8   9
ENDBRANCH   1   4
BRANCH   1  12
ATOM     12  S   UNL     1       0.728   0.646  -3.247  0.00  0.00    +0.058 S 
ATOM     13  O   UNL     1       1.297   1.694  -2.475  0.00  0.00    -0.252 OA
BRANCH  12  14
ATOM     14  C   UNL     1       0.096   1.462  -4.675  0.00  0.00    +0.039 A 
ATOM     15  C   UNL     1      -0.072   0.760  -5.854  0.00  0.00    +0.019 A 
ATOM     16  C   UNL     1      -0.567   1.397  -6.975  0.00  0.00    +0.024 A 
ATOM     17  C   UNL     1      -0.896   2.745  -6.917  0.00  0.00    +0.025 A 
ATOM     18  C   UNL     1      -0.726   3.448  -5.731  0.00  0.00    +0.024 A 
ATOM     19  C   UNL     1      -0.236   2.804  -4.612  0.00  0.00    +0.019 A 
BRANCH  17  20
ATOM     20  N   UNL     1      -1.396   3.393  -8.049  0.00  0.00    -0.358 N 
ATOM     21  H   UNL     1      -1.514   2.901  -8.876  0.00  0.00    +0.142 HD
ATOM     22  H   UNL     1      -1.625   4.335  -8.007  0.00  0.00    +0.142 HD
ENDBRANCH  17  20
ENDBRANCH  12  14
ENDBRANCH   1  12
TORSDOF 5
