REMARK  Name = ZINC13998252
REMARK  7 active torsions:
REMARK  status: ('A' for Active; 'I' for Inactive)
REMARK    1  A    between atoms: C_1  and  O_2
REMARK    2  A    between atoms: O_2  and  C_3
REMARK    3  A    between atoms: C_9  and  O_29
REMARK    4  A    between atoms: C_18  and  C_19
REMARK    5  A    between atoms: C_18  and  N_54
REMARK    6  A    between atoms: C_19  and  C_21
REMARK    7  A    between atoms: C_19  and  O_28
REMARK                            x       y       z     vdW  Elec       q    Type
REMARK                         _______ _______ _______ _____ _____    ______ ____
ROOT
ATOM      1  C   UNL     1      -1.848   2.398   0.371  0.00  0.00    +0.121 A 
ATOM      2  C   UNL     1      -1.642   1.028   0.291  0.00  0.00    +0.049 A 
ATOM      3  C   UNL     1      -0.358   0.528   0.224  0.00  0.00    +0.049 A 
ATOM      4  C   UNL     1       0.732   1.392   0.228  0.00  0.00    +0.127 A 
ATOM      5  C   UNL     1       0.527   2.758   0.305  0.00  0.00    +0.026 A 
ATOM      6  C   UNL     1      -0.762   3.259   0.375  0.00  0.00    +0.055 A 
ATOM      7  C   UNL     1       1.682   3.727   0.318  0.00  0.00    +0.152 C 
ATOM      8  C   UNL     1       2.941   3.035  -0.211  0.00  0.00    +0.084 C 
ATOM      9  C   UNL     1       3.087   1.687   0.503  0.00  0.00    +0.110 C 
ATOM     10  O   UNL     1       1.980   0.859   0.148  0.00  0.00    -0.485 OA
ATOM     11  C   UNL     1       4.393   1.018   0.069  0.00  0.00    +0.029 C 
ATOM     12  C   UNL     1       4.565  -0.298   0.832  0.00  0.00    -0.075 C 
ATOM     13  C   UNL     1       3.318   0.567   2.722  0.00  0.00    -0.075 C 
ATOM     14  C   UNL     1       3.107   1.908   2.016  0.00  0.00    +0.029 C 
ATOM     15  N   UNL     1       4.607  -0.009   2.281  0.00  0.00    +0.382 N 
ATOM     16  H   UNL     1       5.355   0.669   2.464  0.00  0.00    -0.082 HD
ENDROOT
BRANCH   1  18
ATOM     17  C   UNL     1      -4.182   1.948   0.431  0.00  0.00    +0.277 C 
ATOM     18  O   UNL     1      -3.112   2.894   0.440  0.00  0.00    -0.495 OA
ENDBRANCH   1  18
BRANCH   7  19
ATOM     19  O   UNL     1       1.371   4.848  -0.513  0.00  0.00    -0.387 OA
ATOM     20  H   UNL     1       0.583   5.335  -0.237  0.00  0.00    +0.210 HD
ENDBRANCH   7  19
BRANCH  15  21
ATOM     21  C   UNL     1       4.889  -1.249   3.034  0.00  0.00    -0.042 C 
BRANCH  21  22
ATOM     22  C   UNL     1       5.388  -0.870   4.430  0.00  0.00    +0.128 C 
BRANCH  22  23
ATOM     23  C   UNL     1       5.630  -2.122   5.234  0.00  0.00    -0.021 A 
ATOM     24  C   UNL     1       6.834  -2.792   5.124  0.00  0.00    +0.007 A 
ATOM     25  C   UNL     1       7.058  -3.937   5.864  0.00  0.00    +0.015 A 
ATOM     26  C   UNL     1       6.073  -4.419   6.708  0.00  0.00    +0.018 A 
ATOM     27  C   UNL     1       4.866  -3.751   6.814  0.00  0.00    +0.015 A 
ATOM     28  C   UNL     1       4.645  -2.603   6.077  0.00  0.00    +0.007 A 
ATOM     29 BR   UNL     1       6.377  -5.989   7.716  0.00  0.00    -0.050 Br
ENDBRANCH  22  23
BRANCH  22  30
ATOM     30  O   UNL     1       6.607  -0.134   4.316  0.00  0.00    -0.389 OA
ATOM     31  H   UNL     1       7.321  -0.620   3.881  0.00  0.00    +0.210 HD
ENDBRANCH  22  30
ENDBRANCH  21  22
ENDBRANCH  15  21
TORSDOF 6
