REMARK  Name = ZINC40891409
REMARK  6 active torsions:
REMARK  status: ('A' for Active; 'I' for Inactive)
REMARK    1  A    between atoms: C_1  and  C_2
REMARK    2  A    between atoms: C_2  and  N_3
REMARK    3  A    between atoms: C_4  and  C_6
REMARK    4  A    between atoms: C_11  and  O_17
REMARK    5  A    between atoms: O_17  and  C_18
REMARK    6  A    between atoms: C_18  and  C_20
REMARK                            x       y       z     vdW  Elec       q    Type
REMARK                         _______ _______ _______ _____ _____    ______ ____
ROOT
ATOM      1  C   UNL     1      -2.943  -2.422   0.096  0.00  0.00    +0.122 A 
ATOM      2  C   UNL     1      -3.229  -3.779   0.001  0.00  0.00    +0.031 A 
ATOM      3  C   UNL     1      -4.588  -4.175  -0.017  0.00  0.00    +0.019 A 
ATOM      4  C   UNL     1      -4.936  -5.531   0.090  0.00  0.00    +0.015 A 
ATOM      5  C   UNL     1      -6.249  -5.895   0.114  0.00  0.00    +0.047 A 
ATOM      6  C   UNL     1      -7.253  -4.931   0.024  0.00  0.00    +0.135 A 
ATOM      7  C   UNL     1      -6.930  -3.590  -0.102  0.00  0.00    +0.093 A 
ATOM      8  C   UNL     1      -5.600  -3.201  -0.135  0.00  0.00    +0.143 A 
ATOM      9  O   UNL     1      -5.272  -1.897  -0.302  0.00  0.00    -0.422 OA
ATOM     10  C   UNL     1      -4.083  -1.496   0.211  0.00  0.00    +0.350 A 
ATOM     11  O   UNL     1      -3.959  -0.409   0.745  0.00  0.00    -0.244 OA
ENDROOT
BRANCH   1  13
ATOM     12  N   UNL     1      -1.309  -0.609   0.188  0.00  0.00    -0.311 N 
ATOM     13  C   UNL     1      -1.556  -1.930   0.088  0.00  0.00    +0.251 C 
ATOM     14  O   UNL     1      -0.632  -2.716  -0.009  0.00  0.00    -0.270 OA
ATOM     15  H   UNL     1      -2.045   0.018   0.264  0.00  0.00    +0.149 HD
BRANCH  12  17
ATOM     16  C   UNL     1       0.073   1.405   0.304  0.00  0.00    +0.024 C 
ATOM     17  C   UNL     1       0.072  -0.119   0.179  0.00  0.00    +0.101 C 
ENDBRANCH  12  17
ENDBRANCH   1  13
BRANCH   6  18
ATOM     18  O   UNL     1      -8.556  -5.310   0.060  0.00  0.00    -0.422 OA
BRANCH  18  19
ATOM     19  C   UNL     1      -9.045  -5.786   1.222  0.00  0.00    +0.344 C 
ATOM     20  O   UNL     1      -8.357  -5.768   2.223  0.00  0.00    -0.245 OA
BRANCH  19  21
ATOM     21  C   UNL     1     -10.417  -6.329   1.279  0.00  0.00    +0.061 A 
ATOM     22  C   UNL     1     -11.208  -6.356   0.128  0.00  0.00    +0.016 A 
ATOM     23  C   UNL     1     -12.489  -6.864   0.187  0.00  0.00    +0.022 A 
ATOM     24  C   UNL     1     -12.991  -7.346   1.384  0.00  0.00    +0.059 A 
ATOM     25  C   UNL     1     -12.211  -7.323   2.530  0.00  0.00    +0.060 A 
ATOM     26  C   UNL     1     -10.926  -6.822   2.482  0.00  0.00    +0.036 A 
ATOM     27 CL   UNL     1     -12.850  -7.930   4.025  0.00  0.00    -0.082 Cl
ATOM     28 CL   UNL     1     -14.605  -7.983   1.450  0.00  0.00    -0.082 Cl
ENDBRANCH  19  21
ENDBRANCH  18  19
ENDBRANCH   6  18
TORSDOF 5
