REMARK  Name = ZINC13479390
REMARK  9 active torsions:
REMARK  status: ('A' for Active; 'I' for Inactive)
REMARK    1  A    between atoms: C_1  and  N_2
REMARK    2  A    between atoms: N_2  and  C_3
REMARK    3  A    between atoms: N_2  and  S_28
REMARK    4  A    between atoms: C_3  and  C_4
REMARK    5  A    between atoms: C_4  and  C_6
REMARK    6  A    between atoms: C_4  and  C_21
REMARK    7  A    between atoms: C_6  and  C_7
REMARK    8  A    between atoms: C_7  and  N_71
REMARK    9  A    between atoms: S_28  and  C_31
REMARK                            x       y       z     vdW  Elec       q    Type
REMARK                         _______ _______ _______ _____ _____    ______ ____
ROOT
ATOM      1  C   UNL     1      -0.037   1.099  -2.490  0.00  0.00    +0.033 C 
ENDROOT
BRANCH   1   2
ATOM      2  C   UNL     1      -0.123  -0.404  -2.561  0.00  0.00    -0.042 A 
ATOM      3  C   UNL     1      -1.358  -1.023  -2.609  0.00  0.00    +0.004 A 
ATOM      4  C   UNL     1      -1.438  -2.401  -2.679  0.00  0.00    +0.002 A 
ATOM      5  C   UNL     1      -0.284  -3.162  -2.690  0.00  0.00    +0.020 A 
ATOM      6  C   UNL     1       0.952  -2.542  -2.637  0.00  0.00    +0.041 A 
ATOM      7  C   UNL     1       1.032  -1.162  -2.572  0.00  0.00    +0.024 A 
ATOM      8 CL   UNL     1       2.403  -3.496  -2.650  0.00  0.00    -0.084 Cl
ENDBRANCH   1   2
BRANCH   1   9
ATOM      9  C   UNL     1      -0.702   1.707  -3.727  0.00  0.00    +0.117 C 
BRANCH   9  11
ATOM     10  C   UNL     1       1.218   2.123  -5.333  0.00  0.00    +0.131 C 
ATOM     11  N   UNL     1       0.056   1.331  -4.923  0.00  0.00    -0.179 NA
BRANCH  11  12
ATOM     12  S   UNL     1      -0.403   0.012  -5.813  0.00  0.00    +0.061 S 
ATOM     13  O   UNL     1       0.753  -0.428  -6.512  0.00  0.00    -0.153 OA
ATOM     14  O   UNL     1      -1.131  -0.836  -4.936  0.00  0.00    -0.153 OA
BRANCH  12  15
ATOM     15  C   UNL     1      -1.544   0.576  -7.031  0.00  0.00    +0.105 A 
ATOM     16  C   UNL     1      -2.898   0.596  -6.753  0.00  0.00    +0.028 A 
ATOM     17  C   UNL     1      -3.792   1.043  -7.707  0.00  0.00    +0.002 A 
ATOM     18  C   UNL     1      -3.334   1.460  -8.943  0.00  0.00    +0.000 A 
ATOM     19  C   UNL     1      -1.981   1.435  -9.223  0.00  0.00    +0.002 A 
ATOM     20  C   UNL     1      -1.085   0.993  -8.267  0.00  0.00    +0.028 A 
ENDBRANCH  12  15
ENDBRANCH  11  12
ENDBRANCH   9  11
ENDBRANCH   1   9
BRANCH   1  21
ATOM     21  C   UNL     1      -0.753   1.593  -1.232  0.00  0.00    -0.009 C 
BRANCH  21  22
ATOM     22  C   UNL     1      -0.013   1.086   0.008  0.00  0.00    -0.078 C 
BRANCH  22  36
ATOM     23  C   UNL     1      -0.623   3.022   1.327  0.00  0.00    -0.078 C 
ATOM     24  C   UNL     1      -1.479   3.490   2.507  0.00  0.00    -0.007 C 
ATOM     25  C   UNL     1      -0.984   2.822   3.787  0.00  0.00    -0.007 C 
ATOM     26  C   UNL     1       0.444   3.297   4.110  0.00  0.00    +0.016 C 
ATOM     27  C   UNL     1       0.436   3.335   5.654  0.00  0.00    +0.036 C 
ATOM     28  C   UNL     1      -1.013   3.544   6.039  0.00  0.00    -0.044 A 
ATOM     29  C   UNL     1      -1.831   3.245   4.963  0.00  0.00    -0.038 A 
ATOM     30  C   UNL     1      -3.204   3.363   5.090  0.00  0.00    +0.004 A 
ATOM     31  C   UNL     1      -3.760   3.779   6.284  0.00  0.00    +0.000 A 
ATOM     32  C   UNL     1      -2.943   4.078   7.358  0.00  0.00    +0.000 A 
ATOM     33  C   UNL     1      -1.573   3.960   7.235  0.00  0.00    +0.004 A 
ATOM     34  C   UNL     1      -1.006   1.303   3.634  0.00  0.00    -0.007 C 
ATOM     35  C   UNL     1      -0.165   0.905   2.417  0.00  0.00    -0.078 C 
ATOM     36  N   UNL     1      -0.730   1.551   1.213  0.00  0.00    +0.380 N 
ATOM     37  H   UNL     1      -1.720   1.295   1.131  0.00  0.00    -0.082 HD
ENDBRANCH  22  36
ENDBRANCH  21  22
ENDBRANCH   1  21
TORSDOF 8
