REMARK  Name = ZINC04931090
REMARK  8 active torsions:
REMARK  status: ('A' for Active; 'I' for Inactive)
REMARK    1  A    between atoms: C_1  and  C_2
REMARK    2  A    between atoms: C_2  and  C_3
REMARK    3  A    between atoms: C_3  and  C_4
REMARK    4  A    between atoms: N_6  and  C_7
REMARK    5  A    between atoms: C_7  and  C_9
REMARK    6  A    between atoms: C_7  and  C_16
REMARK    7  A    between atoms: C_9  and  C_10
REMARK    8  A    between atoms: N_18  and  C_19
REMARK                            x       y       z     vdW  Elec       q    Type
REMARK                         _______ _______ _______ _____ _____    ______ ____
ROOT
ATOM      1  C   UNL     1      -1.290   1.666   0.006  0.00  0.00    +0.163 C 
ENDROOT
BRANCH   1   4
ATOM      2  C   UNL     1       1.146   1.637  -0.013  0.00  0.00    +0.214 C 
ATOM      3  O   UNL     1       1.131   2.850   0.003  0.00  0.00    -0.276 OA
ATOM      4  N   UNL     1      -0.013   0.949  -0.010  0.00  0.00    -0.304 N 
ATOM      5  H   UNL     1      -0.001  -0.020  -0.023  0.00  0.00    +0.149 HD
BRANCH   2   6
ATOM      6  C   UNL     1       2.460   0.900  -0.036  0.00  0.00    +0.095 C 
BRANCH   6   8
ATOM      7  C   UNL     1       4.945   1.160  -0.058  0.00  0.00    +0.004 C 
ATOM      8  C   UNL     1       3.611   1.908  -0.034  0.00  0.00    +0.006 C 
ENDBRANCH   6   8
ENDBRANCH   2   6
ENDBRANCH   1   4
BRANCH   1   9
ATOM      9  C   UNL     1      -1.387   2.548  -1.212  0.00  0.00    +0.238 C 
ATOM     10  O   UNL     1      -0.383   2.863  -1.814  0.00  0.00    -0.273 OA
ATOM     11  N   UNL     1      -2.591   2.986  -1.633  0.00  0.00    -0.283 N 
ATOM     12  H   UNL     1      -3.399   2.682  -1.192  0.00  0.00    +0.155 HD
BRANCH  11  13
ATOM     13  C   UNL     1      -2.674   3.880  -2.708  0.00  0.00    +0.052 A 
ATOM     14  C   UNL     1      -1.769   3.791  -3.757  0.00  0.00    +0.026 A 
ATOM     15  C   UNL     1      -1.853   4.674  -4.816  0.00  0.00    +0.022 A 
ATOM     16  C   UNL     1      -2.837   5.647  -4.832  0.00  0.00    +0.042 A 
ATOM     17  C   UNL     1      -3.740   5.739  -3.787  0.00  0.00    +0.041 A 
ATOM     18  C   UNL     1      -3.664   4.854  -2.728  0.00  0.00    +0.064 A 
ATOM     19 CL   UNL     1      -4.802   4.963  -1.421  0.00  0.00    -0.082 Cl
ATOM     20 CL   UNL     1      -2.939   6.755  -6.164  0.00  0.00    -0.083 Cl
ENDBRANCH  11  13
ENDBRANCH   1   9
BRANCH   1  21
ATOM     21  C   UNL     1      -1.375   2.528   1.268  0.00  0.00    +0.067 C 
BRANCH  21  22
ATOM     22  C   UNL     1      -1.402   1.638   2.483  0.00  0.00    -0.045 A 
ATOM     23  C   UNL     1      -2.610   1.196   2.990  0.00  0.00    +0.004 A 
ATOM     24  C   UNL     1      -2.634   0.376   4.102  0.00  0.00    +0.000 A 
ATOM     25  C   UNL     1      -1.451   0.006   4.714  0.00  0.00    +0.000 A 
ATOM     26  C   UNL     1      -0.244   0.453   4.211  0.00  0.00    +0.000 A 
ATOM     27  C   UNL     1      -0.219   1.268   3.095  0.00  0.00    +0.004 A 
ENDBRANCH  21  22
ENDBRANCH   1  21
TORSDOF 7
