REMARK  Name = ZINC33253743
REMARK  11 active torsions:
REMARK  status: ('A' for Active; 'I' for Inactive)
REMARK    1  A    between atoms: C_1  and  C_2
REMARK    2  A    between atoms: C_2  and  C_3
REMARK    3  A    between atoms: C_2  and  C_4
REMARK    4  A    between atoms: C_4  and  C_5
REMARK    5  A    between atoms: C_8  and  S_11
REMARK    6  A    between atoms: S_11  and  N_14
REMARK    7  A    between atoms: N_14  and  C_15
REMARK    8  A    between atoms: C_18  and  N_24
REMARK    9  A    between atoms: C_19  and  C_21
REMARK   10  A    between atoms: C_28  and  C_31
REMARK   11  A    between atoms: C_31  and  N_32
REMARK                            x       y       z     vdW  Elec       q    Type
REMARK                         _______ _______ _______ _____ _____    ______ ____
ROOT
ATOM      1  C   UNL     1       0.963  -0.359   0.896  0.00  0.00    +0.049 A 
ATOM      2  C   UNL     1       2.144   0.095   1.477  0.00  0.00    +0.026 A 
ATOM      3  C   UNL     1       2.663  -0.538   2.587  0.00  0.00    +0.026 A 
ATOM      4  C   UNL     1       2.015  -1.642   3.128  0.00  0.00    +0.044 A 
ATOM      5  C   UNL     1       0.827  -2.108   2.544  0.00  0.00    +0.086 A 
ATOM      6  C   UNL     1       0.306  -1.457   1.423  0.00  0.00    +0.041 A 
ENDROOT
BRANCH   4   7
ATOM      7  N   UNL     1       2.543  -2.283   4.244  0.00  0.00    -0.329 N 
ATOM      8  C   UNL     1       3.852  -2.876   3.940  0.00  0.00    +0.105 C 
ATOM      9  C   UNL     1       4.334  -3.693   5.141  0.00  0.00    +0.019 C 
ATOM     10  C   UNL     1       4.439  -2.779   6.365  0.00  0.00    +0.005 C 
ATOM     11  C   UNL     1       3.075  -2.137   6.630  0.00  0.00    -0.010 C 
ATOM     12  C   UNL     1       2.629  -1.365   5.387  0.00  0.00    +0.106 C 
BRANCH  11  13
ATOM     13  C   UNL     1       3.184  -1.177   7.817  0.00  0.00    -0.074 C 
BRANCH  13  14
ATOM     14  N   UNL     1       1.857  -0.629   8.127  0.00  0.00    +0.380 N 
ATOM     15  C   UNL     1       0.892  -1.714   8.439  0.00  0.00    -0.079 C 
ATOM     16  C   UNL     1      -0.224  -0.982   9.225  0.00  0.00    -0.020 C 
ATOM     17  C   UNL     1       0.565   0.045  10.069  0.00  0.00    -0.020 C 
ATOM     18  C   UNL     1       1.906   0.226   9.334  0.00  0.00    -0.079 C 
ATOM     19  H   UNL     1       1.555  -0.055   7.239  0.00  0.00    -0.082 HD
ENDBRANCH  13  14
ENDBRANCH  11  13
ENDBRANCH   4   7
BRANCH   5  20
ATOM     20  C   UNL     1       0.134  -3.278   3.111  0.00  0.00    +0.388 C 
ATOM     21  O   UNL     1       0.590  -3.842   4.086  0.00  0.00    -0.241 OA
ATOM     22  O   UNL     1      -1.007  -3.723   2.547  0.00  0.00    -0.241 OA
ENDBRANCH   5  20
BRANCH   1  23
ATOM     23  N   UNL     1       0.442   0.293  -0.227  0.00  0.00    -0.216 N 
ATOM     24  H   UNL     1       0.916   0.159  -1.211  0.00  0.00    +0.174 HD
BRANCH  23  25
ATOM     25  S   UNL     1      -0.889   1.268  -0.076  0.00  0.00    +0.072 S 
ATOM     26  O   UNL     1      -1.138   1.818  -1.362  0.00  0.00    -0.150 OA
ATOM     27  O   UNL     1      -1.864   0.516   0.634  0.00  0.00    -0.150 OA
BRANCH  25  31
ATOM     28  C   UNL     1       0.281   4.724   2.603  0.00  0.00    -0.047 A 
ATOM     29  C   UNL     1       0.360   4.857   1.229  0.00  0.00    +0.005 A 
ATOM     30  C   UNL     1       0.003   3.802   0.411  0.00  0.00    +0.029 A 
ATOM     31  C   UNL     1      -0.433   2.613   0.967  0.00  0.00    +0.109 A 
ATOM     32  C   UNL     1      -0.517   2.482   2.341  0.00  0.00    +0.029 A 
ATOM     33  C   UNL     1      -0.155   3.536   3.159  0.00  0.00    +0.005 A 
BRANCH  28  34
ATOM     34  C   UNL     1       0.672   5.875   3.495  0.00  0.00    +0.038 C 
BRANCH  34  36
ATOM     35  C   UNL     1      -1.585   5.949   4.565  0.00  0.00    +0.007 C 
ATOM     36  C   UNL     1      -0.554   6.749   3.766  0.00  0.00    -0.013 C 
ATOM     37  C   UNL     1      -0.133   7.983   4.567  0.00  0.00    +0.007 C 
ENDBRANCH  34  36
ENDBRANCH  28  34
ENDBRANCH  25  31
ENDBRANCH  23  25
ENDBRANCH   1  23
TORSDOF 9
