REMARK  Name = ZINC00251879
REMARK  7 active torsions:
REMARK  status: ('A' for Active; 'I' for Inactive)
REMARK    1  A    between atoms: C_1  and  C_2
REMARK    2  A    between atoms: C_6  and  N_8
REMARK    3  A    between atoms: N_8  and  C_9
REMARK    4  A    between atoms: C_9  and  C_10
REMARK    5  A    between atoms: N_12  and  N_13
REMARK    6  A    between atoms: C_14  and  C_15
REMARK    7  A    between atoms: C_24  and  O_25
REMARK                            x       y       z     vdW  Elec       q    Type
REMARK                         _______ _______ _______ _____ _____    ______ ____
ROOT
ATOM      1  C   UNL     1       0.084  -4.774   3.796  0.00  0.00    +0.249 C 
ATOM      2  O   UNL     1       0.079  -3.993   4.724  0.00  0.00    -0.272 OA
ATOM      3  N   UNL     1       0.103  -6.101   4.033  0.00  0.00    -0.206 N 
ATOM      4  H   UNL     1       0.108  -6.726   3.291  0.00  0.00    +0.177 HD
ENDROOT
BRANCH   3   5
ATOM      5  N   UNL     1       0.116  -6.578   5.350  0.00  0.00    -0.188 NA
ATOM      6  C   UNL     1       0.134  -7.857   5.578  0.00  0.00    +0.142 C 
BRANCH   6   7
ATOM      7  C   UNL     1       0.147  -8.357   6.960  0.00  0.00    +0.044 A 
ATOM      8  C   UNL     1       0.174  -9.793   7.234  0.00  0.00    -0.006 A 
ATOM      9  C   UNL     1       0.187 -10.734   6.199  0.00  0.00    +0.009 A 
ATOM     10  C   UNL     1       0.212 -12.064   6.497  0.00  0.00    +0.001 A 
ATOM     11  C   UNL     1       0.225 -12.500   7.820  0.00  0.00    +0.001 A 
ATOM     12  C   UNL     1       0.212 -11.611   8.851  0.00  0.00    +0.008 A 
ATOM     13  C   UNL     1       0.186 -10.232   8.581  0.00  0.00    -0.017 A 
ATOM     14  C   UNL     1       0.174  -9.285   9.619  0.00  0.00    +0.012 A 
ATOM     15  C   UNL     1       0.150  -7.954   9.346  0.00  0.00    +0.046 A 
ATOM     16  C   UNL     1       0.141  -7.472   8.038  0.00  0.00    +0.126 A 
BRANCH  16  17
ATOM     17  O   UNL     1       0.122  -6.134   7.812  0.00  0.00    -0.506 OA
ATOM     18  H   UNL     1      -0.767  -5.758   7.751  0.00  0.00    +0.292 HD
ENDBRANCH  16  17
ENDBRANCH   6   7
ENDBRANCH   3   5
BRANCH   1  19
ATOM     19  C   UNL     1       0.071  -4.261   2.379  0.00  0.00    +0.199 C 
BRANCH  19  20
ATOM     20  N   UNL     1       0.051  -2.796   2.390  0.00  0.00    -0.335 N 
ATOM     21  H   UNL     1       0.049  -2.318   3.234  0.00  0.00    +0.147 HD
BRANCH  20  27
ATOM     22  C   UNL     1      -0.018   1.503   0.010  0.00  0.00    +0.044 C 
ATOM     23  C   UNL     1       0.002  -0.004   0.002  0.00  0.00    -0.049 A 
ATOM     24  C   UNL     1       0.006  -0.688  -1.200  0.00  0.00    +0.003 A 
ATOM     25  C   UNL     1       0.024  -2.071  -1.212  0.00  0.00    +0.002 A 
ATOM     26  C   UNL     1       0.039  -2.773  -0.023  0.00  0.00    +0.023 A 
ATOM     27  C   UNL     1       0.036  -2.089   1.186  0.00  0.00    +0.028 A 
ATOM     28  C   UNL     1       0.023  -0.700   1.194  0.00  0.00    +0.026 A 
ENDBRANCH  20  27
ENDBRANCH  19  20
ENDBRANCH   1  19
TORSDOF 6
