REMARK  Name = ZINC00115001
REMARK  6 active torsions:
REMARK  status: ('A' for Active; 'I' for Inactive)
REMARK    1  A    between atoms: C_4  and  C_7
REMARK    2  A    between atoms: N_8  and  N_9
REMARK    3  A    between atoms: C_10  and  C_12
REMARK    4  A    between atoms: C_12  and  C_13
REMARK    5  A    between atoms: C_12  and  C_19
REMARK    6  A    between atoms: C_12  and  O_25
REMARK                            x       y       z     vdW  Elec       q    Type
REMARK                         _______ _______ _______ _____ _____    ______ ____
ROOT
ATOM      1  C   UNL     1       0.002  -0.004   0.002  0.00  0.00    +0.194 C 
ENDROOT
BRANCH   1   2
ATOM      2  C   UNL     1      -0.070   1.496   0.130  0.00  0.00    -0.003 A 
ATOM      3  C   UNL     1      -1.117   2.081   0.818  0.00  0.00    +0.007 A 
ATOM      4  C   UNL     1      -1.181   3.457   0.939  0.00  0.00    +0.000 A 
ATOM      5  C   UNL     1      -0.204   4.247   0.364  0.00  0.00    +0.000 A 
ATOM      6  C   UNL     1       0.840   3.662  -0.329  0.00  0.00    +0.000 A 
ATOM      7  C   UNL     1       0.907   2.287  -0.446  0.00  0.00    +0.007 A 
ENDBRANCH   1   2
BRANCH   1   8
ATOM      8  C   UNL     1      -1.284  -0.521  -0.589  0.00  0.00    -0.003 A 
ATOM      9  C   UNL     1      -2.399  -0.678   0.213  0.00  0.00    +0.007 A 
ATOM     10  C   UNL     1      -3.581  -1.147  -0.330  0.00  0.00    +0.000 A 
ATOM     11  C   UNL     1      -3.644  -1.469  -1.673  0.00  0.00    +0.000 A 
ATOM     12  C   UNL     1      -2.528  -1.317  -2.474  0.00  0.00    +0.000 A 
ATOM     13  C   UNL     1      -1.348  -0.843  -1.932  0.00  0.00    +0.007 A 
ENDBRANCH   1   8
BRANCH   1  15
ATOM     14  N   UNL     1       0.794  -1.824   1.478  0.00  0.00    -0.204 N 
ATOM     15  C   UNL     1       0.210  -0.615   1.364  0.00  0.00    +0.273 C 
ATOM     16  O   UNL     1      -0.148  -0.018   2.357  0.00  0.00    -0.270 OA
ATOM     17  H   UNL     1       1.080  -2.301   0.684  0.00  0.00    +0.177 HD
BRANCH  14  19
ATOM     18  C   UNL     1       1.550  -3.556   2.854  0.00  0.00    +0.138 C 
ATOM     19  N   UNL     1       0.988  -2.392   2.744  0.00  0.00    -0.188 NA
BRANCH  18  23
ATOM     20  C   UNL     1       2.136  -5.276   6.690  0.00  0.00    +0.000 A 
ATOM     21  C   UNL     1       2.546  -5.960   5.559  0.00  0.00    +0.001 A 
ATOM     22  C   UNL     1       2.358  -5.407   4.309  0.00  0.00    +0.009 A 
ATOM     23  C   UNL     1       1.753  -4.154   4.187  0.00  0.00    -0.005 A 
ATOM     24  C   UNL     1       1.347  -3.467   5.333  0.00  0.00    +0.009 A 
ATOM     25  C   UNL     1       1.536  -4.034   6.577  0.00  0.00    +0.001 A 
ENDBRANCH  18  23
ENDBRANCH  14  19
ENDBRANCH   1  15
BRANCH   1  26
ATOM     26  O   UNL     1       1.093  -0.357  -0.850  0.00  0.00    -0.371 OA
ATOM     27  H   UNL     1       1.955  -0.056  -0.531  0.00  0.00    +0.212 HD
ENDBRANCH   1  26
TORSDOF 6
