REMARK  Name = ZINC12796047
REMARK  12 active torsions:
REMARK  status: ('A' for Active; 'I' for Inactive)
REMARK    1  A    between atoms: C_1  and  C_2
REMARK    2  A    between atoms: C_2  and  N_3
REMARK    3  A    between atoms: N_3  and  C_4
REMARK    4  A    between atoms: N_3  and  S_6
REMARK    5  A    between atoms: C_4  and  C_5
REMARK    6  A    between atoms: S_6  and  C_9
REMARK    7  A    between atoms: C_12  and  C_15
REMARK    8  A    between atoms: C_15  and  C_17
REMARK    9  A    between atoms: C_15  and  N_18
REMARK   10  A    between atoms: N_18  and  C_19
REMARK   11  A    between atoms: C_19  and  C_20
REMARK   12  A    between atoms: N_22  and  N_23
REMARK                            x       y       z     vdW  Elec       q    Type
REMARK                         _______ _______ _______ _____ _____    ______ ____
ROOT
ATOM      1  N   UNL     1       0.625   4.734  -6.067  0.00  0.00    -0.302 NA
ATOM      2  H   UNL     1       1.215   4.555  -5.269  0.00  0.00    +0.123 HD
ENDROOT
BRANCH   1   3
ATOM      3  C   UNL     1      -0.700   4.126  -5.888  0.00  0.00    +0.081 C 
ATOM      4  C   UNL     1      -1.286   3.768  -7.255  0.00  0.00    +0.029 C 
BRANCH   3   8
ATOM      5  C   UNL     1      -0.337   0.586  -3.526  0.00  0.00    +0.105 A 
ATOM      6  C   UNL     1      -1.405   1.441  -3.329  0.00  0.00    +0.029 A 
ATOM      7  C   UNL     1      -1.523   2.587  -4.094  0.00  0.00    +0.007 A 
ATOM      8  C   UNL     1      -0.572   2.877  -5.054  0.00  0.00    -0.031 A 
ATOM      9  C   UNL     1       0.497   2.023  -5.250  0.00  0.00    +0.007 A 
ATOM     10  C   UNL     1       0.616   0.879  -4.482  0.00  0.00    +0.029 A 
BRANCH   5  11
ATOM     11  S   UNL     1      -0.188  -0.875  -2.551  0.00  0.00    +0.061 S 
ATOM     12  O   UNL     1       0.610  -1.782  -3.300  0.00  0.00    -0.153 OA
ATOM     13  O   UNL     1      -1.496  -1.201  -2.104  0.00  0.00    -0.153 OA
BRANCH  11  14
ATOM     14  N   UNL     1       0.688  -0.476  -1.203  0.00  0.00    -0.177 NA
BRANCH  14  16
ATOM     15  C   UNL     1      -0.019   1.526   0.010  0.00  0.00    +0.022 C 
ATOM     16  C   UNL     1       0.002  -0.004   0.002  0.00  0.00    +0.106 C 
ENDBRANCH  14  16
BRANCH  14  17
ATOM     17  C   UNL     1       2.148  -0.597  -1.216  0.00  0.00    +0.106 C 
ATOM     18  C   UNL     1       2.553  -1.951  -0.632  0.00  0.00    +0.022 C 
ENDBRANCH  14  17
ENDBRANCH  11  14
ENDBRANCH   5  11
ENDBRANCH   3   8
ENDBRANCH   1   3
BRANCH   1  19
ATOM     19  C   UNL     1       0.512   6.176  -6.326  0.00  0.00    +0.179 C 
BRANCH  19  20
ATOM     20  C   UNL     1       1.888   6.763  -6.503  0.00  0.00    +0.244 C 
ATOM     21  O   UNL     1       2.867   6.051  -6.422  0.00  0.00    -0.273 OA
ATOM     22  N   UNL     1       2.032   8.080  -6.752  0.00  0.00    -0.223 N 
ATOM     23  H   UNL     1       1.249   8.650  -6.817  0.00  0.00    +0.174 HD
BRANCH  22  24
ATOM     24  N   UNL     1       3.311   8.627  -6.918  0.00  0.00    -0.137 N 
ATOM     25  C   UNL     1       3.943   9.373  -5.988  0.00  0.00    +0.263 C 
ATOM     26  O   UNL     1       3.528   9.687  -4.893  0.00  0.00    -0.271 OA
ATOM     27  C   UNL     1       5.277   9.735  -6.599  0.00  0.00    +0.114 C 
ATOM     28  C   UNL     1       6.417   9.172  -5.758  0.00  0.00    +0.035 C 
ATOM     29  C   UNL     1       7.757   9.523  -6.411  0.00  0.00    +0.003 C 
ATOM     30  C   UNL     1       7.886  11.044  -6.521  0.00  0.00    +0.000 C 
ATOM     31  C   UNL     1       6.748  11.591  -7.386  0.00  0.00    +0.003 C 
ATOM     32  C   UNL     1       5.405  11.248  -6.738  0.00  0.00    +0.035 C 
ATOM     33  N   UNL     1       5.248   9.097  -7.921  0.00  0.00    -0.284 N 
ATOM     34  C   UNL     1       4.061   8.468  -8.015  0.00  0.00    +0.326 C 
ATOM     35  O   UNL     1       3.709   7.830  -8.988  0.00  0.00    -0.251 OA
ATOM     36  H   UNL     1       5.947   9.121  -8.593  0.00  0.00    +0.151 HD
ENDBRANCH  22  24
ENDBRANCH  19  20
ENDBRANCH   1  19
TORSDOF 9
