REMARK  Name = ZINC37413662
REMARK  3 active torsions:
REMARK  status: ('A' for Active; 'I' for Inactive)
REMARK    1  A    between atoms: C_2  and  N_12
REMARK    2  A    between atoms: C_13  and  C_15
REMARK    3  A    between atoms: C_18  and  O_22
REMARK                            x       y       z     vdW  Elec       q    Type
REMARK                         _______ _______ _______ _____ _____    ______ ____
ROOT
ATOM      1  N   UNL     1       1.156   3.494   0.010  0.00  0.00    -0.286 N 
ATOM      2  C   UNL     1      -0.017   4.152  -0.077  0.00  0.00    +0.203 C 
ATOM      3  O   UNL     1      -1.061   3.535  -0.071  0.00  0.00    -0.277 OA
ATOM      4  H   UNL     1       1.987   3.990   0.070  0.00  0.00    +0.155 HD
ENDROOT
BRANCH   1   6
ATOM      5  C   UNL     1       0.148   1.386   0.624  0.00  0.00    +0.073 A 
ATOM      6  C   UNL     1       1.174   2.093   0.013  0.00  0.00    +0.051 A 
ATOM      7  C   UNL     1       2.219   1.410  -0.596  0.00  0.00    +0.043 A 
ATOM      8  C   UNL     1       2.237   0.028  -0.594  0.00  0.00    +0.066 A 
ATOM      9  C   UNL     1       1.212  -0.681   0.015  0.00  0.00    +0.163 A 
ATOM     10  C   UNL     1       0.166   0.000   0.627  0.00  0.00    +0.164 A 
ATOM     11  O   UNL     1      -0.844  -0.678   1.237  0.00  0.00    -0.485 OA
ATOM     12  C   UNL     1      -0.987  -2.062   0.898  0.00  0.00    +0.270 C 
ATOM     13  C   UNL     1       0.401  -2.714   0.945  0.00  0.00    +0.270 C 
ATOM     14  O   UNL     1       1.244  -2.042   0.003  0.00  0.00    -0.485 OA
ATOM     15 BR   UNL     1       3.619   2.372  -1.428  0.00  0.00    -0.048 Br
ENDBRANCH   1   6
BRANCH   2  16
ATOM     16  C   UNL     1      -0.031   5.655  -0.183  0.00  0.00    +0.019 C 
ATOM     17  C   UNL     1       0.158   6.282   1.215  0.00  0.00    +0.023 C 
ATOM     18  C   UNL     1      -0.793   7.508   1.180  0.00  0.00    +0.097 C 
ATOM     19  C   UNL     1      -1.972   6.965   0.333  0.00  0.00    -0.050 C 
ATOM     20  N   UNL     1      -1.336   6.110  -0.697  0.00  0.00    +0.388 N 
ATOM     21  H   UNL     1      -1.202   6.639  -1.545  0.00  0.00    -0.085 HD
ATOM     22  H   UNL     1      -1.924   5.311  -0.885  0.00  0.00    -0.085 HD
BRANCH  18  23
ATOM     23  O   UNL     1      -1.225   7.858   2.496  0.00  0.00    -0.394 OA
ATOM     24  H   UNL     1      -1.821   8.619   2.525  0.00  0.00    +0.210 HD
ENDBRANCH  18  23
ENDBRANCH   2  16
TORSDOF 3
