REMARK  Name = ZINC08941385
REMARK  5 active torsions:
REMARK  status: ('A' for Active; 'I' for Inactive)
REMARK    1  A    between atoms: C_1  and  C_2
REMARK    2  A    between atoms: C_8  and  N_10
REMARK    3  A    between atoms: C_14  and  C_16
REMARK    4  A    between atoms: C_16  and  N_17
REMARK    5  A    between atoms: C_25  and  C_27
REMARK                            x       y       z     vdW  Elec       q    Type
REMARK                         _______ _______ _______ _____ _____    ______ ____
ROOT
ATOM      1  N   UNL     1       5.843   0.511  -3.235  0.00  0.00    -0.296 N 
ATOM      2  C   UNL     1       4.583   0.914  -2.975  0.00  0.00    +0.306 C 
ATOM      3  O   UNL     1       3.822   1.159  -3.890  0.00  0.00    -0.252 OA
ATOM      4  N   UNL     1       4.168   1.044  -1.699  0.00  0.00    -0.239 N 
ATOM      5  C   UNL     1       2.908   1.447  -1.439  0.00  0.00    +0.238 C 
ATOM      6  O   UNL     1       2.149   1.692  -2.352  0.00  0.00    -0.274 OA
ATOM      7  H   UNL     1       6.450   0.314  -2.505  0.00  0.00    +0.151 HD
ATOM      8  H   UNL     1       4.775   0.848  -0.969  0.00  0.00    +0.159 HD
ENDROOT
BRANCH   1  15
ATOM      9  C   UNL     1       6.961  -1.995  -4.163  0.00  0.00    +0.009 C 
ATOM     10  C   UNL     1       7.444  -0.639  -4.683  0.00  0.00    +0.006 C 
ATOM     11  C   UNL     1       8.603  -0.144  -3.817  0.00  0.00    +0.005 C 
ATOM     12  C   UNL     1       9.086   1.211  -4.337  0.00  0.00    +0.000 C 
ATOM     13  C   UNL     1       7.937   2.220  -4.275  0.00  0.00    +0.002 C 
ATOM     14  C   UNL     1       6.777   1.724  -5.142  0.00  0.00    +0.022 C 
ATOM     15  C   UNL     1       6.294   0.369  -4.622  0.00  0.00    +0.077 C 
ENDBRANCH   1  15
BRANCH   5  16
ATOM     16  C   UNL     1       2.443   1.592  -0.013  0.00  0.00    +0.214 C 
BRANCH  16  17
ATOM     17  N   UNL     1       1.048   2.039   0.003  0.00  0.00    -0.215 N 
ATOM     18  C   UNL     1      -0.014   1.208   0.009  0.00  0.00    +0.247 C 
ATOM     19  O   UNL     1       0.002  -0.004   0.002  0.00  0.00    -0.273 OA
ATOM     20  C   UNL     1      -1.230   2.107   0.018  0.00  0.00    +0.115 C 
ATOM     21  C   UNL     1      -2.059   1.866   1.275  0.00  0.00    +0.035 C 
ATOM     22  C   UNL     1      -2.597   0.433   1.266  0.00  0.00    +0.003 C 
ATOM     23  C   UNL     1      -3.457   0.221   0.018  0.00  0.00    +0.000 C 
ATOM     24  C   UNL     1      -2.608   0.445  -1.234  0.00  0.00    +0.006 C 
ATOM     25  C   UNL     1      -2.069   1.879  -1.234  0.00  0.00    +0.018 C 
ATOM     26  C   UNL     1      -1.203   2.098  -2.475  0.00  0.00    +0.010 C 
ATOM     27  N   UNL     1      -0.670   3.464   0.026  0.00  0.00    -0.285 N 
ATOM     28  C   UNL     1       0.670   3.324   0.013  0.00  0.00    +0.310 C 
ATOM     29  O   UNL     1       1.447   4.257   0.010  0.00  0.00    -0.252 OA
ATOM     30  H   UNL     1      -1.166   4.297   0.035  0.00  0.00    +0.151 HD
ENDBRANCH  16  17
ENDBRANCH   5  16
TORSDOF 3
