REMARK  Name = ZINC64340196
REMARK  10 active torsions:
REMARK  status: ('A' for Active; 'I' for Inactive)
REMARK    1  A    between atoms: C_1  and  C_2
REMARK    2  A    between atoms: C_2  and  C_3
REMARK    3  A    between atoms: C_2  and  C_4
REMARK    4  A    between atoms: C_12  and  C_14
REMARK    5  A    between atoms: C_14  and  C_16
REMARK    6  A    between atoms: C_14  and  N_26
REMARK    7  A    between atoms: C_16  and  C_17
REMARK    8  A    between atoms: C_27  and  O_29
REMARK    9  A    between atoms: O_29  and  C_30
REMARK   10  A    between atoms: C_30  and  C_31
REMARK                            x       y       z     vdW  Elec       q    Type
REMARK                         _______ _______ _______ _____ _____    ______ ____
ROOT
ATOM      1  C   UNL     1       6.654  -1.387  -2.645  0.00  0.00    +0.166 C 
ENDROOT
BRANCH   1  10
ATOM      2  C   UNL     1       0.748   0.337  -2.061  0.00  0.00    +0.218 C 
ATOM      3  O   UNL     1       0.151  -0.180  -2.981  0.00  0.00    -0.275 OA
ATOM      4  N   UNL     1       2.096   0.330  -2.044  0.00  0.00    -0.298 N 
ATOM      5  C   UNL     1       2.832   0.852  -0.884  0.00  0.00    +0.126 C 
ATOM      6  C   UNL     1       3.782  -0.239  -0.375  0.00  0.00    +0.127 C 
ATOM      7  N   UNL     1       4.542  -0.770  -1.515  0.00  0.00    -0.297 N 
ATOM      8  C   UNL     1       3.806  -1.293  -2.675  0.00  0.00    +0.127 C 
ATOM      9  C   UNL     1       2.856  -0.207  -3.182  0.00  0.00    +0.126 C 
ATOM     10  C   UNL     1       5.889  -0.778  -1.498  0.00  0.00    +0.236 C 
ATOM     11  O   UNL     1       6.487  -0.295  -0.559  0.00  0.00    -0.274 OA
BRANCH   2  13
ATOM     12  C   UNL     1      -1.388   1.435  -1.445  0.00  0.00    +0.017 C 
ATOM     13  C   UNL     1      -0.016   0.988  -0.937  0.00  0.00    +0.069 C 
ATOM     14  C   UNL     1      -0.196  -0.014   0.205  0.00  0.00    +0.017 C 
ENDBRANCH   2  13
ENDBRANCH   1  10
BRANCH   1  15
ATOM     15  N   UNL     1       8.082  -1.103  -2.485  0.00  0.00    -0.270 N 
ATOM     16  C   UNL     1       8.890  -1.081  -3.563  0.00  0.00    +0.401 C 
ATOM     17  O   UNL     1       8.434  -1.297  -4.668  0.00  0.00    -0.226 OA
ATOM     18  H   UNL     1       8.447  -0.931  -1.602  0.00  0.00    +0.153 HD
BRANCH  16  19
ATOM     19  O   UNL     1      10.203  -0.820  -3.416  0.00  0.00    -0.446 OA
BRANCH  19  20
ATOM     20  C   UNL     1      11.000  -0.813  -4.602  0.00  0.00    +0.269 C 
BRANCH  20  21
ATOM     21  C   UNL     1      12.431  -0.505  -4.244  0.00  0.00    -0.010 A 
ATOM     22  C   UNL     1      12.869   0.805  -4.213  0.00  0.00    +0.007 A 
ATOM     23  C   UNL     1      14.182   1.088  -3.884  0.00  0.00    +0.000 A 
ATOM     24  C   UNL     1      15.056   0.059  -3.587  0.00  0.00    +0.000 A 
ATOM     25  C   UNL     1      14.618  -1.251  -3.617  0.00  0.00    +0.000 A 
ATOM     26  C   UNL     1      13.304  -1.533  -3.941  0.00  0.00    +0.007 A 
ENDBRANCH  20  21
ENDBRANCH  19  20
ENDBRANCH  16  19
ENDBRANCH   1  15
BRANCH   1  27
ATOM     27  C   UNL     1       6.434  -2.901  -2.658  0.00  0.00    +0.065 C 
BRANCH  27  28
ATOM     28  C   UNL     1       7.118  -3.498  -3.861  0.00  0.00    -0.039 C 
ATOM     29  C   UNL     1       8.354  -4.046  -3.904  0.00  0.00    -0.001 A 
ATOM     30  C   UNL     1       9.391  -4.243  -2.884  0.00  0.00    +0.010 A 
ATOM     31  C   UNL     1      10.553  -4.836  -3.237  0.00  0.00    +0.001 A 
ATOM     32  C   UNL     1      10.793  -5.267  -4.549  0.00  0.00    +0.002 A 
ATOM     33  C   UNL     1       9.889  -5.121  -5.541  0.00  0.00    +0.026 A 
ATOM     34  C   UNL     1       8.631  -4.510  -5.282  0.00  0.00    +0.043 A 
ATOM     35  N   UNL     1       7.606  -4.258  -6.061  0.00  0.00    -0.380 N 
ATOM     36  C   UNL     1       6.560  -3.610  -5.262  0.00  0.00    +0.144 C 
ATOM     37  H   UNL     1       7.548  -4.468  -7.006  0.00  0.00    +0.160 HD
ENDBRANCH  27  28
ENDBRANCH   1  27
TORSDOF 8
