REMARK  Name = ZINC12752695
REMARK  11 active torsions:
REMARK  status: ('A' for Active; 'I' for Inactive)
REMARK    1  A    between atoms: C_1  and  C_2
REMARK    2  A    between atoms: C_2  and  C_9
REMARK    3  A    between atoms: C_9  and  S_10
REMARK    4  A    between atoms: S_10  and  C_11
REMARK    5  A    between atoms: C_16  and  C_17
REMARK    6  A    between atoms: N_19  and  C_20
REMARK    7  A    between atoms: C_20  and  C_21
REMARK    8  A    between atoms: C_21  and  C_23
REMARK    9  A    between atoms: C_21  and  N_64
REMARK   10  A    between atoms: C_26  and  O_29
REMARK   11  A    between atoms: O_29  and  C_30
REMARK                            x       y       z     vdW  Elec       q    Type
REMARK                         _______ _______ _______ _____ _____    ______ ____
ROOT
ATOM      1  C   UNL     1      -1.745   3.424  -4.631  0.00  0.00    +0.245 C 
ATOM      2  O   UNL     1      -2.551   2.839  -5.330  0.00  0.00    -0.270 OA
ATOM      3  N   UNL     1      -1.103   2.765  -3.646  0.00  0.00    -0.313 N 
ATOM      4  H   UNL     1      -0.460   3.231  -3.089  0.00  0.00    +0.149 HD
ENDROOT
BRANCH   1  10
ATOM      5  C   UNL     1      -2.138   5.545  -5.886  0.00  0.00    +0.020 A 
ATOM      6  C   UNL     1      -1.870   6.894  -6.092  0.00  0.00    +0.015 A 
ATOM      7  C   UNL     1      -0.955   7.546  -5.293  0.00  0.00    +0.001 A 
ATOM      8  C   UNL     1      -0.295   6.867  -4.281  0.00  0.00    +0.001 A 
ATOM      9  C   UNL     1      -0.551   5.532  -4.058  0.00  0.00    +0.014 A 
ATOM     10  C   UNL     1      -1.471   4.854  -4.861  0.00  0.00    +0.050 A 
BRANCH   5  11
ATOM     11  S   UNL     1      -3.307   4.708  -6.904  0.00  0.00    -0.122 S 
BRANCH  11  12
ATOM     12  C   UNL     1      -3.885   5.988  -8.052  0.00  0.00    +0.109 C 
BRANCH  12  14
ATOM     13  C   UNL     1      -4.349   4.153  -9.708  0.00  0.00    +0.042 C 
ATOM     14  C   UNL     1      -4.919   5.388  -9.007  0.00  0.00    +0.119 C 
ATOM     15  C   UNL     1      -5.368   6.419 -10.023  0.00  0.00    +0.244 C 
ATOM     16  O   UNL     1      -4.680   6.984 -10.845  0.00  0.00    -0.273 OA
ATOM     17  N   UNL     1      -6.692   6.575  -9.823  0.00  0.00    -0.238 N 
ATOM     18  C   UNL     1      -7.137   5.795  -8.831  0.00  0.00    +0.307 C 
ATOM     19  O   UNL     1      -8.295   5.760  -8.466  0.00  0.00    -0.252 OA
ATOM     20  N   UNL     1      -6.156   5.048  -8.283  0.00  0.00    -0.285 N 
ATOM     21  H   UNL     1      -7.253   7.179 -10.335  0.00  0.00    +0.159 HD
ATOM     22  H   UNL     1      -6.247   4.412  -7.556  0.00  0.00    +0.151 HD
ENDBRANCH  12  14
ENDBRANCH  11  12
ENDBRANCH   5  11
ENDBRANCH   1  10
BRANCH   3  23
ATOM     23  C   UNL     1      -1.375   1.344  -3.418  0.00  0.00    +0.094 C 
BRANCH  23  24
ATOM     24  C   UNL     1      -0.650   0.883  -2.152  0.00  0.00    -0.020 C 
BRANCH  24  25
ATOM     25  C   UNL     1      -0.876  -0.594  -1.953  0.00  0.00    -0.059 A 
ATOM     26  C   UNL     1      -2.117  -1.054  -1.550  0.00  0.00    +0.005 A 
ATOM     27  C   UNL     1      -2.328  -2.407  -1.372  0.00  0.00    +0.046 A 
ATOM     28  C   UNL     1      -1.292  -3.304  -1.586  0.00  0.00    +0.120 A 
ATOM     29  C   UNL     1      -0.047  -2.840  -1.985  0.00  0.00    +0.046 A 
ATOM     30  C   UNL     1       0.158  -1.486  -2.167  0.00  0.00    +0.005 A 
BRANCH  28  31
ATOM     31  O   UNL     1      -1.496  -4.636  -1.406  0.00  0.00    -0.495 OA
ATOM     32  C   UNL     1      -2.803  -5.042  -0.995  0.00  0.00    +0.277 C 
ENDBRANCH  28  31
ENDBRANCH  24  25
BRANCH  24  37
ATOM     33  C   UNL     1      -0.830   3.062  -1.081  0.00  0.00    -0.078 C 
ATOM     34  C   UNL     1      -0.939   3.580   0.369  0.00  0.00    -0.020 C 
ATOM     35  C   UNL     1      -0.735   2.329   1.255  0.00  0.00    -0.020 C 
ATOM     36  C   UNL     1      -0.520   1.165   0.263  0.00  0.00    -0.078 C 
ATOM     37  N   UNL     1      -1.159   1.637  -0.963  0.00  0.00    +0.385 N 
ATOM     38  H   UNL     1      -2.177   1.516  -0.898  0.00  0.00    -0.081 HD
ENDBRANCH  24  37
ENDBRANCH  23  24
ENDBRANCH   3  23
TORSDOF 9
