REMARK  Name = ZINC07237021
REMARK  9 active torsions:
REMARK  status: ('A' for Active; 'I' for Inactive)
REMARK    1  A    between atoms: C_1  and  C_2
REMARK    2  A    between atoms: C_2  and  C_3
REMARK    3  A    between atoms: C_2  and  N_4
REMARK    4  A    between atoms: C_14  and  S_15
REMARK    5  A    between atoms: S_15  and  C_16
REMARK    6  A    between atoms: C_16  and  C_17
REMARK    7  A    between atoms: C_17  and  C_19
REMARK    8  A    between atoms: C_22  and  O_26
REMARK    9  A    between atoms: C_23  and  O_25
REMARK                            x       y       z     vdW  Elec       q    Type
REMARK                         _______ _______ _______ _____ _____    ______ ____
ROOT
ATOM      1  N   UNL     1      -0.698   1.558   1.213  0.00  0.00    -0.285 N 
ATOM      2  C   UNL     1      -0.835   2.887   1.430  0.00  0.00    +0.263 A 
ATOM      3  O   UNL     1      -0.397   3.703   0.641  0.00  0.00    -0.267 OA
ATOM      4  C   UNL     1      -1.531   3.308   2.654  0.00  0.00    +0.065 A 
ATOM      5  C   UNL     1      -1.720   4.654   2.965  0.00  0.00    +0.017 A 
ATOM      6  C   UNL     1      -2.373   4.996   4.116  0.00  0.00    +0.021 A 
ATOM      7  C   UNL     1      -2.852   4.017   4.980  0.00  0.00    +0.043 A 
ATOM      8  C   UNL     1      -2.678   2.680   4.696  0.00  0.00    +0.048 A 
ATOM      9  C   UNL     1      -2.013   2.305   3.526  0.00  0.00    +0.080 A 
ATOM     10  N   UNL     1      -1.819   1.004   3.206  0.00  0.00    -0.223 NA
ATOM     11  C   UNL     1      -1.200   0.654   2.106  0.00  0.00    +0.173 A 
ATOM     12 CL   UNL     1      -3.678   4.485   6.433  0.00  0.00    -0.083 Cl
ENDROOT
BRANCH   1  14
ATOM     13  C   UNL     1       1.423   1.615  -0.003  0.00  0.00    +0.031 C 
ATOM     14  C   UNL     1      -0.013   1.086   0.008  0.00  0.00    +0.087 C 
ATOM     15  C   UNL     1      -0.753   1.593  -1.232  0.00  0.00    +0.031 C 
ENDBRANCH   1  14
BRANCH  11  16
ATOM     16  S   UNL     1      -0.997  -1.063   1.766  0.00  0.00    -0.080 S 
BRANCH  16  17
ATOM     17  C   UNL     1      -1.816  -1.770   3.217  0.00  0.00    +0.157 C 
BRANCH  17  18
ATOM     18  C   UNL     1      -1.764  -3.274   3.140  0.00  0.00    +0.173 C 
ATOM     19  O   UNL     1      -1.226  -3.815   2.197  0.00  0.00    -0.291 OA
BRANCH  18  20
ATOM     20  C   UNL     1      -2.365  -4.085   4.207  0.00  0.00    +0.022 A 
ATOM     21  C   UNL     1      -2.981  -3.462   5.299  0.00  0.00    +0.015 A 
ATOM     22  C   UNL     1      -3.550  -4.225   6.295  0.00  0.00    +0.050 A 
ATOM     23  C   UNL     1      -3.502  -5.611   6.226  0.00  0.00    +0.158 A 
ATOM     24  C   UNL     1      -2.884  -6.239   5.144  0.00  0.00    +0.159 A 
ATOM     25  C   UNL     1      -2.318  -5.482   4.138  0.00  0.00    +0.060 A 
BRANCH  24  26
ATOM     26  O   UNL     1      -2.841  -7.597   5.080  0.00  0.00    -0.503 OA
ATOM     27  H   UNL     1      -2.059  -7.985   5.497  0.00  0.00    +0.292 HD
ENDBRANCH  24  26
BRANCH  23  28
ATOM     28  O   UNL     1      -4.059  -6.358   7.213  0.00  0.00    -0.503 OA
ATOM     29  H   UNL     1      -3.452  -6.570   7.936  0.00  0.00    +0.292 HD
ENDBRANCH  23  28
ENDBRANCH  18  20
ENDBRANCH  17  18
ENDBRANCH  16  17
ENDBRANCH  11  16
TORSDOF 7
