REMARK  Name = ZINC39359352
REMARK  3 active torsions:
REMARK  status: ('A' for Active; 'I' for Inactive)
REMARK    1  A    between atoms: C_1  and  C_2
REMARK    2  A    between atoms: C_5  and  C_24
REMARK    3  A    between atoms: C_16  and  C_19
REMARK                            x       y       z     vdW  Elec       q    Type
REMARK                         _______ _______ _______ _____ _____    ______ ____
ROOT
ATOM      1  C   UNL     1      -0.019   1.526   0.010  0.00  0.00    +0.017 C 
ATOM      2  C   UNL     1       0.002  -0.004   0.002  0.00  0.00    +0.052 C 
ATOM      3  C   UNL     1      -1.399  -0.535   0.042  0.00  0.00    +0.004 C 
ATOM      4  C   UNL     1      -2.222  -1.026  -0.852  0.00  0.00    +0.064 C 
ATOM      5  N   UNL     1      -3.349  -1.488  -0.252  0.00  0.00    -0.157 NA
ATOM      6  N   UNL     1      -3.387  -1.314   0.973  0.00  0.00    -0.160 NA
ATOM      7  C   UNL     1      -2.173  -0.594   1.363  0.00  0.00    +0.241 C 
ATOM      8  N   UNL     1      -1.306  -1.378   2.245  0.00  0.00    -0.321 N 
ATOM      9  C   UNL     1       0.047  -1.146   2.243  0.00  0.00    +0.013 C 
ATOM     10  C   UNL     1       0.710  -0.521   1.246  0.00  0.00    +0.019 C 
ATOM     11  C   UNL     1       2.098  -0.309   1.306  0.00  0.00    +0.162 C 
ATOM     12  O   UNL     1       2.655   0.248   0.381  0.00  0.00    -0.292 OA
ATOM     13  C   UNL     1       2.910  -0.758   2.490  0.00  0.00    +0.088 C 
ATOM     14  C   UNL     1       2.010  -0.755   3.731  0.00  0.00    +0.039 C 
ATOM     15  C   UNL     1       0.802  -1.656   3.454  0.00  0.00    +0.060 C 
ATOM     16  C   UNL     1      -1.956  -1.071  -2.334  0.00  0.00    +0.067 C 
ATOM     17  H   UNL     1      -1.685  -2.056   2.826  0.00  0.00    +0.148 HD
ENDROOT
BRANCH  14  18
ATOM     18  C   UNL     1       2.777  -1.280   4.916  0.00  0.00    -0.006 A 
ATOM     19  C   UNL     1       3.059  -0.666   6.091  0.00  0.00    +0.011 A 
ATOM     20  C   UNL     1       3.786  -1.350   7.048  0.00  0.00    +0.008 A 
ATOM     21  C   UNL     1       4.197  -2.614   6.782  0.00  0.00    +0.045 A 
ATOM     22  S   UNL     1       3.545  -2.876   5.140  0.00  0.00    -0.101 S 
ENDBRANCH  14  18
TORSDOF 1
