REMARK  Name = ZINC66557575
REMARK  8 active torsions:
REMARK  status: ('A' for Active; 'I' for Inactive)
REMARK    1  A    between atoms: C_1  and  C_2
REMARK    2  A    between atoms: C_5  and  C_22
REMARK    3  A    between atoms: C_6  and  S_8
REMARK    4  A    between atoms: S_8  and  C_9
REMARK    5  A    between atoms: C_9  and  C_10
REMARK    6  A    between atoms: N_12  and  N_13
REMARK    7  A    between atoms: C_14  and  C_16
REMARK    8  A    between atoms: C_17  and  C_21
REMARK                            x       y       z     vdW  Elec       q    Type
REMARK                         _______ _______ _______ _____ _____    ______ ____
ROOT
ATOM      1  C   UNL     1       0.058  -2.323   5.341  0.00  0.00    +0.239 C 
ATOM      2  O   UNL     1       0.074  -3.531   5.447  0.00  0.00    -0.273 OA
ATOM      3  N   UNL     1       0.052  -1.549   6.445  0.00  0.00    -0.233 N 
ATOM      4  H   UNL     1       0.039  -0.583   6.359  0.00  0.00    +0.173 HD
ENDROOT
BRANCH   3   5
ATOM      5  N   UNL     1       0.066  -2.140   7.715  0.00  0.00    -0.230 N 
ATOM      6  C   UNL     1       0.061  -1.367   8.818  0.00  0.00    +0.267 C 
ATOM      7  O   UNL     1       0.044  -0.154   8.711  0.00  0.00    -0.268 OA
ATOM      8  H   UNL     1       0.079  -3.107   7.800  0.00  0.00    +0.173 HD
BRANCH   6   9
ATOM      9  C   UNL     1       0.075  -1.985  10.147  0.00  0.00    +0.078 A 
ATOM     10  C   UNL     1       0.067  -1.378  11.394  0.00  0.00    -0.031 A 
ATOM     11  C   UNL     1       0.085  -2.230  12.472  0.00  0.00    +0.011 A 
ATOM     12  C   UNL     1       0.108  -3.568  12.255  0.00  0.00    +0.046 A 
ATOM     13  S   UNL     1       0.099  -3.714  10.582  0.00  0.00    -0.092 S 
ATOM     14  C   UNL     1       0.041   0.120  11.556  0.00  0.00    +0.045 C 
ENDBRANCH   6   9
ENDBRANCH   3   5
BRANCH   1  15
ATOM     15  C   UNL     1       0.043  -1.687   3.975  0.00  0.00    +0.171 C 
BRANCH  15  16
ATOM     16  S   UNL     1       0.055  -2.982   2.705  0.00  0.00    -0.116 S 
BRANCH  16  22
ATOM     17  C   UNL     1      -0.018   1.503   0.010  0.00  0.00    +0.044 C 
ATOM     18  C   UNL     1       0.002  -0.004   0.002  0.00  0.00    -0.049 A 
ATOM     19  C   UNL     1       0.006  -0.688  -1.200  0.00  0.00    +0.004 A 
ATOM     20  C   UNL     1       0.024  -2.071  -1.213  0.00  0.00    +0.005 A 
ATOM     21  C   UNL     1       0.040  -2.774  -0.024  0.00  0.00    -0.037 A 
ATOM     22  C   UNL     1       0.036  -2.090   1.186  0.00  0.00    +0.011 A 
ATOM     23  C   UNL     1       0.023  -0.700   1.194  0.00  0.00    +0.018 A 
ATOM     24  C   UNL     1       0.059  -4.280  -0.038  0.00  0.00    +0.045 C 
ENDBRANCH  16  22
ENDBRANCH  15  16
ENDBRANCH   1  15
TORSDOF 5
