REMARK  Name = ZINC62613659
REMARK  5 active torsions:
REMARK  status: ('A' for Active; 'I' for Inactive)
REMARK    1  A    between atoms: C_6  and  C_7
REMARK    2  A    between atoms: C_7  and  C_9
REMARK    3  A    between atoms: N_12  and  C_15
REMARK    4  A    between atoms: C_15  and  C_16
REMARK    5  A    between atoms: N_21  and  C_22
REMARK                            x       y       z     vdW  Elec       q    Type
REMARK                         _______ _______ _______ _____ _____    ______ ____
ROOT
ATOM      1  C   UNL     1      -2.574  -0.028   0.037  0.00  0.00    +0.057 C 
ATOM      2  C   UNL     1      -3.040   0.232  -1.399  0.00  0.00    -0.007 C 
ATOM      3  C   UNL     1      -4.413   0.907  -1.370  0.00  0.00    -0.077 C 
ATOM      4  N   UNL     1      -5.377   0.033  -0.692  0.00  0.00    +0.385 N 
ATOM      5  C   UNL     1      -4.975  -0.162   0.707  0.00  0.00    -0.077 C 
ATOM      6  C   UNL     1      -3.624  -0.878   0.758  0.00  0.00    -0.007 C 
ATOM      7  H   UNL     1      -5.407  -0.861  -1.160  0.00  0.00    -0.081 HD
ENDROOT
BRANCH   1   8
ATOM      8  C   UNL     1      -1.258  -0.762   0.015  0.00  0.00    +0.166 C 
ATOM      9  O   UNL     1      -1.241  -1.975  -0.001  0.00  0.00    -0.292 OA
BRANCH   8  15
ATOM     10  C   UNL     1      -0.015   1.390   0.031  0.00  0.00    +0.015 A 
ATOM     11  C   UNL     1       1.168   2.096   0.030  0.00  0.00    +0.048 A 
ATOM     12  C   UNL     1       2.381   1.422   0.010  0.00  0.00    +0.142 A 
ATOM     13  C   UNL     1       2.407   0.024  -0.008  0.00  0.00    +0.076 A 
ATOM     14  C   UNL     1       1.227  -0.691  -0.007  0.00  0.00    +0.038 A 
ATOM     15  C   UNL     1       0.003  -0.010   0.013  0.00  0.00    +0.020 A 
ATOM     16  N   UNL     1       3.643  -0.638  -0.030  0.00  0.00    -0.280 N 
ATOM     17  C   UNL     1       4.761   0.053   0.285  0.00  0.00    +0.255 C 
ATOM     18  O   UNL     1       5.844  -0.490   0.244  0.00  0.00    -0.272 OA
ATOM     19  C   UNL     1       4.655   1.502   0.686  0.00  0.00    +0.325 C 
ATOM     20  O   UNL     1       3.552   2.110   0.010  0.00  0.00    -0.481 OA
ATOM     21  H   UNL     1       3.695  -1.577  -0.266  0.00  0.00    +0.155 HD
ENDBRANCH   8  15
ENDBRANCH   1   8
BRANCH   4  22
ATOM     22  C   UNL     1      -6.710   0.650  -0.735  0.00  0.00    +0.019 C 
BRANCH  22  23
ATOM     23  C   UNL     1      -7.722  -0.300  -0.149  0.00  0.00    +0.204 C 
ATOM     24  O   UNL     1      -7.369  -1.384   0.264  0.00  0.00    -0.277 OA
ATOM     25  N   UNL     1      -9.021   0.055  -0.084  0.00  0.00    -0.241 N 
ATOM     26  C   UNL     1      -9.927  -0.794   0.441  0.00  0.00    +0.310 C 
ATOM     27  O   UNL     1      -9.572  -1.880   0.855  0.00  0.00    -0.252 OA
ATOM     28  N   UNL     1     -11.225  -0.439   0.506  0.00  0.00    -0.269 N 
ATOM     29  H   UNL     1      -9.303   0.922  -0.414  0.00  0.00    +0.159 HD
ATOM     30  H   UNL     1     -11.498   0.453   0.238  0.00  0.00    +0.156 HD
BRANCH  28  31
ATOM     31  C   UNL     1     -12.181  -1.357   0.961  0.00  0.00    +0.038 A 
ATOM     32  C   UNL     1     -13.453  -1.367   0.405  0.00  0.00    +0.027 A 
ATOM     33  C   UNL     1     -14.396  -2.272   0.854  0.00  0.00    +0.051 A 
ATOM     34  C   UNL     1     -14.075  -3.172   1.859  0.00  0.00    +0.162 A 
ATOM     35  C   UNL     1     -12.801  -3.165   2.416  0.00  0.00    +0.164 A 
ATOM     36  C   UNL     1     -11.854  -2.260   1.962  0.00  0.00    +0.072 A 
ATOM     37  O   UNL     1     -12.465  -4.046   3.398  0.00  0.00    -0.485 OA
ATOM     38  C   UNL     1     -13.545  -4.691   4.081  0.00  0.00    +0.270 C 
ATOM     39  C   UNL     1     -14.550  -5.186   3.032  0.00  0.00    +0.270 C 
ATOM     40  O   UNL     1     -15.019  -4.054   2.291  0.00  0.00    -0.485 OA
ENDBRANCH  28  31
ENDBRANCH  22  23
ENDBRANCH   4  22
TORSDOF 5
