REMARK  Name = ZINC36948507
REMARK  8 active torsions:
REMARK  status: ('A' for Active; 'I' for Inactive)
REMARK    1  A    between atoms: C_1  and  C_2
REMARK    2  A    between atoms: C_6  and  C_8
REMARK    3  A    between atoms: C_8  and  O_9
REMARK    4  A    between atoms: O_9  and  C_10
REMARK    5  A    between atoms: C_13  and  S_18
REMARK    6  A    between atoms: C_14  and  C_17
REMARK    7  A    between atoms: C_15  and  C_16
REMARK    8  A    between atoms: S_18  and  N_21
REMARK                            x       y       z     vdW  Elec       q    Type
REMARK                         _______ _______ _______ _____ _____    ______ ____
ROOT
ATOM      1  C   UNL     1       1.599  -3.745   4.055  0.00  0.00    +0.124 A 
ATOM      2  C   UNL     1       0.509  -4.191   4.788  0.00  0.00    +0.048 A 
ATOM      3  C   UNL     1       0.707  -4.880   5.969  0.00  0.00    +0.032 A 
ATOM      4  C   UNL     1       1.991  -5.125   6.420  0.00  0.00    +0.108 A 
ATOM      5  C   UNL     1       3.079  -4.681   5.692  0.00  0.00    -0.018 A 
ATOM      6  C   UNL     1       2.886  -3.997   4.507  0.00  0.00    -0.004 A 
ATOM      7  C   UNL     1       4.072  -3.518   3.710  0.00  0.00    +0.048 C 
ATOM      8  C   UNL     1       4.477  -4.949   6.187  0.00  0.00    +0.046 C 
ENDROOT
BRANCH   4   9
ATOM      9  S   UNL     1       2.241  -6.004   7.927  0.00  0.00    +0.056 S 
ATOM     10  O   UNL     1       3.172  -5.248   8.688  0.00  0.00    -0.153 OA
ATOM     11  O   UNL     1       0.952  -6.343   8.418  0.00  0.00    -0.153 OA
BRANCH   9  12
ATOM     12  N   UNL     1       2.991  -7.430   7.543  0.00  0.00    -0.204 NA
ATOM     13  H   UNL     1       3.204  -7.633   6.618  0.00  0.00    +0.144 HD
ATOM     14  H   UNL     1       3.218  -8.062   8.242  0.00  0.00    +0.144 HD
ENDBRANCH   9  12
ENDBRANCH   4   9
BRANCH   1  15
ATOM     15  O   UNL     1       1.406  -3.067   2.893  0.00  0.00    -0.487 OA
BRANCH  15  16
ATOM     16  C   UNL     1       0.054  -2.845   2.489  0.00  0.00    +0.264 C 
BRANCH  16  22
ATOM     17  C   UNL     1      -0.018   1.503   0.010  0.00  0.00    +0.044 C 
ATOM     18  C   UNL     1       0.002  -0.004   0.002  0.00  0.00    -0.050 A 
ATOM     19  C   UNL     1       0.006  -0.689  -1.199  0.00  0.00    +0.003 A 
ATOM     20  C   UNL     1       0.025  -2.071  -1.207  0.00  0.00    +0.001 A 
ATOM     21  C   UNL     1       0.040  -2.768  -0.013  0.00  0.00    +0.007 A 
ATOM     22  C   UNL     1       0.037  -2.084   1.188  0.00  0.00    -0.010 A 
ATOM     23  C   UNL     1       0.023  -0.702   1.195  0.00  0.00    +0.010 A 
ENDBRANCH  16  22
ENDBRANCH  15  16
ENDBRANCH   1  15
TORSDOF 5
