REMARK  Name = ZINC37003782
REMARK  8 active torsions:
REMARK  status: ('A' for Active; 'I' for Inactive)
REMARK    1  A    between atoms: C_1  and  C_2
REMARK    2  A    between atoms: C_2  and  N_3
REMARK    3  A    between atoms: N_3  and  C_4
REMARK    4  A    between atoms: C_4  and  C_5
REMARK    5  A    between atoms: C_6  and  C_8
REMARK    6  A    between atoms: C_8  and  C_10
REMARK    7  A    between atoms: C_8  and  N_11
REMARK    8  A    between atoms: C_12  and  C_14
REMARK                            x       y       z     vdW  Elec       q    Type
REMARK                         _______ _______ _______ _____ _____    ______ ____
ROOT
ATOM      1  N   UNL     1      -1.019  -2.372   3.754  0.00  0.00    -0.306 N 
ATOM      2  C   UNL     1      -0.011  -3.058   4.330  0.00  0.00    +0.200 C 
ATOM      3  O   UNL     1       1.128  -2.898   3.946  0.00  0.00    -0.278 OA
ATOM      4  H   UNL     1      -1.930  -2.500   4.061  0.00  0.00    +0.149 HD
ENDROOT
BRANCH   2   5
ATOM      5  C   UNL     1      -0.301  -4.023   5.450  0.00  0.00    +0.017 C 
ATOM      6  C   UNL     1      -0.914  -3.270   6.647  0.00  0.00    -0.005 C 
ATOM      7  C   UNL     1       0.087  -3.493   7.815  0.00  0.00    -0.026 C 
ATOM      8  C   UNL     1       1.055  -2.309   7.794  0.00  0.00    +0.002 C 
ATOM      9  C   UNL     1       2.298  -2.610   8.628  0.00  0.00    +0.000 C 
ATOM     10  C   UNL     1       3.023  -3.810   8.008  0.00  0.00    -0.002 C 
ATOM     11  C   UNL     1       2.102  -5.026   8.099  0.00  0.00    -0.015 C 
ATOM     12  C   UNL     1       0.787  -4.794   7.382  0.00  0.00    -0.068 C 
ATOM     13  N   UNL     1       0.961  -4.643   5.922  0.00  0.00    +0.389 N 
ATOM     14  H   UNL     1       1.093  -5.544   5.486  0.00  0.00    -0.084 HD
ATOM     15  H   UNL     1       1.744  -4.038   5.723  0.00  0.00    -0.084 HD
ENDBRANCH   2   5
BRANCH   1  16
ATOM     16  C   UNL     1      -0.737  -1.434   2.664  0.00  0.00    +0.156 C 
ATOM     17  C   UNL     1      -0.343  -0.076   3.250  0.00  0.00    +0.038 C 
BRANCH  16  19
ATOM     18  N   UNL     1      -1.845  -0.941   0.508  0.00  0.00    -0.300 N 
ATOM     19  C   UNL     1      -1.967  -1.274   1.809  0.00  0.00    +0.236 C 
ATOM     20  O   UNL     1      -3.067  -1.445   2.290  0.00  0.00    -0.274 OA
BRANCH  18  22
ATOM     21  C   UNL     1      -3.307  -2.307  -0.898  0.00  0.00    +0.024 C 
ATOM     22  C   UNL     1      -3.030  -0.905  -0.353  0.00  0.00    +0.104 C 
ENDBRANCH  18  22
BRANCH  18  23
ATOM     23  C   UNL     1      -0.527  -0.616  -0.044  0.00  0.00    +0.104 C 
ATOM     24  C   UNL     1      -0.332   0.901  -0.038  0.00  0.00    +0.024 C 
ENDBRANCH  18  23
ENDBRANCH  16  19
ENDBRANCH   1  16
TORSDOF 5
