REMARK  Name = ZINC16484764
REMARK  10 active torsions:
REMARK  status: ('A' for Active; 'I' for Inactive)
REMARK    1  A    between atoms: C_1  and  C_2
REMARK    2  A    between atoms: C_2  and  C_3
REMARK    3  A    between atoms: C_2  and  C_4
REMARK    4  A    between atoms: C_4  and  N_5
REMARK    5  A    between atoms: N_5  and  C_6
REMARK    6  A    between atoms: C_7  and  N_22
REMARK    7  A    between atoms: N_8  and  C_15
REMARK    8  A    between atoms: C_15  and  C_16
REMARK    9  A    between atoms: C_23  and  C_25
REMARK   10  A    between atoms: C_25  and  N_67
REMARK                            x       y       z     vdW  Elec       q    Type
REMARK                         _______ _______ _______ _____ _____    ______ ____
ROOT
ATOM      1  C   UNL     1      -3.351   6.392  -3.508  0.00  0.00    +0.140 A 
ATOM      2  C   UNL     1      -3.403   5.019  -3.635  0.00  0.00    +0.128 A 
ATOM      3  N   UNL     1      -4.269   4.305  -2.840  0.00  0.00    -0.276 N 
ATOM      4  C   UNL     1      -5.048   4.936  -1.942  0.00  0.00    +0.331 A 
ATOM      5  O   UNL     1      -5.803   4.286  -1.246  0.00  0.00    -0.246 OA
ATOM      6  N   UNL     1      -5.006   6.273  -1.802  0.00  0.00    -0.273 N 
ATOM      7  H   UNL     1      -5.595   6.717  -1.127  0.00  0.00    +0.173 HD
ATOM      8  C   UNL     1      -4.179   7.020  -2.559  0.00  0.00    +0.277 A 
ATOM      9  O   UNL     1      -4.149   8.231  -2.424  0.00  0.00    -0.266 OA
ENDROOT
BRANCH   1  10
ATOM     10  N   UNL     1      -2.477   7.154  -4.313  0.00  0.00    -0.266 N 
ATOM     11  C   UNL     1      -1.359   7.687  -3.777  0.00  0.00    +0.203 C 
ATOM     12  O   UNL     1      -0.656   8.417  -4.444  0.00  0.00    -0.277 OA
BRANCH  10  13
ATOM     13  C   UNL     1      -2.783   7.365  -5.730  0.00  0.00    +0.117 C 
BRANCH  13  15
ATOM     14  C   UNL     1      -3.075   9.827  -5.416  0.00  0.00    +0.009 C 
ATOM     15  C   UNL     1      -3.758   8.536  -5.872  0.00  0.00    +0.001 C 
ATOM     16  C   UNL     1      -4.181   8.672  -7.336  0.00  0.00    +0.009 C 
ENDBRANCH  13  15
ENDBRANCH  10  13
BRANCH  11  17
ATOM     17  C   UNL     1      -0.985   7.376  -2.351  0.00  0.00    +0.019 C 
BRANCH  17  25
ATOM     18  C   UNL     1      -0.109   9.628  -2.203  0.00  0.00    -0.078 C 
ATOM     19  C   UNL     1       0.958  10.490  -1.529  0.00  0.00    -0.019 C 
ATOM     20  C   UNL     1       2.244  10.453  -2.362  0.00  0.00    -0.002 C 
ATOM     21  C   UNL     1       2.925   9.097  -2.159  0.00  0.00    -0.000 C 
ATOM     22  C   UNL     1       2.893   8.732  -0.675  0.00  0.00    -0.002 C 
ATOM     23  C   UNL     1       1.980   7.524  -0.463  0.00  0.00    -0.019 C 
ATOM     24  C   UNL     1       0.517   7.973  -0.547  0.00  0.00    -0.078 C 
ATOM     25  N   UNL     1       0.183   8.198  -1.971  0.00  0.00    +0.385 N 
ATOM     26  H   UNL     1       0.986   7.924  -2.549  0.00  0.00    -0.081 HD
ENDBRANCH  17  25
ENDBRANCH  11  17
ENDBRANCH   1  10
BRANCH   2  27
ATOM     27  N   UNL     1      -2.604   4.374  -4.547  0.00  0.00    -0.343 N 
ATOM     28  H   UNL     1      -2.702   3.419  -4.688  0.00  0.00    +0.144 HD
ATOM     29  H   UNL     1      -1.941   4.873  -5.050  0.00  0.00    +0.144 HD
ENDBRANCH   2  27
BRANCH   3  30
ATOM     30  C   UNL     1      -4.340   2.847  -2.967  0.00  0.00    +0.163 C 
BRANCH  30  31
ATOM     31  C   UNL     1      -5.384   2.482  -3.991  0.00  0.00    -0.028 A 
ATOM     32  C   UNL     1      -6.696   2.286  -3.600  0.00  0.00    +0.005 A 
ATOM     33  C   UNL     1      -7.653   1.946  -4.539  0.00  0.00    +0.000 A 
ATOM     34  C   UNL     1      -7.301   1.814  -5.869  0.00  0.00    +0.000 A 
ATOM     35  C   UNL     1      -5.990   2.016  -6.260  0.00  0.00    +0.000 A 
ATOM     36  C   UNL     1      -5.032   2.350  -5.321  0.00  0.00    +0.005 A 
ENDBRANCH  30  31
ENDBRANCH   3  30
TORSDOF 8
