REMARK  Name = ZINC19901644
REMARK  5 active torsions:
REMARK  status: ('A' for Active; 'I' for Inactive)
REMARK    1  A    between atoms: C_1  and  C_2
REMARK    2  A    between atoms: C_5  and  N_9
REMARK    3  A    between atoms: N_9  and  C_10
REMARK    4  A    between atoms: C_10  and  C_12
REMARK    5  A    between atoms: C_10  and  C_13
REMARK                            x       y       z     vdW  Elec       q    Type
REMARK                         _______ _______ _______ _____ _____    ______ ____
ROOT
ATOM      1  C   UNL     1      -3.692  -0.803   0.018  0.00  0.00    +0.098 C 
ATOM      2  C   UNL     1      -4.266  -0.838  -1.400  0.00  0.00    +0.033 C 
ENDROOT
BRANCH   1   3
ATOM      3  C   UNL     1      -2.397  -0.033   0.016  0.00  0.00    -0.024 A 
ATOM      4  C   UNL     1      -2.415   1.349   0.026  0.00  0.00    +0.009 A 
ATOM      5  C   UNL     1      -1.229   2.059   0.019  0.00  0.00    +0.050 A 
ATOM      6  C   UNL     1      -0.017   1.385   0.010  0.00  0.00    +0.162 A 
ATOM      7  C   UNL     1       0.002  -0.004   0.002  0.00  0.00    +0.162 A 
ATOM      8  C   UNL     1      -1.192  -0.710   0.004  0.00  0.00    +0.055 A 
ATOM      9  O   UNL     1       1.181  -0.685  -0.007  0.00  0.00    -0.485 OA
ATOM     10  C   UNL     1       2.347   0.053  -0.387  0.00  0.00    +0.270 C 
ATOM     11  C   UNL     1       2.334   1.392   0.364  0.00  0.00    +0.270 C 
ATOM     12  O   UNL     1       1.143   2.098   0.002  0.00  0.00    -0.485 OA
ENDBRANCH   1   3
BRANCH   1  13
ATOM     13  N   UNL     1      -4.647  -0.149   0.915  0.00  0.00    -0.336 N 
ATOM     14  H   UNL     1      -4.552   0.925   1.132  0.00  0.00    +0.147 HD
BRANCH  13  19
ATOM     15  C   UNL     1      -8.839  -3.157   3.272  0.00  0.00    +0.044 C 
ATOM     16  C   UNL     1      -7.726  -2.357   2.646  0.00  0.00    -0.049 A 
ATOM     17  C   UNL     1      -6.825  -2.976   1.798  0.00  0.00    +0.005 A 
ATOM     18  C   UNL     1      -5.805  -2.245   1.219  0.00  0.00    +0.024 A 
ATOM     19  C   UNL     1      -5.680  -0.890   1.496  0.00  0.00    +0.042 A 
ATOM     20  C   UNL     1      -6.587  -0.272   2.348  0.00  0.00    +0.039 A 
ATOM     21  C   UNL     1      -7.607  -1.007   2.920  0.00  0.00    +0.020 A 
ATOM     22 BR   UNL     1      -6.425   1.575   2.724  0.00  0.00    -0.048 Br
ENDBRANCH  13  19
ENDBRANCH   1  13
TORSDOF 3
