REMARK  Name = ZINC05017001
REMARK  7 active torsions:
REMARK  status: ('A' for Active; 'I' for Inactive)
REMARK    1  A    between atoms: C_1  and  C_2
REMARK    2  A    between atoms: C_2  and  O_3
REMARK    3  A    between atoms: O_3  and  C_4
REMARK    4  A    between atoms: C_7  and  C_10
REMARK    5  A    between atoms: C_16  and  C_18
REMARK    6  A    between atoms: C_27  and  O_30
REMARK    7  A    between atoms: O_30  and  C_31
REMARK                            x       y       z     vdW  Elec       q    Type
REMARK                         _______ _______ _______ _____ _____    ______ ____
ROOT
ATOM      1  C   UNL     1       2.232   4.267  -0.240  0.00  0.00    +0.311 C 
ATOM      2  N   UNL     1       3.392   3.554   0.309  0.00  0.00    -0.205 N 
ATOM      3  C   UNL     1       3.686   2.160  -0.097  0.00  0.00    +0.136 C 
ATOM      4  C   UNL     1       4.670   1.693   0.985  0.00  0.00    +0.090 C 
ATOM      5  C   UNL     1       5.045   2.973   1.703  0.00  0.00    +0.103 C 
ATOM      6  N   UNL     1       4.313   3.946   1.263  0.00  0.00    -0.181 NA
ATOM      7  C   UNL     1       2.380   1.413  -0.032  0.00  0.00    +0.020 A 
ATOM      8  C   UNL     1       2.392   0.029  -0.029  0.00  0.00    +0.009 A 
ATOM      9  C   UNL     1       1.208  -0.681  -0.013  0.00  0.00    +0.004 A 
ATOM     10  C   UNL     1       0.002  -0.004   0.002  0.00  0.00    +0.049 A 
ATOM     11  C   UNL     1      -0.017   1.378   0.010  0.00  0.00    +0.162 A 
ATOM     12  C   UNL     1       1.180   2.104   0.002  0.00  0.00    +0.170 A 
ATOM     13  O   UNL     1       1.088   3.458   0.055  0.00  0.00    -0.461 OA
ENDROOT
BRANCH   1  17
ATOM     14  C   UNL     1       1.840   8.096   1.617  0.00  0.00    +0.121 A 
ATOM     15  C   UNL     1       1.354   7.893   0.334  0.00  0.00    +0.046 A 
ATOM     16  C   UNL     1       1.482   6.655  -0.264  0.00  0.00    +0.012 A 
ATOM     17  C   UNL     1       2.094   5.617   0.415  0.00  0.00    +0.013 A 
ATOM     18  C   UNL     1       2.575   5.816   1.696  0.00  0.00    +0.012 A 
ATOM     19  C   UNL     1       2.454   7.054   2.297  0.00  0.00    +0.046 A 
BRANCH  14  20
ATOM     20  O   UNL     1       1.715   9.313   2.208  0.00  0.00    -0.492 OA
BRANCH  20  22
ATOM     21  C   UNL     1       2.007  10.879   4.026  0.00  0.00    +0.048 C 
ATOM     22  C   UNL     1       2.239   9.450   3.531  0.00  0.00    +0.225 C 
ENDBRANCH  20  22
ENDBRANCH  14  20
ENDBRANCH   1  17
BRANCH   5  23
ATOM     23  C   UNL     1       6.078   3.092   2.739  0.00  0.00    +0.150 A 
ATOM     24  C   UNL     1       6.431   4.237   3.391  0.00  0.00    +0.051 A 
ATOM     25  C   UNL     1       7.453   3.889   4.295  0.00  0.00    +0.042 A 
ATOM     26  C   UNL     1       7.679   2.568   4.149  0.00  0.00    +0.196 A 
ATOM     27  O   UNL     1       6.847   2.089   3.209  0.00  0.00    -0.462 OA
ENDBRANCH   5  23
BRANCH  11  28
ATOM     28  O   UNL     1      -1.206   2.037   0.019  0.00  0.00    -0.491 OA
ATOM     29  C   UNL     1      -2.391   1.237   0.020  0.00  0.00    +0.277 C 
ENDBRANCH  11  28
TORSDOF 5
