REMARK  Name = ZINC35486234
REMARK  12 active torsions:
REMARK  status: ('A' for Active; 'I' for Inactive)
REMARK    1  A    between atoms: C_1  and  C_2
REMARK    2  A    between atoms: C_2  and  C_3
REMARK    3  A    between atoms: C_3  and  O_4
REMARK    4  A    between atoms: O_4  and  C_5
REMARK    5  A    between atoms: C_8  and  C_11
REMARK    6  A    between atoms: N_26  and  C_27
REMARK    7  A    between atoms: C_27  and  C_28
REMARK    8  A    between atoms: C_28  and  N_29
REMARK    9  A    between atoms: N_29  and  C_30
REMARK   10  A    between atoms: N_29  and  C_32
REMARK   11  A    between atoms: C_30  and  C_31
REMARK   12  A    between atoms: C_32  and  C_33
REMARK                            x       y       z     vdW  Elec       q    Type
REMARK                         _______ _______ _______ _____ _____    ______ ____
ROOT
ATOM      1  C   UNL     1       3.365  -4.156   6.451  0.00  0.00    +0.144 C 
ATOM      2  C   UNL     1       4.798  -4.574   6.399  0.00  0.00    +0.072 A 
ATOM      3  C   UNL     1       6.008  -3.833   6.028  0.00  0.00    +0.199 A 
ATOM      4  O   UNL     1       6.024  -2.628   5.850  0.00  0.00    -0.287 OA
ATOM      5  C   UNL     1       7.211  -4.692   5.889  0.00  0.00    +0.065 A 
ATOM      6  C   UNL     1       8.389  -4.174   5.350  0.00  0.00    +0.030 A 
ATOM      7  C   UNL     1       9.495  -4.987   5.224  0.00  0.00    +0.019 A 
ATOM      8  C   UNL     1       9.433  -6.313   5.631  0.00  0.00    +0.019 A 
ATOM      9  C   UNL     1       8.277  -6.834   6.165  0.00  0.00    +0.048 A 
ATOM     10  C   UNL     1       7.145  -6.031   6.306  0.00  0.00    +0.140 A 
ATOM     11  O   UNL     1       6.024  -6.565   6.844  0.00  0.00    -0.450 OA
ATOM     12  C   UNL     1       4.863  -5.885   6.778  0.00  0.00    +0.199 A 
ATOM     13  C   UNL     1       3.497  -6.348   7.075  0.00  0.00    +0.283 C 
ATOM     14  O   UNL     1       3.206  -7.471   7.437  0.00  0.00    -0.267 OA
ATOM     15  N   UNL     1       2.614  -5.344   6.888  0.00  0.00    -0.285 N 
ATOM     16 BR   UNL     1      11.097  -4.296   4.495  0.00  0.00    -0.050 Br
ENDROOT
BRANCH   1  20
ATOM     17  C   UNL     1       2.049  -2.923   2.576  0.00  0.00    +0.121 A 
ATOM     18  C   UNL     1       2.357  -1.974   3.540  0.00  0.00    +0.046 A 
ATOM     19  C   UNL     1       2.782  -2.375   4.792  0.00  0.00    +0.009 A 
ATOM     20  C   UNL     1       2.901  -3.721   5.085  0.00  0.00    -0.022 A 
ATOM     21  C   UNL     1       2.595  -4.669   4.126  0.00  0.00    +0.009 A 
ATOM     22  C   UNL     1       2.163  -4.273   2.874  0.00  0.00    +0.046 A 
BRANCH  17  23
ATOM     23  O   UNL     1       1.630  -2.531   1.345  0.00  0.00    -0.492 OA
BRANCH  23  24
ATOM     24  C   UNL     1       1.536  -1.125   1.108  0.00  0.00    +0.229 C 
BRANCH  24  26
ATOM     25  C   UNL     1       0.951   0.626  -0.575  0.00  0.00    +0.007 C 
ATOM     26  C   UNL     1       1.052  -0.879  -0.322  0.00  0.00    +0.038 C 
ENDBRANCH  24  26
ENDBRANCH  23  24
ENDBRANCH  17  23
ENDBRANCH   1  20
BRANCH  15  27
ATOM     27  C   UNL     1       1.165  -5.421   7.086  0.00  0.00    +0.090 C 
BRANCH  27  28
ATOM     28  C   UNL     1       0.494  -5.850   5.779  0.00  0.00    -0.060 C 
BRANCH  28  29
ATOM     29  N   UNL     1      -0.960  -5.927   5.977  0.00  0.00    +0.380 N 
ATOM     30  H   UNL     1      -1.161  -6.541   6.753  0.00  0.00    -0.082 HD
BRANCH  29  31
ATOM     31  C   UNL     1      -1.487  -4.587   6.263  0.00  0.00    -0.082 C 
ATOM     32  C   UNL     1      -2.974  -4.687   6.610  0.00  0.00    -0.017 C 
ENDBRANCH  29  31
BRANCH  29  33
ATOM     33  C   UNL     1      -1.592  -6.453   4.760  0.00  0.00    -0.082 C 
ATOM     34  C   UNL     1      -1.151  -7.902   4.541  0.00  0.00    -0.017 C 
ENDBRANCH  29  33
ENDBRANCH  28  29
ENDBRANCH  27  28
ENDBRANCH  15  27
TORSDOF 9
