REMARK  Name = ZINC20424555
REMARK  11 active torsions:
REMARK  status: ('A' for Active; 'I' for Inactive)
REMARK    1  A    between atoms: C_1  and  C_2
REMARK    2  A    between atoms: C_9  and  C_11
REMARK    3  A    between atoms: C_11  and  S_12
REMARK    4  A    between atoms: S_12  and  C_13
REMARK    5  A    between atoms: N_19  and  N_20
REMARK    6  A    between atoms: C_21  and  C_22
REMARK    7  A    between atoms: C_25  and  O_35
REMARK    8  A    between atoms: C_26  and  O_28
REMARK    9  A    between atoms: O_28  and  C_29
REMARK   10  A    between atoms: C_29  and  N_30
REMARK   11  A    between atoms: O_35  and  C_36
REMARK                            x       y       z     vdW  Elec       q    Type
REMARK                         _______ _______ _______ _____ _____    ______ ____
ROOT
ATOM      1  C   UNL     1      -1.417  -7.701   3.358  0.00  0.00    +0.210 A 
ATOM      2  N   UNL     1      -2.413  -8.493   3.768  0.00  0.00    -0.186 NA
ATOM      3  C   UNL     1      -1.917  -9.570   4.339  0.00  0.00    +0.232 A 
ATOM      4  N   UNL     1      -0.570  -9.479   4.301  0.00  0.00    -0.245 N 
ATOM      5  H   UNL     1       0.066 -10.125   4.646  0.00  0.00    +0.192 HD
ATOM      6  N   UNL     1      -0.272  -8.266   3.658  0.00  0.00    -0.144 NA
ATOM      7  N   UNL     1      -2.645 -10.612   4.883  0.00  0.00    -0.205 N 
ATOM      8  H   UNL     1      -2.187 -11.366   5.285  0.00  0.00    +0.177 HD
ENDROOT
BRANCH   7   9
ATOM      9  N   UNL     1      -4.046 -10.577   4.854  0.00  0.00    -0.188 NA
ATOM     10  C   UNL     1      -4.730 -11.555   5.365  0.00  0.00    +0.138 C 
BRANCH  10  11
ATOM     11  C   UNL     1      -6.204 -11.518   5.335  0.00  0.00    -0.002 A 
ATOM     12  C   UNL     1      -6.865 -10.434   4.752  0.00  0.00    +0.013 A 
ATOM     13  C   UNL     1      -8.244 -10.402   4.724  0.00  0.00    +0.050 A 
ATOM     14  C   UNL     1      -8.976 -11.443   5.275  0.00  0.00    +0.162 A 
ATOM     15  C   UNL     1      -8.323 -12.527   5.858  0.00  0.00    +0.165 A 
ATOM     16  C   UNL     1      -6.942 -12.569   5.884  0.00  0.00    +0.059 A 
BRANCH  14  17
ATOM     17  O   UNL     1     -10.335 -11.406   5.246  0.00  0.00    -0.491 OA
ATOM     18  C   UNL     1     -10.940 -10.265   4.633  0.00  0.00    +0.277 C 
ENDBRANCH  14  17
BRANCH  15  19
ATOM     19  O   UNL     1      -9.045 -13.545   6.398  0.00  0.00    -0.466 OA
BRANCH  19  20
ATOM     20  C   UNL     1      -8.310 -14.624   6.979  0.00  0.00    +0.374 C 
BRANCH  20  21
ATOM     21  N   UNL     1      -9.244 -15.622   7.507  0.00  0.00    -0.235 N 
ATOM     22  C   UNL     1     -10.591 -15.555   7.456  0.00  0.00    +0.112 A 
ATOM     23  C   UNL     1     -11.082 -16.667   8.050  0.00  0.00    +0.041 A 
ATOM     24  C   UNL     1      -9.998 -17.441   8.478  0.00  0.00    +0.134 A 
ATOM     25  N   UNL     1      -8.896 -16.818   8.148  0.00  0.00    -0.177 NA
ENDBRANCH  20  21
ENDBRANCH  19  20
ENDBRANCH  15  19
ENDBRANCH  10  11
ENDBRANCH   7   9
BRANCH   1  26
ATOM     26  S   UNL     1      -1.611  -6.152   2.541  0.00  0.00    -0.077 S 
BRANCH  26  27
ATOM     27  C   UNL     1       0.090  -5.594   2.249  0.00  0.00    +0.151 C 
BRANCH  27  36
ATOM     28  C   UNL     1      -0.018   1.503   0.010  0.00  0.00    +0.044 C 
ATOM     29  C   UNL     1       0.002  -0.004   0.002  0.00  0.00    -0.048 A 
ATOM     30  C   UNL     1       0.006  -0.687  -1.206  0.00  0.00    +0.005 A 
ATOM     31  C   UNL     1       0.024  -2.052  -1.235  0.00  0.00    +0.030 A 
ATOM     32  C   UNL     1       0.040  -2.774  -0.039  0.00  0.00    +0.089 A 
ATOM     33  C   UNL     1       0.037  -2.083   1.185  0.00  0.00    +0.066 A 
ATOM     34  C   UNL     1       0.023  -0.695   1.195  0.00  0.00    +0.031 A 
ATOM     35  N   UNL     1       0.055  -3.051   2.169  0.00  0.00    -0.341 N 
ATOM     36  C   UNL     1       0.068  -4.261   1.546  0.00  0.00    +0.118 A 
ATOM     37  N   UNL     1       0.059  -4.099   0.255  0.00  0.00    -0.232 NA
ATOM     38  H   UNL     1       0.058  -2.898   3.127  0.00  0.00    +0.167 HD
ENDBRANCH  27  36
ENDBRANCH  26  27
ENDBRANCH   1  26
TORSDOF 9
