REMARK  Name = ZINC49121370
REMARK  4 active torsions:
REMARK  status: ('A' for Active; 'I' for Inactive)
REMARK    1  A    between atoms: C_1  and  C_2
REMARK    2  A    between atoms: C_2  and  C_3
REMARK    3  A    between atoms: C_9  and  N_11
REMARK    4  A    between atoms: C_12  and  C_17
REMARK                            x       y       z     vdW  Elec       q    Type
REMARK                         _______ _______ _______ _____ _____    ______ ____
ROOT
ATOM      1  N   UNL     1      -0.767  -2.429  -1.381  0.00  0.00    -0.299 N 
ATOM      2  C   UNL     1       0.365  -3.211  -1.509  0.00  0.00    +0.170 A 
ATOM      3  N   UNL     1       0.647  -3.326  -2.780  0.00  0.00    -0.153 NA
ATOM      4  N   UNL     1      -0.316  -2.610  -3.504  0.00  0.00    -0.254 N 
ATOM      5  C   UNL     1      -1.177  -2.074  -2.615  0.00  0.00    +0.176 A 
ATOM      6  S   UNL     1      -2.542  -1.110  -2.987  0.00  0.00    -0.011 S 
ATOM      7  H   UNL     1      -0.357  -2.520  -4.468  0.00  0.00    +0.191 HD
ENDROOT
BRANCH   1  13
ATOM      8  C   UNL     1      -1.433  -0.534   0.013  0.00  0.00    +0.012 C 
ATOM      9  C   UNL     1      -2.110  -0.145   1.329  0.00  0.00    +0.005 C 
ATOM     10  C   UNL     1      -3.546  -0.675   1.340  0.00  0.00    +0.000 C 
ATOM     11  C   UNL     1      -3.528  -2.199   1.206  0.00  0.00    +0.002 C 
ATOM     12  C   UNL     1      -2.851  -2.587  -0.110  0.00  0.00    +0.025 C 
ATOM     13  C   UNL     1      -1.416  -2.058  -0.121  0.00  0.00    +0.094 C 
BRANCH   8  15
ATOM     14  C   UNL     1      -0.019   1.526   0.010  0.00  0.00    +0.004 C 
ATOM     15  C   UNL     1       0.002  -0.004   0.002  0.00  0.00    +0.002 C 
ENDBRANCH   8  15
ENDBRANCH   1  13
BRANCH   2  16
ATOM     16  C   UNL     1       1.127  -3.811  -0.401  0.00  0.00    +0.056 A 
ATOM     17  C   UNL     1       2.256  -4.588  -0.449  0.00  0.00    +0.019 A 
ATOM     18  C   UNL     1       2.798  -5.040   0.733  0.00  0.00    +0.008 A 
ATOM     19  C   UNL     1       2.201  -4.705   1.906  0.00  0.00    +0.046 A 
ATOM     20  S   UNL     1       0.825  -3.710   1.356  0.00  0.00    -0.094 S 
ENDBRANCH   2  16
TORSDOF 3
