REMARK  Name = ZINC45630265
REMARK  9 active torsions:
REMARK  status: ('A' for Active; 'I' for Inactive)
REMARK    1  A    between atoms: C_1  and  C_2
REMARK    2  A    between atoms: C_2  and  C_3
REMARK    3  A    between atoms: C_2  and  C_4
REMARK    4  A    between atoms: C_4  and  C_6
REMARK    5  A    between atoms: C_4  and  N_14
REMARK    6  A    between atoms: C_9  and  O_12
REMARK    7  A    between atoms: O_12  and  C_13
REMARK    8  A    between atoms: C_15  and  C_17
REMARK    9  A    between atoms: C_17  and  N_18
REMARK                            x       y       z     vdW  Elec       q    Type
REMARK                         _______ _______ _______ _____ _____    ______ ____
ROOT
ATOM      1  C   UNL     1      -2.809   0.034   3.540  0.00  0.00    +0.213 C 
ENDROOT
BRANCH   1   2
ATOM      2  N   UNL     1      -2.553  -0.777   4.732  0.00  0.00    -0.215 N 
ATOM      3  C   UNL     1      -3.303  -1.837   5.105  0.00  0.00    +0.251 C 
ATOM      4  O   UNL     1      -4.278  -2.284   4.539  0.00  0.00    -0.272 OA
ATOM      5  C   UNL     1      -2.668  -2.346   6.372  0.00  0.00    +0.138 C 
ATOM      6  C   UNL     1      -3.657  -2.310   7.544  0.00  0.00    +0.045 C 
ATOM      7  C   UNL     1      -3.213  -3.531   8.382  0.00  0.00    +0.038 C 
ATOM      8  C   UNL     1      -2.543  -4.467   7.397  0.00  0.00    -0.042 A 
ATOM      9  C   UNL     1      -2.228  -3.779   6.237  0.00  0.00    -0.012 A 
ATOM     10  C   UNL     1      -1.603  -4.443   5.195  0.00  0.00    +0.006 A 
ATOM     11  C   UNL     1      -1.295  -5.785   5.307  0.00  0.00    +0.000 A 
ATOM     12  C   UNL     1      -1.612  -6.470   6.465  0.00  0.00    +0.000 A 
ATOM     13  C   UNL     1      -2.234  -5.811   7.507  0.00  0.00    +0.004 A 
ATOM     14  N   UNL     1      -1.535  -1.450   6.603  0.00  0.00    -0.281 N 
ATOM     15  C   UNL     1      -1.544  -0.564   5.586  0.00  0.00    +0.310 C 
ATOM     16  O   UNL     1      -0.730   0.330   5.460  0.00  0.00    -0.252 OA
ATOM     17  H   UNL     1      -0.902  -1.487   7.337  0.00  0.00    +0.152 HD
ENDBRANCH   1   2
BRANCH   1  19
ATOM     18  N   UNL     1      -2.155   0.035   1.154  0.00  0.00    -0.307 N 
ATOM     19  C   UNL     1      -2.067  -0.550   2.366  0.00  0.00    +0.231 C 
ATOM     20  O   UNL     1      -1.391  -1.546   2.511  0.00  0.00    -0.274 OA
ATOM     21  H   UNL     1      -2.696   0.831   1.038  0.00  0.00    +0.149 HD
BRANCH  18  22
ATOM     22  C   UNL     1      -1.433  -0.534   0.013  0.00  0.00    +0.106 C 
BRANCH  22  23
ATOM     23  C   UNL     1      -2.125  -0.137  -1.266  0.00  0.00    -0.027 A 
ATOM     24  C   UNL     1      -2.628   1.142  -1.411  0.00  0.00    +0.009 A 
ATOM     25  C   UNL     1      -3.263   1.508  -2.582  0.00  0.00    +0.046 A 
ATOM     26  C   UNL     1      -3.394   0.590  -3.614  0.00  0.00    +0.120 A 
ATOM     27  C   UNL     1      -2.888  -0.693  -3.467  0.00  0.00    +0.046 A 
ATOM     28  C   UNL     1      -2.249  -1.052  -2.296  0.00  0.00    +0.009 A 
BRANCH  26  29
ATOM     29  O   UNL     1      -4.019   0.947  -4.767  0.00  0.00    -0.495 OA
ATOM     30  C   UNL     1      -4.117  -0.049  -5.787  0.00  0.00    +0.277 C 
ENDBRANCH  26  29
ENDBRANCH  22  23
BRANCH  22  32
ATOM     31  C   UNL     1      -0.019   1.526   0.010  0.00  0.00    +0.009 C 
ATOM     32  C   UNL     1       0.002  -0.004   0.002  0.00  0.00    +0.008 C 
ATOM     33  C   UNL     1       0.742  -0.511   1.242  0.00  0.00    +0.009 C 
ENDBRANCH  22  32
ENDBRANCH  18  22
ENDBRANCH   1  19
TORSDOF 6
