REMARK  Name = ZINC66396867
REMARK  10 active torsions:
REMARK  status: ('A' for Active; 'I' for Inactive)
REMARK    1  A    between atoms: C_1  and  C_2
REMARK    2  A    between atoms: N_4  and  C_5
REMARK    3  A    between atoms: C_7  and  C_12
REMARK    4  A    between atoms: N_14  and  C_15
REMARK    5  A    between atoms: C_15  and  C_17
REMARK    6  A    between atoms: C_15  and  C_19
REMARK    7  A    between atoms: C_22  and  C_25
REMARK    8  A    between atoms: C_25  and  C_26
REMARK    9  A    between atoms: C_25  and  C_27
REMARK   10  A    between atoms: C_25  and  C_28
REMARK                            x       y       z     vdW  Elec       q    Type
REMARK                         _______ _______ _______ _____ _____    ______ ____
ROOT
ATOM      1  C   UNL     1       1.201  -4.987  -0.194  0.00  0.00    +0.245 C 
ATOM      2  O   UNL     1       2.272  -4.416  -0.113  0.00  0.00    -0.270 OA
ATOM      3  N   UNL     1       1.160  -6.331  -0.288  0.00  0.00    -0.292 N 
ATOM      4  H   UNL     1       0.305  -6.786  -0.352  0.00  0.00    +0.151 HD
ENDROOT
BRANCH   1   7
ATOM      5  C   UNL     1      -1.192  -2.091  -0.088  0.00  0.00    +0.070 A 
ATOM      6  C   UNL     1      -0.012  -2.816  -0.092  0.00  0.00    +0.039 A 
ATOM      7  C   UNL     1      -0.053  -4.207  -0.189  0.00  0.00    +0.039 A 
ATOM      8  C   UNL     1      -1.284  -4.861  -0.282  0.00  0.00    +0.016 A 
ATOM      9  C   UNL     1      -2.455  -4.132  -0.278  0.00  0.00    +0.041 A 
ATOM     10  C   UNL     1      -2.415  -2.751  -0.176  0.00  0.00    +0.145 A 
ATOM     11  F   UNL     1      -3.565  -2.042  -0.167  0.00  0.00    -0.204 F 
BRANCH   5  15
ATOM     12  C   UNL     1      -0.167   1.503  -0.551  0.00  0.00    +0.109 C 
ATOM     13  C   UNL     1      -0.153  -0.004  -0.570  0.00  0.00    +0.214 C 
ATOM     14  O   UNL     1       0.760  -0.595  -1.105  0.00  0.00    -0.276 OA
ATOM     15  N   UNL     1      -1.156  -0.694   0.009  0.00  0.00    -0.283 N 
ATOM     16  H   UNL     1      -1.852  -0.223   0.494  0.00  0.00    +0.155 HD
ENDBRANCH   5  15
ENDBRANCH   1   7
BRANCH   3  17
ATOM     17  C   UNL     1       2.404  -7.104  -0.293  0.00  0.00    +0.207 C 
BRANCH  17  18
ATOM     18  C   UNL     1       2.130  -8.500   0.203  0.00  0.00    -0.013 A 
ATOM     19  C   UNL     1       0.977  -9.158  -0.185  0.00  0.00    +0.007 A 
ATOM     20  C   UNL     1       0.726 -10.438   0.270  0.00  0.00    +0.004 A 
ATOM     21  C   UNL     1       1.627 -11.062   1.112  0.00  0.00    -0.042 A 
ATOM     22  C   UNL     1       2.780 -10.405   1.500  0.00  0.00    +0.004 A 
ATOM     23  C   UNL     1       3.033  -9.126   1.041  0.00  0.00    +0.007 A 
BRANCH  21  24
ATOM     24  C   UNL     1       1.352 -12.458   1.609  0.00  0.00    -0.013 C 
ATOM     25  C   UNL     1       1.240 -13.411   0.417  0.00  0.00    +0.015 C 
ATOM     26  C   UNL     1       2.497 -12.911   2.518  0.00  0.00    +0.015 C 
ATOM     27  C   UNL     1       0.041 -12.471   2.396  0.00  0.00    +0.015 C 
ENDBRANCH  21  24
ENDBRANCH  17  18
BRANCH  17  28
ATOM     28  C   UNL     1       2.938  -7.165  -1.663  0.00  0.00    +0.090 C 
ATOM     29  N   UNL     1       3.350  -7.213  -2.721  0.00  0.00    -0.194 NA
ENDBRANCH  17  28
ENDBRANCH   3  17
TORSDOF 6
