REMARK  Name = ZINC62330674
REMARK  9 active torsions:
REMARK  status: ('A' for Active; 'I' for Inactive)
REMARK    1  A    between atoms: C_1  and  C_2
REMARK    2  A    between atoms: C_7  and  N_14
REMARK    3  A    between atoms: C_15  and  C_17
REMARK    4  A    between atoms: C_17  and  C_19
REMARK    5  A    between atoms: C_17  and  C_27
REMARK    6  A    between atoms: C_22  and  O_25
REMARK    7  A    between atoms: O_25  and  C_26
REMARK    8  A    between atoms: C_27  and  C_28
REMARK    9  A    between atoms: C_27  and  C_29
REMARK                            x       y       z     vdW  Elec       q    Type
REMARK                         _______ _______ _______ _____ _____    ______ ____
ROOT
ATOM      1  N   UNL     1      -1.306  -6.125   0.032  0.00  0.00    -0.285 N 
ATOM      2  C   UNL     1      -2.268  -7.053  -0.145  0.00  0.00    +0.225 C 
ATOM      3  O   UNL     1      -3.366  -6.721  -0.537  0.00  0.00    -0.275 OA
ATOM      4  H   UNL     1      -0.417  -6.395   0.310  0.00  0.00    +0.155 HD
ENDROOT
BRANCH   1  11
ATOM      5  C   UNL     1      -2.154   1.693  -0.234  0.00  0.00    +0.049 C 
ATOM      6  C   UNL     1      -1.876   0.226  -0.036  0.00  0.00    +0.014 A 
ATOM      7  C   UNL     1      -2.459  -0.689  -0.851  0.00  0.00    +0.018 A 
ATOM      8  C   UNL     1      -2.169  -2.106  -0.633  0.00  0.00    -0.001 A 
ATOM      9  C   UNL     1      -2.742  -3.094  -1.444  0.00  0.00    +0.012 A 
ATOM     10  C   UNL     1      -2.453  -4.407  -1.218  0.00  0.00    +0.024 A 
ATOM     11  C   UNL     1      -1.590  -4.776  -0.185  0.00  0.00    +0.035 A 
ATOM     12  C   UNL     1      -1.014  -3.813   0.628  0.00  0.00    +0.049 A 
ATOM     13  C   UNL     1      -1.297  -2.471   0.411  0.00  0.00    +0.051 A 
ATOM     14  N   UNL     1      -0.736  -1.492   1.204  0.00  0.00    -0.322 N 
ATOM     15  H   UNL     1      -0.136  -1.744   1.923  0.00  0.00    +0.169 HD
ATOM     16  C   UNL     1      -1.005  -0.192   0.992  0.00  0.00    +0.252 A 
ATOM     17  O   UNL     1      -0.488   0.647   1.710  0.00  0.00    -0.268 OA
ENDBRANCH   1  11
BRANCH   2  18
ATOM     18  C   UNL     1      -1.977  -8.503   0.145  0.00  0.00    +0.108 C 
BRANCH  18  19
ATOM     19  C   UNL     1      -3.275  -9.258   0.279  0.00  0.00    -0.035 A 
ATOM     20  C   UNL     1      -4.159  -9.304  -0.783  0.00  0.00    +0.008 A 
ATOM     21  C   UNL     1      -5.349  -9.995  -0.662  0.00  0.00    +0.046 A 
ATOM     22  C   UNL     1      -5.656 -10.643   0.525  0.00  0.00    +0.120 A 
ATOM     23  C   UNL     1      -4.767 -10.596   1.589  0.00  0.00    +0.046 A 
ATOM     24  C   UNL     1      -3.576  -9.908   1.462  0.00  0.00    +0.008 A 
BRANCH  22  25
ATOM     25  O   UNL     1      -6.827 -11.323   0.647  0.00  0.00    -0.495 OA
ATOM     26  C   UNL     1      -7.077 -11.967   1.898  0.00  0.00    +0.277 C 
ENDBRANCH  22  25
ENDBRANCH  18  19
BRANCH  18  27
ATOM     27  C   UNL     1      -1.157  -9.098  -1.002  0.00  0.00    -0.001 C 
ATOM     28  C   UNL     1       0.213  -8.420  -1.054  0.00  0.00    +0.008 C 
ATOM     29  C   UNL     1      -0.976 -10.600  -0.773  0.00  0.00    +0.008 C 
ENDBRANCH  18  27
ENDBRANCH   2  18
TORSDOF 5
