REMARK  Name = ZINC11460798
REMARK  7 active torsions:
REMARK  status: ('A' for Active; 'I' for Inactive)
REMARK    1  A    between atoms: C_1  and  C_2
REMARK    2  A    between atoms: C_8  and  N_10
REMARK    3  A    between atoms: C_11  and  C_13
REMARK    4  A    between atoms: C_13  and  C_15
REMARK    5  A    between atoms: C_13  and  O_16
REMARK    6  A    between atoms: O_16  and  C_17
REMARK    7  A    between atoms: C_17  and  C_19
REMARK                            x       y       z     vdW  Elec       q    Type
REMARK                         _______ _______ _______ _____ _____    ______ ____
ROOT
ATOM      1  O   UNL     1       4.747   0.567   3.699  0.00  0.00    -0.449 OA
ENDROOT
BRANCH   1   2
ATOM      2  C   UNL     1       4.206   0.630   2.378  0.00  0.00    +0.259 C 
ATOM      3  C   UNL     1       4.188   2.085   1.903  0.00  0.00    +0.062 C 
BRANCH   2   5
ATOM      4  N   UNL     1       2.126  -0.048   1.224  0.00  0.00    -0.309 N 
ATOM      5  C   UNL     1       2.801   0.086   2.383  0.00  0.00    +0.254 C 
ATOM      6  O   UNL     1       2.278  -0.232   3.430  0.00  0.00    -0.272 OA
ATOM      7  H   UNL     1       2.544   0.206   0.387  0.00  0.00    +0.149 HD
BRANCH   4  14
ATOM      8  C   UNL     1      -0.033   1.457   0.013  0.00  0.00    +0.009 C 
ATOM      9  C   UNL     1       0.013  -0.072  -0.007  0.00  0.00    +0.006 C 
ATOM     10  C   UNL     1      -1.414  -0.625  -0.001  0.00  0.00    +0.005 C 
ATOM     11  C   UNL     1      -1.369  -2.154  -0.021  0.00  0.00    +0.000 C 
ATOM     12  C   UNL     1      -0.622  -2.658   1.215  0.00  0.00    +0.002 C 
ATOM     13  C   UNL     1       0.805  -2.106   1.210  0.00  0.00    +0.022 C 
ATOM     14  C   UNL     1       0.759  -0.577   1.230  0.00  0.00    +0.076 C 
ENDBRANCH   4  14
ENDBRANCH   2   5
ENDBRANCH   1   2
BRANCH   1  15
ATOM     15  C   UNL     1       6.079   0.405   3.808  0.00  0.00    +0.341 C 
ATOM     16  O   UNL     1       6.763   0.319   2.809  0.00  0.00    -0.245 OA
BRANCH  15  17
ATOM     17  C   UNL     1       6.710   0.331   5.147  0.00  0.00    +0.073 A 
ATOM     18  C   UNL     1       8.039   0.045   5.278  0.00  0.00    +0.085 A 
ATOM     19  C   UNL     1       8.632  -0.021   6.612  0.00  0.00    +0.250 A 
ATOM     20  N   UNL     1       7.889   0.195   7.711  0.00  0.00    -0.322 N 
ATOM     21  C   UNL     1       6.545   0.485   7.622  0.00  0.00    +0.050 A 
ATOM     22  C   UNL     1       5.920   0.569   6.365  0.00  0.00    +0.012 A 
ATOM     23  C   UNL     1       4.557   0.871   6.283  0.00  0.00    +0.011 A 
ATOM     24  C   UNL     1       3.840   1.089   7.425  0.00  0.00    +0.001 A 
ATOM     25  C   UNL     1       4.454   1.014   8.668  0.00  0.00    +0.002 A 
ATOM     26  C   UNL     1       5.792   0.705   8.773  0.00  0.00    +0.026 A 
ATOM     27  O   UNL     1       9.818  -0.276   6.729  0.00  0.00    -0.268 OA
ATOM     28  H   UNL     1       8.307   0.145   8.585  0.00  0.00    +0.169 HD
ENDBRANCH  15  17
ENDBRANCH   1  15
TORSDOF 5
