REMARK  Name = ZINC01787051
REMARK  9 active torsions:
REMARK  status: ('A' for Active; 'I' for Inactive)
REMARK    1  A    between atoms: C_1  and  C_2
REMARK    2  A    between atoms: C_5  and  N_9
REMARK    3  A    between atoms: C_6  and  C_8
REMARK    4  A    between atoms: N_9  and  C_10
REMARK    5  A    between atoms: C_10  and  C_12
REMARK    6  A    between atoms: C_10  and  N_16
REMARK    7  A    between atoms: C_17  and  C_19
REMARK    8  A    between atoms: C_21  and  N_28
REMARK    9  A    between atoms: C_23  and  N_25
REMARK                            x       y       z     vdW  Elec       q    Type
REMARK                         _______ _______ _______ _____ _____    ______ ____
ROOT
ATOM      1  N   UNL     1       0.105   1.983   2.156  0.00  0.00    -0.290 N 
ATOM      2  C   UNL     1       0.437   2.898   3.088  0.00  0.00    +0.246 C 
ATOM      3  O   UNL     1       0.001   4.030   3.010  0.00  0.00    -0.270 OA
ATOM      4  H   UNL     1       0.453   1.079   2.218  0.00  0.00    +0.151 HD
ENDROOT
BRANCH   2   5
ATOM      5  C   UNL     1       1.332   2.526   4.204  0.00  0.00    +0.041 A 
ATOM      6  C   UNL     1       1.830   1.225   4.300  0.00  0.00    +0.046 A 
ATOM      7  C   UNL     1       2.668   0.886   5.341  0.00  0.00    +0.129 A 
ATOM      8  C   UNL     1       3.008   1.828   6.295  0.00  0.00    +0.065 A 
ATOM      9  C   UNL     1       2.513   3.117   6.210  0.00  0.00    +0.129 A 
ATOM     10  C   UNL     1       1.678   3.472   5.170  0.00  0.00    +0.046 A 
BRANCH   9  11
ATOM     11  N   UNL     1       2.882   4.119   7.236  0.00  0.00    +0.057 N 
ATOM     12  O   UNL     1       2.448   5.255   7.161  0.00  0.00    -0.126 OA
ATOM     13  O   UNL     1       3.619   3.808   8.154  0.00  0.00    -0.126 OA
ENDBRANCH   9  11
BRANCH   7  14
ATOM     14  N   UNL     1       3.202  -0.491   5.440  0.00  0.00    +0.057 N 
ATOM     15  O   UNL     1       3.939  -0.794   6.362  0.00  0.00    -0.126 OA
ATOM     16  O   UNL     1       2.904  -1.322   4.601  0.00  0.00    -0.126 OA
ENDBRANCH   7  14
ENDBRANCH   2   5
BRANCH   1  17
ATOM     17  C   UNL     1      -0.782   2.352   1.050  0.00  0.00    +0.210 C 
BRANCH  17  18
ATOM     18  C   UNL     1      -0.215   1.805  -0.262  0.00  0.00    +0.225 C 
ATOM     19 CL   UNL     1      -0.095   0.009  -0.162  0.00  0.00    -0.080 Cl
ATOM     20 CL   UNL     1       1.423   2.503  -0.546  0.00  0.00    -0.080 Cl
ATOM     21 CL   UNL     1      -1.307   2.259  -1.623  0.00  0.00    -0.080 Cl
ENDBRANCH  17  18
BRANCH  17  22
ATOM     22  N   UNL     1      -2.113   1.785   1.281  0.00  0.00    -0.322 N 
ATOM     23  H   UNL     1      -2.269   0.839   1.137  0.00  0.00    +0.148 HD
BRANCH  22  28
ATOM     24  C   UNL     1      -6.353   5.123   3.022  0.00  0.00    +0.044 C 
ATOM     25  C   UNL     1      -5.227   4.236   2.559  0.00  0.00    -0.050 A 
ATOM     26  C   UNL     1      -3.947   4.749   2.445  0.00  0.00    +0.005 A 
ATOM     27  C   UNL     1      -2.911   3.938   2.027  0.00  0.00    +0.023 A 
ATOM     28  C   UNL     1      -3.158   2.607   1.709  0.00  0.00    +0.031 A 
ATOM     29  C   UNL     1      -4.444   2.096   1.824  0.00  0.00    -0.029 A 
ATOM     30  C   UNL     1      -5.474   2.912   2.248  0.00  0.00    +0.008 A 
ATOM     31  C   UNL     1      -4.715   0.653   1.486  0.00  0.00    +0.045 C 
ENDBRANCH  22  28
ENDBRANCH  17  22
ENDBRANCH   1  17
TORSDOF 7
