REMARK  Name = ZINC59392522
REMARK  5 active torsions:
REMARK  status: ('A' for Active; 'I' for Inactive)
REMARK    1  A    between atoms: C_1  and  C_2
REMARK    2  A    between atoms: C_2  and  C_3
REMARK    3  A    between atoms: N_10  and  C_11
REMARK    4  A    between atoms: C_18  and  S_20
REMARK    5  A    between atoms: S_20  and  C_21
REMARK                            x       y       z     vdW  Elec       q    Type
REMARK                         _______ _______ _______ _____ _____    ______ ____
ROOT
ATOM      1  C   UNL     1       0.707  -0.490  -1.238  0.00  0.00    -0.047 A 
ATOM      2  C   UNL     1      -0.013  -0.719  -2.399  0.00  0.00    +0.005 A 
ATOM      3  C   UNL     1       0.619  -1.164  -3.543  0.00  0.00    +0.024 A 
ATOM      4  C   UNL     1       1.991  -1.388  -3.540  0.00  0.00    +0.043 A 
ATOM      5  C   UNL     1       2.717  -1.156  -2.363  0.00  0.00    +0.027 A 
ATOM      6  C   UNL     1       2.071  -0.702  -1.217  0.00  0.00    +0.015 A 
ATOM      7  C   UNL     1       4.127  -1.478  -2.670  0.00  0.00    +0.135 C 
ATOM      8  N   UNL     1       5.159  -1.406  -1.861  0.00  0.00    -0.242 NA
ATOM      9  C   UNL     1       4.122  -1.901  -4.090  0.00  0.00    +0.267 C 
ATOM     10  O   UNL     1       5.091  -2.253  -4.736  0.00  0.00    -0.268 OA
ATOM     11  N   UNL     1       2.857  -1.827  -4.536  0.00  0.00    -0.280 N 
ATOM     12  H   UNL     1       2.582  -2.052  -5.439  0.00  0.00    +0.155 HD
ENDROOT
BRANCH   8  13
ATOM     13  C   UNL     1       6.390  -1.740  -2.304  0.00  0.00    +0.066 A 
ATOM     14  C   UNL     1       6.582  -2.901  -3.074  0.00  0.00    +0.030 A 
ATOM     15  C   UNL     1       7.808  -3.253  -3.527  0.00  0.00    +0.031 A 
ATOM     16  C   UNL     1       8.950  -2.460  -3.242  0.00  0.00    +0.080 A 
ATOM     17  C   UNL     1       8.733  -1.294  -2.465  0.00  0.00    +0.042 A 
ATOM     18  C   UNL     1       7.499  -0.929  -2.009  0.00  0.00    +0.045 A 
ATOM     19  S   UNL     1      10.369  -0.612  -2.342  0.00  0.00    -0.061 S 
ATOM     20  C   UNL     1      11.207  -1.871  -3.295  0.00  0.00    +0.135 A 
ATOM     21  N   UNL     1      10.218  -2.679  -3.619  0.00  0.00    -0.233 NA
BRANCH  20  22
ATOM     22  S   UNL     1      12.917  -1.999  -3.697  0.00  0.00    -0.102 S 
ATOM     23  C   UNL     1      13.024  -3.521  -4.679  0.00  0.00    +0.092 C 
ENDBRANCH  20  22
ENDBRANCH   8  13
BRANCH   1  25
ATOM     24  C   UNL     1      -0.019   1.526   0.010  0.00  0.00    +0.009 C 
ATOM     25  C   UNL     1       0.002  -0.004   0.002  0.00  0.00    +0.032 C 
ENDBRANCH   1  25
TORSDOF 3
