REMARK  Name = ZINC13983639
REMARK  12 active torsions:
REMARK  status: ('A' for Active; 'I' for Inactive)
REMARK    1  A    between atoms: C_1  and  C_2
REMARK    2  A    between atoms: C_2  and  C_3
REMARK    3  A    between atoms: C_3  and  C_5
REMARK    4  A    between atoms: C_3  and  C_6
REMARK    5  A    between atoms: C_9  and  O_12
REMARK    6  A    between atoms: O_12  and  C_13
REMARK    7  A    between atoms: C_13  and  C_14
REMARK    8  A    between atoms: N_16  and  N_17
REMARK    9  A    between atoms: N_17  and  C_18
REMARK   10  A    between atoms: C_18  and  N_20
REMARK   11  A    between atoms: C_21  and  C_23
REMARK   12  A    between atoms: C_23  and  C_24
REMARK                            x       y       z     vdW  Elec       q    Type
REMARK                         _______ _______ _______ _____ _____    ______ ____
ROOT
ATOM      1  N   UNL     1       3.478   1.930  -0.021  0.00  0.00    -0.245 N 
ATOM      2  H   UNL     1       4.324   1.456  -0.031  0.00  0.00    +0.172 HD
ENDROOT
BRANCH   1   5
ATOM      3  C   UNL     1       4.617   4.020  -0.020  0.00  0.00    +0.267 C 
ATOM      4  O   UNL     1       5.675   3.428  -0.034  0.00  0.00    -0.271 OA
ATOM      5  N   UNL     1       3.459   3.331  -0.013  0.00  0.00    -0.232 N 
ATOM      6  H   UNL     1       2.612   3.804  -0.003  0.00  0.00    +0.173 HD
BRANCH   3   7
ATOM      7  C   UNL     1       4.596   5.527  -0.012  0.00  0.00    +0.326 C 
BRANCH   7   8
ATOM      8  O   UNL     1       5.937   6.022  -0.022  0.00  0.00    -0.483 OA
BRANCH   8  12
ATOM      9  C   UNL     1       6.422  10.118  -0.005  0.00  0.00    -0.044 A 
ATOM     10  C   UNL     1       7.530   9.292  -0.020  0.00  0.00    +0.007 A 
ATOM     11  C   UNL     1       7.370   7.920  -0.026  0.00  0.00    +0.046 A 
ATOM     12  C   UNL     1       6.096   7.371  -0.017  0.00  0.00    +0.121 A 
ATOM     13  C   UNL     1       4.986   8.202  -0.007  0.00  0.00    +0.046 A 
ATOM     14  C   UNL     1       5.151   9.574   0.005  0.00  0.00    +0.007 A 
BRANCH   9  15
ATOM     15  C   UNL     1       6.599  11.615   0.002  0.00  0.00    +0.016 C 
ATOM     16  C   UNL     1       5.931  12.213  -1.238  0.00  0.00    +0.012 C 
BRANCH  15  18
ATOM     17  C   UNL     1       6.242  13.701   1.330  0.00  0.00    +0.004 C 
ATOM     18  C   UNL     1       5.955  12.200   1.260  0.00  0.00    +0.004 C 
ENDBRANCH  15  18
ENDBRANCH   9  15
ENDBRANCH   8  12
ENDBRANCH   7   8
ENDBRANCH   3   7
ENDBRANCH   1   5
BRANCH   1  19
ATOM     19  C   UNL     1       2.320   1.240  -0.013  0.00  0.00    +0.153 C 
ATOM     20  S   UNL     1       2.343  -0.472  -0.023  0.00  0.00    -0.017 S 
BRANCH  19  21
ATOM     21  N   UNL     1       1.143   1.898   0.001  0.00  0.00    -0.266 N 
ATOM     22  C   UNL     1      -0.014   1.208   0.009  0.00  0.00    +0.223 C 
ATOM     23  O   UNL     1       0.002  -0.004   0.002  0.00  0.00    -0.275 OA
ATOM     24  H   UNL     1       1.130   2.868   0.007  0.00  0.00    +0.157 HD
BRANCH  22  25
ATOM     25  C   UNL     1      -1.330   1.944   0.019  0.00  0.00    +0.131 C 
BRANCH  25  26
ATOM     26  C   UNL     1      -2.462   0.949   0.019  0.00  0.00    -0.031 A 
ATOM     27  C   UNL     1      -3.049   0.581  -1.153  0.00  0.00    +0.005 A 
ATOM     28  C   UNL     1      -4.097  -0.337  -1.173  0.00  0.00    +0.001 A 
ATOM     29  C   UNL     1      -4.563  -0.893  -0.021  0.00  0.00    +0.008 A 
ATOM     30  C   UNL     1      -3.982  -0.538   1.208  0.00  0.00    -0.018 A 
ATOM     31  C   UNL     1      -2.913   0.393   1.228  0.00  0.00    -0.014 A 
ATOM     32  C   UNL     1      -2.334   0.751   2.457  0.00  0.00    +0.009 A 
ATOM     33  C   UNL     1      -2.801   0.196   3.608  0.00  0.00    +0.001 A 
ATOM     34  C   UNL     1      -3.849  -0.722   3.589  0.00  0.00    +0.001 A 
ATOM     35  C   UNL     1      -4.437  -1.090   2.417  0.00  0.00    +0.008 A 
ENDBRANCH  25  26
ENDBRANCH  22  25
ENDBRANCH  19  21
ENDBRANCH   1  19
TORSDOF 10
