REMARK  Name = ZINC27317542
REMARK  5 active torsions:
REMARK  status: ('A' for Active; 'I' for Inactive)
REMARK    1  A    between atoms: C_2  and  N_20
REMARK    2  A    between atoms: N_8  and  C_11
REMARK    3  A    between atoms: C_15  and  C_18
REMARK    4  A    between atoms: C_18  and  O_19
REMARK    5  A    between atoms: N_20  and  C_21
REMARK                            x       y       z     vdW  Elec       q    Type
REMARK                         _______ _______ _______ _____ _____    ______ ____
ROOT
ATOM      1  C   UNL     1       5.005  -0.245   1.269  0.00  0.00    +0.065 A 
ATOM      2  C   UNL     1       4.272  -0.581   2.402  0.00  0.00    +0.060 A 
ATOM      3  C   UNL     1       4.973  -1.044   3.529  0.00  0.00    +0.129 A 
ATOM      4  C   UNL     1       6.371  -1.142   3.466  0.00  0.00    +0.166 A 
ATOM      5  N   UNL     1       7.019  -0.803   2.361  0.00  0.00    -0.216 NA
ATOM      6  C   UNL     1       6.384  -0.365   1.290  0.00  0.00    +0.133 A 
ATOM      7 CL   UNL     1       7.296   0.061  -0.124  0.00  0.00    -0.062 Cl
ATOM      8  N   UNL     1       6.771  -1.616   4.697  0.00  0.00    -0.288 N 
ATOM      9  C   UNL     1       5.650  -1.789   5.451  0.00  0.00    +0.203 A 
ATOM     10  N   UNL     1       4.596  -1.454   4.766  0.00  0.00    -0.232 NA
ENDROOT
BRANCH   8  11
ATOM     11  C   UNL     1       8.148  -1.885   5.116  0.00  0.00    +0.222 C 
ATOM     12  C   UNL     1       8.565  -3.303   4.671  0.00  0.00    +0.057 C 
ATOM     13  C   UNL     1       9.393  -3.799   5.889  0.00  0.00    +0.038 C 
ATOM     14  C   UNL     1       8.641  -3.113   7.058  0.00  0.00    +0.146 C 
ATOM     15  O   UNL     1       8.240  -1.833   6.545  0.00  0.00    -0.351 OA
BRANCH  14  16
ATOM     16  C   UNL     1       9.573  -2.936   8.258  0.00  0.00    +0.187 C 
BRANCH  16  17
ATOM     17  O   UNL     1       8.849  -2.349   9.341  0.00  0.00    -0.392 OA
ATOM     18  H   UNL     1       9.356  -2.144  10.295  0.00  0.00    +0.210 HD
ENDBRANCH  16  17
ENDBRANCH  14  16
ENDBRANCH   8  11
BRANCH   2  19
ATOM     19  N   UNL     1       2.886  -0.467   2.418  0.00  0.00    -0.339 N 
ATOM     20  H   UNL     1       2.322  -0.741   3.321  0.00  0.00    +0.146 HD
BRANCH  19  21
ATOM     21  C   UNL     1       2.178   0.019   1.231  0.00  0.00    +0.070 C 
ATOM     22  C   UNL     1       0.742  -0.511   1.242  0.00  0.00    +0.022 C 
ATOM     23  C   UNL     1       0.002  -0.004   0.002  0.00  0.00    +0.002 C 
ATOM     24  C   UNL     1      -0.019   1.526   0.010  0.00  0.00    +0.000 C 
ATOM     25  C   UNL     1       1.417   2.055  -0.000  0.00  0.00    +0.002 C 
ATOM     26  C   UNL     1       2.157   1.548   1.239  0.00  0.00    +0.022 C 
ENDBRANCH  19  21
ENDBRANCH   2  19
TORSDOF 5
