REMARK  Name = ZINC06914922
REMARK  6 active torsions:
REMARK  status: ('A' for Active; 'I' for Inactive)
REMARK    1  A    between atoms: C_1  and  C_2
REMARK    2  A    between atoms: C_5  and  C_7
REMARK    3  A    between atoms: C_7  and  N_8
REMARK    4  A    between atoms: C_9  and  C_11
REMARK    5  A    between atoms: C_14  and  N_16
REMARK    6  A    between atoms: C_18  and  C_27
REMARK                            x       y       z     vdW  Elec       q    Type
REMARK                         _______ _______ _______ _____ _____    ______ ____
ROOT
ATOM      1  C   UNL     1      -2.967   6.210   3.026  0.00  0.00    +0.076 A 
ATOM      2  C   UNL     1      -3.479   7.411   3.498  0.00  0.00    +0.022 A 
ATOM      3  C   UNL     1      -3.538   7.578   4.855  0.00  0.00    +0.032 A 
ATOM      4  C   UNL     1      -3.082   6.561   5.669  0.00  0.00    +0.073 A 
ATOM      5  S   UNL     1      -2.570   5.351   4.538  0.00  0.00    -0.069 S 
ENDROOT
BRANCH   4   6
ATOM      6  N   UNL     1      -3.043   6.518   7.053  0.00  0.00    -0.293 N 
ATOM      7  C   UNL     1      -4.306   6.496   7.785  0.00  0.00    +0.125 C 
ATOM      8  C   UNL     1      -4.303   5.279   8.730  0.00  0.00    +0.066 C 
ATOM      9  S   UNL     1      -3.001   5.553   9.969  0.00  0.00    -0.119 S 
ATOM     10  C   UNL     1      -1.625   6.085   9.000  0.00  0.00    +0.030 A 
ATOM     11  C   UNL     1      -1.799   6.503   7.683  0.00  0.00    +0.048 A 
ATOM     12  C   UNL     1      -0.689   6.926   6.955  0.00  0.00    +0.024 A 
ATOM     13  C   UNL     1       0.566   6.925   7.529  0.00  0.00    +0.002 A 
ATOM     14  C   UNL     1       0.734   6.503   8.834  0.00  0.00    +0.001 A 
ATOM     15  C   UNL     1      -0.358   6.083   9.569  0.00  0.00    +0.016 A 
ATOM     16  C   UNL     1      -5.662   5.158   9.423  0.00  0.00    +0.021 C 
ENDBRANCH   4   6
BRANCH   1  18
ATOM     17  N   UNL     1      -2.272   4.566   1.430  0.00  0.00    -0.304 N 
ATOM     18  C   UNL     1      -2.798   5.780   1.687  0.00  0.00    +0.251 C 
ATOM     19  O   UNL     1      -3.129   6.506   0.767  0.00  0.00    -0.270 OA
ATOM     20  H   UNL     1      -2.008   3.987   2.163  0.00  0.00    +0.149 HD
BRANCH  17  21
ATOM     21  C   UNL     1      -2.097   4.121   0.045  0.00  0.00    +0.179 C 
BRANCH  21  26
ATOM     22  C   UNL     1       1.313   0.405  -0.014  0.00  0.00    +0.086 C 
ATOM     23  C   UNL     1      -0.011   1.124   0.008  0.00  0.00    +0.102 A 
ATOM     24  C   UNL     1      -1.222   0.540   0.025  0.00  0.00    +0.045 A 
ATOM     25  C   UNL     1      -2.179   1.582   0.036  0.00  0.00    +0.046 A 
ATOM     26  C   UNL     1      -1.494   2.740   0.034  0.00  0.00    +0.122 A 
ATOM     27  O   UNL     1      -0.181   2.456   0.014  0.00  0.00    -0.463 OA
ENDBRANCH  21  26
ENDBRANCH  17  21
ENDBRANCH   1  18
TORSDOF 4
