REMARK  Name = ZINC06652288
REMARK  7 active torsions:
REMARK  status: ('A' for Active; 'I' for Inactive)
REMARK    1  A    between atoms: C_1  and  C_2
REMARK    2  A    between atoms: C_5  and  C_8
REMARK    3  A    between atoms: C_11  and  S_14
REMARK    4  A    between atoms: N_12  and  N_13
REMARK    5  A    between atoms: S_14  and  C_15
REMARK    6  A    between atoms: C_15  and  C_17
REMARK    7  A    between atoms: C_15  and  C_18
REMARK                            x       y       z     vdW  Elec       q    Type
REMARK                         _______ _______ _______ _____ _____    ______ ____
ROOT
ATOM      1  C   UNL     1      -0.153  -0.896   1.105  0.00  0.00    +0.182 A 
ATOM      2  N   UNL     1      -0.004  -2.112   0.635  0.00  0.00    -0.127 NA
ATOM      3  N   UNL     1      -0.001  -2.089  -0.650  0.00  0.00    -0.121 NA
ATOM      4  C   UNL     1      -0.154  -0.856  -1.079  0.00  0.00    +0.209 A 
ATOM      5  N   UNL     1      -0.250  -0.053   0.021  0.00  0.00    -0.224 N 
ENDROOT
BRANCH   1  10
ATOM      6  C   UNL     1      -0.361   0.627   6.650  0.00  0.00    +0.044 C 
ATOM      7  C   UNL     1      -0.307   0.228   5.198  0.00  0.00    -0.050 A 
ATOM      8  C   UNL     1      -0.457  -1.101   4.842  0.00  0.00    +0.004 A 
ATOM      9  C   UNL     1      -0.409  -1.472   3.515  0.00  0.00    +0.012 A 
ATOM     10  C   UNL     1      -0.207  -0.504   2.529  0.00  0.00    +0.021 A 
ATOM     11  C   UNL     1      -0.050   0.833   2.895  0.00  0.00    +0.012 A 
ATOM     12  C   UNL     1      -0.106   1.192   4.226  0.00  0.00    +0.004 A 
ENDBRANCH   1  10
BRANCH   5  13
ATOM     13  N   UNL     1      -0.415   1.303   0.042  0.00  0.00    -0.295 N 
ATOM     14  H   UNL     1       0.477   1.775   0.052  0.00  0.00    +0.163 HD
ATOM     15  H   UNL     1      -0.978   1.611  -0.736  0.00  0.00    +0.163 HD
ENDBRANCH   5  13
BRANCH   4  16
ATOM     16  S   UNL     1      -0.219  -0.335  -2.762  0.00  0.00    -0.077 S 
BRANCH  16  17
ATOM     17  C   UNL     1      -0.026  -1.932  -3.592  0.00  0.00    +0.083 C 
ATOM     18  C   UNL     1       1.361  -2.502  -3.286  0.00  0.00    +0.024 C 
BRANCH  17  19
ATOM     19  C   UNL     1      -0.175  -1.745  -5.080  0.00  0.00    -0.016 A 
ATOM     20  C   UNL     1       0.118  -0.523  -5.657  0.00  0.00    +0.006 A 
ATOM     21  C   UNL     1      -0.019  -0.351  -7.021  0.00  0.00    +0.000 A 
ATOM     22  C   UNL     1      -0.448  -1.402  -7.811  0.00  0.00    +0.001 A 
ATOM     23  C   UNL     1      -0.741  -2.624  -7.236  0.00  0.00    +0.020 A 
ATOM     24  C   UNL     1      -0.599  -2.798  -5.871  0.00  0.00    +0.045 A 
ATOM     25 CL   UNL     1      -0.960  -4.335  -5.149  0.00  0.00    -0.083 Cl
ENDBRANCH  17  19
ENDBRANCH  16  17
ENDBRANCH   4  16
TORSDOF 5
