REMARK  Name = ZINC03011158
REMARK  3 active torsions:
REMARK  status: ('A' for Active; 'I' for Inactive)
REMARK    1  A    between atoms: C_11  and  C_13
REMARK    2  A    between atoms: C_18  and  C_33
REMARK    3  A    between atoms: C_21  and  C_24
REMARK                            x       y       z     vdW  Elec       q    Type
REMARK                         _______ _______ _______ _____ _____    ______ ____
ROOT
ATOM      1  C   UNL     1       5.553  -2.069   1.633  0.00  0.00    +0.149 A 
ATOM      2  C   UNL     1       6.551  -2.659   2.441  0.00  0.00    +0.078 A 
ATOM      3  C   UNL     1       7.430  -1.693   2.774  0.00  0.00    +0.119 A 
ATOM      4  N   UNL     1       7.015  -0.525   2.199  0.00  0.00    -0.238 N 
ATOM      5  N   UNL     1       5.845  -0.788   1.489  0.00  0.00    -0.164 NA
ATOM      6  C   UNL     1       7.729   0.748   2.338  0.00  0.00    +0.215 C 
ATOM      7  C   UNL     1       9.171   0.463   2.772  0.00  0.00    +0.063 C 
ATOM      8  C   UNL     1       9.177  -0.488   3.975  0.00  0.00    +0.104 C 
ATOM      9  N   UNL     1       8.583  -1.774   3.559  0.00  0.00    -0.322 N 
ATOM     10  H   UNL     1       8.971  -2.626   3.816  0.00  0.00    +0.148 HD
ENDROOT
BRANCH   1  21
ATOM     11  C   UNL     1      -0.427   1.032   1.116  0.00  0.00    +0.000 A 
ATOM     12  C   UNL     1       0.693   1.841   1.139  0.00  0.00    +0.000 A 
ATOM     13  C   UNL     1       1.937   1.294   0.901  0.00  0.00    +0.005 A 
ATOM     14  C   UNL     1       2.073  -0.063   0.644  0.00  0.00    -0.027 A 
ATOM     15  C   UNL     1       0.959  -0.873   0.630  0.00  0.00    -0.041 A 
ATOM     16  C   UNL     1      -0.294  -0.317   0.862  0.00  0.00    +0.004 A 
ATOM     17  C   UNL     1       1.031  -2.357   0.389  0.00  0.00    +0.054 C 
ATOM     18  C   UNL     1       2.337  -2.732  -0.309  0.00  0.00    +0.113 C 
ATOM     19  N   UNL     1       3.439  -2.061   0.401  0.00  0.00    -0.292 N 
ATOM     20  C   UNL     1       3.459  -0.594   0.378  0.00  0.00    +0.143 C 
ATOM     21  C   UNL     1       4.391  -2.765   1.044  0.00  0.00    +0.267 C 
ATOM     22  O   UNL     1       4.292  -3.973   1.141  0.00  0.00    -0.268 OA
ENDBRANCH   1  21
BRANCH   8  23
ATOM     23  C   UNL     1       8.365   0.109   5.096  0.00  0.00    -0.024 A 
ATOM     24  C   UNL     1       6.986   0.012   5.077  0.00  0.00    +0.009 A 
ATOM     25  C   UNL     1       6.238   0.558   6.103  0.00  0.00    +0.050 A 
ATOM     26  C   UNL     1       6.869   1.205   7.153  0.00  0.00    +0.166 A 
ATOM     27  C   UNL     1       8.258   1.303   7.172  0.00  0.00    +0.167 A 
ATOM     28  C   UNL     1       9.002   0.748   6.143  0.00  0.00    +0.055 A 
ATOM     29  O   UNL     1       8.632   1.978   8.298  0.00  0.00    -0.453 OA
ATOM     30  C   UNL     1       7.443   2.646   8.759  0.00  0.00    +0.466 C 
ATOM     31  O   UNL     1       6.373   1.818   8.267  0.00  0.00    -0.453 OA
ENDBRANCH   8  23
BRANCH   6  32
ATOM     32  C   UNL     1       7.731   1.484   0.997  0.00  0.00    +0.412 C 
ATOM     33  F   UNL     1       6.413   1.731   0.599  0.00  0.00    -0.168 F 
ATOM     34  F   UNL     1       8.412   2.698   1.132  0.00  0.00    -0.168 F 
ATOM     35  F   UNL     1       8.369   0.695   0.034  0.00  0.00    -0.168 F 
ENDBRANCH   6  32
TORSDOF 3
