REMARK  Name = ZINC21924290
REMARK  8 active torsions:
REMARK  status: ('A' for Active; 'I' for Inactive)
REMARK    1  A    between atoms: C_1  and  C_2
REMARK    2  A    between atoms: C_4  and  C_29
REMARK    3  A    between atoms: C_8  and  N_28
REMARK    4  A    between atoms: C_9  and  C_11
REMARK    5  A    between atoms: C_11  and  O_13
REMARK    6  A    between atoms: O_13  and  C_14
REMARK    7  A    between atoms: C_14  and  C_15
REMARK    8  A    between atoms: C_18  and  C_21
REMARK                            x       y       z     vdW  Elec       q    Type
REMARK                         _______ _______ _______ _____ _____    ______ ____
ROOT
ATOM      1  C   UNL     1       0.990  -1.246   4.306  0.00  0.00    +0.348 C 
ATOM      2  O   UNL     1       1.101  -0.164   4.853  0.00  0.00    -0.244 OA
ENDROOT
BRANCH   1  11
ATOM      3  C   UNL     1       1.075   1.741  -0.351  0.00  0.00    +0.044 C 
ATOM      4  C   UNL     1       0.942   0.254  -0.549  0.00  0.00    -0.037 A 
ATOM      5  C   UNL     1       0.856  -0.277  -1.815  0.00  0.00    +0.025 A 
ATOM      6  C   UNL     1       0.734  -1.646  -1.996  0.00  0.00    +0.014 A 
ATOM      7  N   UNL     1       0.697  -2.457  -0.956  0.00  0.00    -0.353 N 
ATOM      8  C   UNL     1       0.776  -1.998   0.275  0.00  0.00    +0.088 A 
ATOM      9  C   UNL     1       0.908  -0.621   0.565  0.00  0.00    +0.030 A 
ATOM     10  C   UNL     1       0.987  -0.292   1.980  0.00  0.00    +0.055 A 
ATOM     11  C   UNL     1       0.933  -1.322   2.894  0.00  0.00    +0.119 A 
ATOM     12  S   UNL     1       0.760  -2.772   1.873  0.00  0.00    -0.062 S 
ATOM     13  C   UNL     1       0.641  -2.212  -3.389  0.00  0.00    +0.063 C 
ATOM     14  H   UNL     1       0.610  -3.412  -1.101  0.00  0.00    +0.166 HD
BRANCH  10  15
ATOM     15  N   UNL     1       1.114   1.024   2.398  0.00  0.00    -0.356 N 
ATOM     16  H   UNL     1       1.040   1.747   1.755  0.00  0.00    +0.142 HD
ATOM     17  H   UNL     1       1.276   1.222   3.334  0.00  0.00    +0.142 HD
ENDBRANCH  10  15
ENDBRANCH   1  11
BRANCH   1  18
ATOM     18  O   UNL     1       0.922  -2.372   5.046  0.00  0.00    -0.456 OA
BRANCH  18  19
ATOM     19  C   UNL     1       0.986  -2.221   6.466  0.00  0.00    +0.268 C 
BRANCH  19  20
ATOM     20  C   UNL     1       0.895  -3.575   7.120  0.00  0.00    -0.010 A 
ATOM     21  C   UNL     1      -0.342  -4.096   7.457  0.00  0.00    +0.008 A 
ATOM     22  C   UNL     1      -0.432  -5.335   8.057  0.00  0.00    +0.013 A 
ATOM     23  C   UNL     1       0.728  -6.064   8.323  0.00  0.00    +0.037 A 
ATOM     24  C   UNL     1       1.973  -5.534   7.980  0.00  0.00    +0.013 A 
ATOM     25  C   UNL     1       2.049  -4.295   7.376  0.00  0.00    +0.008 A 
BRANCH  23  26
ATOM     26  C   UNL     1       0.639  -7.393   8.965  0.00  0.00    +0.247 C 
ATOM     27  O   UNL     1      -0.448  -7.870   9.227  0.00  0.00    -0.270 OA
ATOM     28  N   UNL     1       1.763  -8.076   9.260  0.00  0.00    -0.298 N 
ATOM     29  C   UNL     1       3.133  -7.655   8.930  0.00  0.00    +0.108 C 
ATOM     30  C   UNL     1       4.086  -8.757   9.438  0.00  0.00    +0.020 C 
ATOM     31  C   UNL     1       3.164 -10.003   9.520  0.00  0.00    +0.020 C 
ATOM     32  C   UNL     1       1.823  -9.366   9.971  0.00  0.00    +0.108 C 
ENDBRANCH  23  26
ENDBRANCH  19  20
ENDBRANCH  18  19
ENDBRANCH   1  18
TORSDOF 6
