REMARK  Name = ZINC45343774
REMARK  9 active torsions:
REMARK  status: ('A' for Active; 'I' for Inactive)
REMARK    1  A    between atoms: C_1  and  C_2
REMARK    2  A    between atoms: C_2  and  C_4
REMARK    3  A    between atoms: C_2  and  N_11
REMARK    4  A    between atoms: N_11  and  C_12
REMARK    5  A    between atoms: C_12  and  C_14
REMARK    6  A    between atoms: C_12  and  C_15
REMARK    7  A    between atoms: N_17  and  C_18
REMARK    8  A    between atoms: C_21  and  S_24
REMARK    9  A    between atoms: S_24  and  N_27
REMARK                            x       y       z     vdW  Elec       q    Type
REMARK                         _______ _______ _______ _____ _____    ______ ____
ROOT
ATOM      1  C   UNL     1       0.747  -0.511   3.622  0.00  0.00    +0.203 C 
ATOM      2  O   UNL     1       1.825  -1.053   3.501  0.00  0.00    -0.277 OA
ATOM      3  N   UNL     1       0.250  -0.263   4.850  0.00  0.00    -0.287 N 
ATOM      4  H   UNL     1      -0.579   0.230   4.947  0.00  0.00    +0.155 HD
ENDROOT
BRANCH   3   5
ATOM      5  C   UNL     1       0.931  -0.718   5.985  0.00  0.00    +0.033 A 
ATOM      6  C   UNL     1       0.220  -1.149   7.097  0.00  0.00    +0.025 A 
ATOM      7  C   UNL     1       0.895  -1.598   8.215  0.00  0.00    +0.030 A 
ATOM      8  C   UNL     1       2.277  -1.618   8.228  0.00  0.00    +0.106 A 
ATOM      9  C   UNL     1       2.989  -1.190   7.122  0.00  0.00    +0.030 A 
ATOM     10  C   UNL     1       2.320  -0.746   5.999  0.00  0.00    +0.025 A 
BRANCH   8  11
ATOM     11  S   UNL     1       3.135  -2.191   9.657  0.00  0.00    +0.061 S 
ATOM     12  O   UNL     1       4.426  -1.599   9.620  0.00  0.00    -0.153 OA
ATOM     13  O   UNL     1       2.250  -2.023  10.756  0.00  0.00    -0.153 OA
BRANCH  11  14
ATOM     14  N   UNL     1       3.357  -3.822   9.473  0.00  0.00    -0.177 NA
ATOM     15  C   UNL     1       2.350  -4.774   9.962  0.00  0.00    +0.109 C 
ATOM     16  C   UNL     1       1.954  -5.706   8.812  0.00  0.00    +0.017 C 
ATOM     17  C   UNL     1       3.211  -6.361   8.236  0.00  0.00    +0.003 C 
ATOM     18  C   UNL     1       4.143  -5.281   7.683  0.00  0.00    +0.017 C 
ATOM     19  C   UNL     1       4.561  -4.344   8.814  0.00  0.00    +0.109 C 
ENDBRANCH  11  14
ENDBRANCH   8  11
ENDBRANCH   3   5
BRANCH   1  20
ATOM     20  C   UNL     1      -0.037  -0.113   2.398  0.00  0.00    +0.014 C 
ATOM     21  C   UNL     1      -1.388  -0.831   2.402  0.00  0.00    -0.004 C 
BRANCH  20  22
ATOM     22  N   UNL     1       0.714  -0.488   1.192  0.00  0.00    +0.391 N 
ATOM     23  H   UNL     1       0.792  -1.493   1.144  0.00  0.00    -0.084 HD
ATOM     24  H   UNL     1       1.635  -0.080   1.229  0.00  0.00    -0.084 HD
BRANCH  22  26
ATOM     25  C   UNL     1      -0.003   1.536   0.013  0.00  0.00    -0.009 C 
ATOM     26  C   UNL     1       0.007   0.006   0.002  0.00  0.00    -0.043 C 
BRANCH  26  27
ATOM     27  C   UNL     1       0.710  -0.483  -1.238  0.00  0.00    -0.060 A 
ATOM     28  C   UNL     1       2.092  -0.514  -1.283  0.00  0.00    +0.002 A 
ATOM     29  C   UNL     1       2.737  -0.962  -2.420  0.00  0.00    +0.002 A 
ATOM     30  C   UNL     1       2.001  -1.380  -3.513  0.00  0.00    +0.020 A 
ATOM     31  C   UNL     1       0.619  -1.350  -3.469  0.00  0.00    +0.041 A 
ATOM     32  C   UNL     1      -0.027  -0.907  -2.328  0.00  0.00    +0.022 A 
ATOM     33 CL   UNL     1      -0.306  -1.875  -4.841  0.00  0.00    -0.084 Cl
ENDBRANCH  26  27
ENDBRANCH  22  26
ENDBRANCH  20  22
ENDBRANCH   1  20
TORSDOF 7
