REMARK  Name = ZINC00661448
REMARK  6 active torsions:
REMARK  status: ('A' for Active; 'I' for Inactive)
REMARK    1  A    between atoms: C_1  and  O_2
REMARK    2  A    between atoms: O_2  and  C_3
REMARK    3  A    between atoms: C_8  and  N_9
REMARK    4  A    between atoms: C_10  and  C_12
REMARK    5  A    between atoms: C_13  and  N_30
REMARK    6  A    between atoms: C_17  and  C_21
REMARK                            x       y       z     vdW  Elec       q    Type
REMARK                         _______ _______ _______ _____ _____    ______ ____
ROOT
ATOM      1  C   UNL     1      -3.582  -0.802   0.239  0.00  0.00    +0.097 A 
ATOM      2  C   UNL     1      -4.866  -0.316   0.365  0.00  0.00    +0.053 A 
ATOM      3  C   UNL     1      -5.958  -1.271   0.466  0.00  0.00    +0.029 A 
ATOM      4  C   UNL     1      -7.347  -1.014   0.602  0.00  0.00    +0.014 A 
ATOM      5  C   UNL     1      -8.213  -2.061   0.680  0.00  0.00    +0.029 A 
ATOM      6  C   UNL     1      -7.740  -3.377   0.629  0.00  0.00    +0.072 A 
ATOM      7  N   UNL     1      -6.441  -3.615   0.503  0.00  0.00    -0.239 NA
ATOM      8  C   UNL     1      -5.572  -2.631   0.423  0.00  0.00    +0.111 A 
ATOM      9  S   UNL     1      -3.806  -2.570   0.246  0.00  0.00    -0.062 S 
ENDROOT
BRANCH   6  10
ATOM     10  C   UNL     1      -8.693  -4.508   0.716  0.00  0.00    +0.004 A 
ATOM     11  C   UNL     1     -10.066  -4.264   0.744  0.00  0.00    +0.014 A 
ATOM     12  C   UNL     1     -10.953  -5.317   0.824  0.00  0.00    +0.050 A 
ATOM     13  C   UNL     1     -10.483  -6.622   0.877  0.00  0.00    +0.166 A 
ATOM     14  C   UNL     1      -9.111  -6.872   0.849  0.00  0.00    +0.167 A 
ATOM     15  C   UNL     1      -8.220  -5.818   0.764  0.00  0.00    +0.059 A 
ATOM     16  O   UNL     1      -8.912  -8.221   0.913  0.00  0.00    -0.453 OA
ATOM     17  C   UNL     1     -10.179  -8.812   0.567  0.00  0.00    +0.466 C 
ATOM     18  O   UNL     1     -11.141  -7.815   0.958  0.00  0.00    -0.453 OA
ENDBRANCH   6  10
BRANCH   1  20
ATOM     19  N   UNL     1      -1.200  -0.723   0.009  0.00  0.00    -0.278 N 
ATOM     20  C   UNL     1      -2.374  -0.071   0.125  0.00  0.00    +0.257 C 
ATOM     21  O   UNL     1      -2.396   1.147   0.132  0.00  0.00    -0.269 OA
ATOM     22  H   UNL     1      -1.188  -1.689  -0.077  0.00  0.00    +0.155 HD
BRANCH  19  28
ATOM     23  C   UNL     1       1.135  -0.537  -0.599  0.00  0.00    +0.141 A 
ATOM     24  C   UNL     1       2.322   0.177  -0.593  0.00  0.00    +0.049 A 
ATOM     25  C   UNL     1       2.382   1.415   0.020  0.00  0.00    +0.024 A 
ATOM     26  C   UNL     1       1.258   1.944   0.629  0.00  0.00    +0.043 A 
ATOM     27  C   UNL     1       0.069   1.238   0.627  0.00  0.00    +0.047 A 
ATOM     28  C   UNL     1       0.003  -0.005   0.013  0.00  0.00    +0.077 A 
ATOM     29 CL   UNL     1       1.340   3.499   1.397  0.00  0.00    -0.083 Cl
BRANCH  23  31
ATOM     30  C   UNL     1       2.275  -2.237  -1.810  0.00  0.00    +0.277 C 
ATOM     31  O   UNL     1       1.075  -1.754  -1.203  0.00  0.00    -0.493 OA
ENDBRANCH  23  31
ENDBRANCH  19  28
ENDBRANCH   1  20
BRANCH   2  32
ATOM     32  N   UNL     1      -5.110   1.050   0.395  0.00  0.00    -0.356 N 
ATOM     33  H   UNL     1      -4.372   1.676   0.326  0.00  0.00    +0.142 HD
ATOM     34  H   UNL     1      -6.018   1.378   0.484  0.00  0.00    +0.142 HD
ENDBRANCH   2  32
TORSDOF 5
