REMARK  Name = ZINC05574964
REMARK  7 active torsions:
REMARK  status: ('A' for Active; 'I' for Inactive)
REMARK    1  A    between atoms: C_1  and  C_2
REMARK    2  A    between atoms: C_2  and  C_3
REMARK    3  A    between atoms: C_3  and  C_5
REMARK    4  A    between atoms: C_3  and  N_6
REMARK    5  A    between atoms: C_9  and  O_11
REMARK    6  A    between atoms: C_12  and  C_19
REMARK    7  A    between atoms: C_23  and  N_25
REMARK                            x       y       z     vdW  Elec       q    Type
REMARK                         _______ _______ _______ _____ _____    ______ ____
ROOT
ATOM      1  N   UNL     1       0.866  -1.969   1.174  0.00  0.00    -0.244 N 
ATOM      2  C   UNL     1       2.045  -2.677   1.166  0.00  0.00    +0.132 A 
ATOM      3  C   UNL     1       1.721  -3.986   1.095  0.00  0.00    +0.072 A 
ATOM      4  C   UNL     1       0.310  -4.080   1.059  0.00  0.00    +0.238 A 
ATOM      5  N   UNL     1      -0.191  -2.877   1.112  0.00  0.00    -0.131 NA
ATOM      6  C   UNL     1       2.599  -5.198   1.053  0.00  0.00    +0.115 C 
ATOM      7  S   UNL     1       4.141  -4.928   0.177  0.00  0.00    -0.138 S 
ATOM      8  C   UNL     1       5.085  -3.771   1.179  0.00  0.00    +0.166 C 
ATOM      9  C   UNL     1       4.501  -2.413   1.198  0.00  0.00    +0.228 C 
ATOM     10  O   UNL     1       5.309  -1.510   1.178  0.00  0.00    -0.275 OA
ATOM     11  N   UNL     1       3.258  -2.035   1.231  0.00  0.00    -0.270 N 
ATOM     12  H   UNL     1       3.166  -1.074   1.324  0.00  0.00    +0.156 HD
ENDROOT
BRANCH   6  13
ATOM     13  C   UNL     1       1.849  -6.315   0.374  0.00  0.00    -0.028 A 
ATOM     14  C   UNL     1       1.415  -6.164  -0.930  0.00  0.00    +0.005 A 
ATOM     15  C   UNL     1       0.728  -7.188  -1.553  0.00  0.00    +0.003 A 
ATOM     16  C   UNL     1       0.474  -8.364  -0.872  0.00  0.00    +0.033 A 
ATOM     17  C   UNL     1       0.908  -8.516   0.432  0.00  0.00    +0.126 A 
ATOM     18  C   UNL     1       1.599  -7.493   1.053  0.00  0.00    +0.037 A 
BRANCH  17  19
ATOM     19  N   UNL     1       0.635  -9.775   1.161  0.00  0.00    +0.056 N 
ATOM     20  O   UNL     1       0.033 -10.671   0.616  0.00  0.00    -0.126 OA
ATOM     21  O   UNL     1       1.015  -9.907   2.301  0.00  0.00    -0.126 OA
ENDBRANCH  17  19
ENDBRANCH   6  13
BRANCH   1  22
ATOM     22  C   UNL     1       0.742  -0.511   1.242  0.00  0.00    +0.106 C 
ATOM     23  C   UNL     1      -0.042  -0.124   2.497  0.00  0.00    +0.032 C 
BRANCH  22  25
ATOM     24  C   UNL     1      -0.019   1.526   0.010  0.00  0.00    +0.006 C 
ATOM     25  C   UNL     1       0.002  -0.004   0.002  0.00  0.00    +0.023 C 
ENDBRANCH  22  25
ENDBRANCH   1  22
BRANCH   4  26
ATOM     26  O   UNL     1      -0.406  -5.234   0.987  0.00  0.00    -0.491 OA
ATOM     27  H   UNL     1      -0.632  -5.611   1.849  0.00  0.00    +0.294 HD
ENDBRANCH   4  26
TORSDOF 5
