REMARK  Name = ZINC06834411
REMARK  8 active torsions:
REMARK  status: ('A' for Active; 'I' for Inactive)
REMARK    1  A    between atoms: C_1  and  C_2
REMARK    2  A    between atoms: C_2  and  C_3
REMARK    3  A    between atoms: C_4  and  C_27
REMARK    4  A    between atoms: C_6  and  C_8
REMARK    5  A    between atoms: N_10  and  N_11
REMARK    6  A    between atoms: C_12  and  C_14
REMARK    7  A    between atoms: C_14  and  C_15
REMARK    8  A    between atoms: C_14  and  C_21
REMARK                            x       y       z     vdW  Elec       q    Type
REMARK                         _______ _______ _______ _____ _____    ______ ____
ROOT
ATOM      1  N   UNL     1      -5.324   0.722  -0.479  0.00  0.00    -0.233 N 
ATOM      2  C   UNL     1      -5.907   1.918  -0.262  0.00  0.00    +0.241 C 
ATOM      3  O   UNL     1      -5.247   2.933  -0.315  0.00  0.00    -0.273 OA
ATOM      4  H   UNL     1      -5.853  -0.090  -0.436  0.00  0.00    +0.173 HD
ENDROOT
BRANCH   1   7
ATOM      5  C   UNL     1      -3.372  -0.543  -0.983  0.00  0.00    +0.267 C 
ATOM      6  O   UNL     1      -4.035  -1.562  -0.930  0.00  0.00    -0.268 OA
ATOM      7  N   UNL     1      -3.955   0.652  -0.765  0.00  0.00    -0.230 N 
ATOM      8  H   UNL     1      -3.426   1.465  -0.808  0.00  0.00    +0.173 HD
BRANCH   5  12
ATOM      9  C   UNL     1       0.653  -0.241  -1.790  0.00  0.00    -0.007 A 
ATOM     10  C   UNL     1       0.176  -1.513  -1.796  0.00  0.00    -0.040 A 
ATOM     11  C   UNL     1      -1.154  -1.731  -1.534  0.00  0.00    +0.024 A 
ATOM     12  C   UNL     1      -1.939  -0.616  -1.283  0.00  0.00    +0.076 A 
ATOM     13  S   UNL     1      -0.749   0.707  -1.416  0.00  0.00    -0.088 S 
ATOM     14  C   UNL     1       1.095  -2.672  -2.085  0.00  0.00    +0.044 C 
BRANCH   9  16
ATOM     15  C   UNL     1       2.243   0.508  -3.540  0.00  0.00    +0.009 C 
ATOM     16  C   UNL     1       2.062   0.231  -2.046  0.00  0.00    +0.039 C 
ENDBRANCH   9  16
ENDBRANCH   5  12
ENDBRANCH   1   7
BRANCH   2  17
ATOM     17  C   UNL     1      -7.380   1.993   0.047  0.00  0.00    +0.136 C 
BRANCH  17  18
ATOM     18  C   UNL     1      -7.671   1.212   1.303  0.00  0.00    -0.031 A 
ATOM     19  C   UNL     1      -6.929   1.442   2.446  0.00  0.00    +0.005 A 
ATOM     20  C   UNL     1      -7.199   0.730   3.600  0.00  0.00    +0.000 A 
ATOM     21  C   UNL     1      -8.204  -0.219   3.607  0.00  0.00    +0.000 A 
ATOM     22  C   UNL     1      -8.942  -0.453   2.462  0.00  0.00    +0.000 A 
ATOM     23  C   UNL     1      -8.675   0.263   1.310  0.00  0.00    +0.005 A 
ENDBRANCH  17  18
BRANCH  17  24
ATOM     24  C   UNL     1      -7.779   3.432   0.246  0.00  0.00    -0.031 A 
ATOM     25  C   UNL     1      -7.101   4.218   1.159  0.00  0.00    +0.005 A 
ATOM     26  C   UNL     1      -7.463   5.539   1.338  0.00  0.00    +0.000 A 
ATOM     27  C   UNL     1      -8.512   6.073   0.612  0.00  0.00    +0.000 A 
ATOM     28  C   UNL     1      -9.194   5.286  -0.297  0.00  0.00    +0.000 A 
ATOM     29  C   UNL     1      -8.828   3.966  -0.480  0.00  0.00    +0.005 A 
ENDBRANCH  17  24
ENDBRANCH   2  17
TORSDOF 6
