REMARK  Name = ZINC21334534
REMARK  7 active torsions:
REMARK  status: ('A' for Active; 'I' for Inactive)
REMARK    1  A    between atoms: C_1  and  C_2
REMARK    2  A    between atoms: C_5  and  C_29
REMARK    3  A    between atoms: N_8  and  C_10
REMARK    4  A    between atoms: C_10  and  C_11
REMARK    5  A    between atoms: N_13  and  C_14
REMARK    6  A    between atoms: C_18  and  S_20
REMARK    7  A    between atoms: S_20  and  N_23
REMARK                            x       y       z     vdW  Elec       q    Type
REMARK                         _______ _______ _______ _____ _____    ______ ____
ROOT
ATOM      1  C   UNL     1       3.557  -5.329  -2.778  0.00  0.00    +0.035 A 
ATOM      2  C   UNL     1       2.900  -6.228  -1.947  0.00  0.00    +0.023 A 
ATOM      3  C   UNL     1       2.765  -5.949  -0.601  0.00  0.00    +0.004 A 
ATOM      4  C   UNL     1       3.288  -4.780  -0.080  0.00  0.00    +0.029 A 
ATOM      5  C   UNL     1       3.938  -3.881  -0.905  0.00  0.00    +0.114 A 
ATOM      6  C   UNL     1       4.076  -4.154  -2.252  0.00  0.00    +0.052 A 
ENDROOT
BRANCH   1   9
ATOM      7  C   UNL     1       3.876  -6.878  -4.555  0.00  0.00    +0.201 C 
ATOM      8  O   UNL     1       3.835  -7.788  -3.754  0.00  0.00    -0.278 OA
ATOM      9  N   UNL     1       3.696  -5.608  -4.142  0.00  0.00    -0.287 N 
ATOM     10  H   UNL     1       3.657  -4.791  -4.878  0.00  0.00    +0.155 HD
BRANCH   7  11
ATOM     11  C   UNL     1       4.129  -7.168  -6.012  0.00  0.00    +0.019 C 
BRANCH  11  17
ATOM     12  C   UNL     1       4.336 -11.232  -4.934  0.00  0.00    +0.005 C 
ATOM     13  C   UNL     1       5.561 -10.629  -5.624  0.00  0.00    -0.031 C 
ATOM     14  C   UNL     1       5.574 -11.043  -7.098  0.00  0.00    +0.003 C 
ATOM     15  C   UNL     1       4.327 -10.483  -7.788  0.00  0.00    -0.031 C 
ATOM     16  C   UNL     1       4.303  -8.961  -7.630  0.00  0.00    -0.075 C 
ATOM     17  N   UNL     1       4.292  -8.616  -6.203  0.00  0.00    +0.386 N 
ATOM     18  C   UNL     1       5.502  -9.103  -5.529  0.00  0.00    -0.075 C 
ATOM     19  C   UNL     1       4.362 -10.841  -9.275  0.00  0.00    +0.005 C 
ATOM     20  H   UNL     1       3.427  -9.118  -5.744  0.00  0.00    -0.081 HD
ENDBRANCH  11  17
ENDBRANCH   7  11
ENDBRANCH   1   9
BRANCH   5  21
ATOM     21  S   UNL     1       4.597  -2.390  -0.237  0.00  0.00    +0.100 S 
ATOM     22  O   UNL     1       5.638  -1.978  -1.112  0.00  0.00    -0.146 OA
ATOM     23  O   UNL     1       4.814  -2.626   1.147  0.00  0.00    -0.146 OA
BRANCH  21  24
ATOM     24  N   UNL     1       3.409  -1.240  -0.340  0.00  0.00    -0.118 NA
ATOM     25  C   UNL     1       3.633  -0.040   0.086  0.00  0.00    +0.117 C 
ATOM     26  C   UNL     1       4.926   0.458   0.701  0.00  0.00    +0.074 C 
ATOM     27  C   UNL     1       4.938   1.962   0.339  0.00  0.00    +0.026 C 
ATOM     28  C   UNL     1       3.439   2.285   0.178  0.00  0.00    +0.103 C 
ATOM     29  N   UNL     1       2.742   0.999   0.059  0.00  0.00    -0.331 N 
ATOM     30  H   UNL     1       1.646   0.975  -0.034  0.00  0.00    +0.147 HD
ENDBRANCH  21  24
ENDBRANCH   5  21
TORSDOF 5
