REMARK  Name = ZINC46707018
REMARK  8 active torsions:
REMARK  status: ('A' for Active; 'I' for Inactive)
REMARK    1  A    between atoms: C_4  and  S_26
REMARK    2  A    between atoms: C_5  and  N_7
REMARK    3  A    between atoms: C_8  and  C_10
REMARK    4  A    between atoms: C_10  and  C_11
REMARK    5  A    between atoms: C_11  and  C_12
REMARK    6  A    between atoms: C_12  and  C_13
REMARK    7  A    between atoms: C_13  and  C_14
REMARK    8  A    between atoms: S_26  and  C_27
REMARK                            x       y       z     vdW  Elec       q    Type
REMARK                         _______ _______ _______ _____ _____    ______ ____
ROOT
ATOM      1  N   UNL     1       1.233  -2.082  -0.021  0.00  0.00    -0.285 N 
ATOM      2  C   UNL     1       0.082  -2.774   0.088  0.00  0.00    +0.217 C 
ATOM      3  O   UNL     1      -0.980  -2.187   0.102  0.00  0.00    -0.275 OA
ATOM      4  H   UNL     1       2.076  -2.554  -0.113  0.00  0.00    +0.155 HD
ENDROOT
BRANCH   1   9
ATOM      5  C   UNL     1       0.153   1.373   0.636  0.00  0.00    +0.002 A 
ATOM      6  C   UNL     1       1.172   2.090   0.036  0.00  0.00    +0.001 A 
ATOM      7  C   UNL     1       2.215   1.429  -0.586  0.00  0.00    +0.016 A 
ATOM      8  C   UNL     1       2.241   0.042  -0.608  0.00  0.00    +0.029 A 
ATOM      9  C   UNL     1       1.213  -0.681  -0.002  0.00  0.00    +0.047 A 
ATOM     10  C   UNL     1       0.171  -0.009   0.619  0.00  0.00    +0.024 A 
BRANCH   8  11
ATOM     11  S   UNL     1       3.568  -0.804  -1.400  0.00  0.00    -0.120 S 
BRANCH  11  12
ATOM     12  C   UNL     1       4.629   0.529  -2.023  0.00  0.00    +0.051 C 
ATOM     13  C   UNL     1       3.908   1.294  -3.153  0.00  0.00    +0.014 C 
ATOM     14  C   UNL     1       5.034   1.635  -4.160  0.00  0.00    +0.001 C 
ATOM     15  C   UNL     1       5.922   0.366  -4.122  0.00  0.00    +0.001 C 
ATOM     16  C   UNL     1       5.909  -0.061  -2.640  0.00  0.00    +0.014 C 
ENDBRANCH  11  12
ENDBRANCH   8  11
ENDBRANCH   1   9
BRANCH   2  17
ATOM     17  C   UNL     1       0.113  -4.277   0.194  0.00  0.00    +0.096 C 
BRANCH  17  18
ATOM     18  C   UNL     1      -1.316  -4.811   0.306  0.00  0.00    +0.009 C 
BRANCH  18  19
ATOM     19  C   UNL     1      -1.285  -6.337   0.413  0.00  0.00    +0.002 C 
BRANCH  19  20
ATOM     20  C   UNL     1      -2.714  -6.870   0.526  0.00  0.00    +0.016 C 
BRANCH  20  21
ATOM     21  C   UNL     1      -2.682  -8.396   0.633  0.00  0.00    +0.069 C 
ATOM     22  C   UNL     1      -4.107  -8.970   0.792  0.00  0.00    +0.108 C 
ATOM     23  C   UNL     1      -4.343 -10.257  -0.005  0.00  0.00    +0.105 C 
ATOM     24  C   UNL     1      -3.114 -10.719  -0.816  0.00  0.00    +0.093 C 
ATOM     25  S   UNL     1      -2.156  -9.161  -0.962  0.00  0.00    -0.154 S 
ATOM     26  N   UNL     1      -5.423  -9.904  -0.941  0.00  0.00    -0.294 N 
ATOM     27  C   UNL     1      -5.773  -8.626  -0.741  0.00  0.00    +0.300 C 
ATOM     28  O   UNL     1      -6.646  -8.070  -1.380  0.00  0.00    -0.253 OA
ATOM     29  N   UNL     1      -5.074  -8.022   0.218  0.00  0.00    -0.294 N 
ATOM     30  H   UNL     1      -5.816 -10.501  -1.597  0.00  0.00    +0.151 HD
ATOM     31  H   UNL     1      -5.191  -7.099   0.494  0.00  0.00    +0.151 HD
ENDBRANCH  20  21
ENDBRANCH  19  20
ENDBRANCH  18  19
ENDBRANCH  17  18
ENDBRANCH   2  17
TORSDOF 8
