REMARK  Name = ZINC02542765
REMARK  7 active torsions:
REMARK  status: ('A' for Active; 'I' for Inactive)
REMARK    1  A    between atoms: C_4  and  C_7
REMARK    2  A    between atoms: C_13  and  C_15
REMARK    3  A    between atoms: N_17  and  N_18
REMARK    4  A    between atoms: C_19  and  C_20
REMARK    5  A    between atoms: C_25  and  O_26
REMARK    6  A    between atoms: O_26  and  C_27
REMARK    7  A    between atoms: C_27  and  C_29
REMARK                            x       y       z     vdW  Elec       q    Type
REMARK                         _______ _______ _______ _____ _____    ______ ____
ROOT
ATOM      1  C   UNL     1      -4.387   2.337   0.263  0.00  0.00    +0.318 C 
ATOM      2  O   UNL     1      -4.599   1.148   0.390  0.00  0.00    -0.263 OA
ATOM      3  N   UNL     1      -3.121   2.787   0.157  0.00  0.00    -0.199 N 
ATOM      4  H   UNL     1      -2.946   3.741   0.133  0.00  0.00    +0.178 HD
ENDROOT
BRANCH   1  11
ATOM      5  C   UNL     1     -10.107   5.157   0.260  0.00  0.00    +0.134 A 
ATOM      6  N   UNL     1      -8.916   5.733   0.146  0.00  0.00    -0.140 NA
ATOM      7  N   UNL     1      -7.847   5.063   0.167  0.00  0.00    -0.125 NA
ATOM      8  C   UNL     1      -7.851   3.741   0.291  0.00  0.00    +0.188 A 
ATOM      9  S   UNL     1      -9.612   3.442   0.406  0.00  0.00    -0.030 S 
ATOM     10  N   UNL     1      -6.791   2.847   0.328  0.00  0.00    -0.255 N 
ATOM     11  C   UNL     1      -5.525   3.297   0.223  0.00  0.00    +0.306 C 
ATOM     12  O   UNL     1      -5.312   4.486   0.095  0.00  0.00    -0.265 OA
ATOM     13  H   UNL     1      -6.961   1.897   0.430  0.00  0.00    +0.157 HD
BRANCH   5  17
ATOM     14  C   UNL     1     -13.985   6.889   0.276  0.00  0.00    +0.000 A 
ATOM     15  C   UNL     1     -12.870   7.697   0.143  0.00  0.00    +0.001 A 
ATOM     16  C   UNL     1     -11.608   7.141   0.137  0.00  0.00    +0.010 A 
ATOM     17  C   UNL     1     -11.457   5.760   0.266  0.00  0.00    +0.009 A 
ATOM     18  C   UNL     1     -12.586   4.949   0.395  0.00  0.00    +0.010 A 
ATOM     19  C   UNL     1     -13.842   5.519   0.404  0.00  0.00    +0.001 A 
ENDBRANCH   5  17
ENDBRANCH   1  11
BRANCH   3  20
ATOM     20  N   UNL     1      -2.058   1.878   0.083  0.00  0.00    -0.187 NA
ATOM     21  C   UNL     1      -0.833   2.311   0.062  0.00  0.00    +0.142 C 
BRANCH  21  22
ATOM     22  C   UNL     1       0.279   1.366  -0.137  0.00  0.00    +0.037 A 
ATOM     23  C   UNL     1       1.595   1.832  -0.198  0.00  0.00    +0.013 A 
ATOM     24  C   UNL     1       2.631   0.942  -0.390  0.00  0.00    +0.001 A 
ATOM     25  C   UNL     1       2.373  -0.412  -0.523  0.00  0.00    +0.004 A 
ATOM     26  C   UNL     1       1.076  -0.886  -0.464  0.00  0.00    +0.047 A 
ATOM     27  C   UNL     1       0.023  -0.006  -0.272  0.00  0.00    +0.141 A 
BRANCH  27  28
ATOM     28  O   UNL     1      -1.252  -0.471  -0.214  0.00  0.00    -0.422 OA
BRANCH  28  29
ATOM     29  C   UNL     1      -1.952  -0.482  -1.365  0.00  0.00    +0.344 C 
ATOM     30  O   UNL     1      -1.471  -0.004  -2.373  0.00  0.00    -0.245 OA
BRANCH  29  31
ATOM     31  C   UNL     1      -3.304  -1.073  -1.401  0.00  0.00    +0.059 A 
ATOM     32  C   UNL     1      -3.821  -1.710  -0.270  0.00  0.00    +0.016 A 
ATOM     33  C   UNL     1      -5.087  -2.256  -0.308  0.00  0.00    +0.021 A 
ATOM     34  C   UNL     1      -5.841  -2.184  -1.468  0.00  0.00    +0.041 A 
ATOM     35  C   UNL     1      -5.331  -1.559  -2.595  0.00  0.00    +0.021 A 
ATOM     36  C   UNL     1      -4.069  -1.004  -2.567  0.00  0.00    +0.016 A 
ATOM     37 CL   UNL     1      -7.431  -2.879  -1.510  0.00  0.00    -0.084 Cl
ENDBRANCH  29  31
ENDBRANCH  28  29
ENDBRANCH  27  28
ENDBRANCH  21  22
ENDBRANCH   3  20
TORSDOF 7
