REMARK  Name = ZINC40650180
REMARK  5 active torsions:
REMARK  status: ('A' for Active; 'I' for Inactive)
REMARK    1  A    between atoms: C_4  and  S_7
REMARK    2  A    between atoms: S_7  and  C_8
REMARK    3  A    between atoms: C_9  and  N_22
REMARK    4  A    between atoms: C_10  and  O_14
REMARK    5  A    between atoms: O_14  and  C_15
REMARK                            x       y       z     vdW  Elec       q    Type
REMARK                         _______ _______ _______ _____ _____    ______ ____
ROOT
ATOM      1  C   UNL     1       3.459  -2.516   0.338  0.00  0.00    +0.139 A 
ATOM      2  C   UNL     1       4.441  -3.504   0.341  0.00  0.00    +0.220 A 
ATOM      3  C   UNL     1       4.042  -4.828   0.464  0.00  0.00    +0.255 A 
ATOM      4  N   UNL     1       2.745  -5.105   0.575  0.00  0.00    -0.199 NA
ATOM      5  C   UNL     1       1.845  -4.143   0.568  0.00  0.00    +0.226 A 
ATOM      6  N   UNL     1       2.182  -2.874   0.459  0.00  0.00    -0.226 NA
ENDROOT
BRANCH   2   7
ATOM      7  N   UNL     1       5.873  -3.151   0.215  0.00  0.00    +0.064 N 
ATOM      8  O   UNL     1       6.531  -2.932   1.205  0.00  0.00    -0.126 OA
ATOM      9  O   UNL     1       6.385  -3.083  -0.878  0.00  0.00    -0.126 OA
ENDBRANCH   2   7
BRANCH   1  10
ATOM     10  S   UNL     1       3.900  -0.817   0.185  0.00  0.00    -0.067 S 
BRANCH  10  14
ATOM     11  C   UNL     1      -0.033   1.383   0.638  0.00  0.00    +0.000 A 
ATOM     12  C   UNL     1       0.689   1.020   1.761  0.00  0.00    +0.001 A 
ATOM     13  C   UNL     1       1.888   0.350   1.627  0.00  0.00    +0.015 A 
ATOM     14  C   UNL     1       2.370   0.039   0.361  0.00  0.00    +0.014 A 
ATOM     15  C   UNL     1       1.643   0.404  -0.765  0.00  0.00    +0.015 A 
ATOM     16  C   UNL     1       0.444   1.075  -0.623  0.00  0.00    +0.001 A 
ENDBRANCH  10  14
ENDBRANCH   1  10
BRANCH   3  17
ATOM     17  O   UNL     1       4.960  -5.825   0.471  0.00  0.00    -0.436 OA
BRANCH  17  18
ATOM     18  C   UNL     1       4.510  -7.108   0.472  0.00  0.00    +0.131 A 
ATOM     19  C   UNL     1       3.918  -7.636  -0.666  0.00  0.00    +0.047 A 
ATOM     20  C   UNL     1       3.461  -8.940  -0.664  0.00  0.00    +0.019 A 
ATOM     21  C   UNL     1       3.593  -9.718   0.472  0.00  0.00    +0.018 A 
ATOM     22  C   UNL     1       4.183  -9.193   1.608  0.00  0.00    +0.019 A 
ATOM     23  C   UNL     1       4.646  -7.892   1.608  0.00  0.00    +0.047 A 
ATOM     24 BR   UNL     1       2.966 -11.502   0.472  0.00  0.00    -0.050 Br
ENDBRANCH  17  18
ENDBRANCH   3  17
TORSDOF 5
