REMARK  Name = ZINC26915461
REMARK  4 active torsions:
REMARK  status: ('A' for Active; 'I' for Inactive)
REMARK    1  A    between atoms: C_1  and  C_2
REMARK    2  A    between atoms: C_5  and  C_7
REMARK    3  A    between atoms: C_8  and  C_9
REMARK    4  A    between atoms: N_11  and  C_12
REMARK                            x       y       z     vdW  Elec       q    Type
REMARK                         _______ _______ _______ _____ _____    ______ ____
ROOT
ATOM      1  C   UNL     1      -1.297   5.898  -0.056  0.00  0.00    +0.241 C 
ATOM      2  O   UNL     1      -2.334   5.259  -0.050  0.00  0.00    -0.270 OA
ATOM      3  N   UNL     1      -0.113   5.261   0.031  0.00  0.00    -0.280 N 
ATOM      4  H   UNL     1       0.818   5.841   0.117  0.00  0.00    +0.155 HD
ENDROOT
BRANCH   3   5
ATOM      5  C   UNL     1      -0.067   3.864   0.012  0.00  0.00    +0.059 A 
ATOM      6  C   UNL     1      -1.083   3.143  -0.588  0.00  0.00    +0.025 A 
ATOM      7  C   UNL     1      -1.042   1.755  -0.615  0.00  0.00    +0.003 A 
ATOM      8  C   UNL     1      -0.006   1.077  -0.043  0.00  0.00    +0.011 A 
ATOM      9  C   UNL     1       1.038   1.781   0.572  0.00  0.00    +0.021 A 
ATOM     10  C   UNL     1       1.006   3.187   0.599  0.00  0.00    +0.087 A 
ATOM     11  N   UNL     1       2.141   3.593   1.255  0.00  0.00    -0.275 N 
ATOM     12  H   UNL     1       2.338   4.666   1.401  0.00  0.00    +0.189 HD
ATOM     13  N   UNL     1       2.861   2.451   1.627  0.00  0.00    -0.181 NA
ATOM     14  C   UNL     1       2.226   1.385   1.233  0.00  0.00    +0.142 A 
ENDBRANCH   3   5
BRANCH   1  16
ATOM     15  C   UNL     1      -2.529   7.950  -0.243  0.00  0.00    +0.020 C 
ATOM     16  C   UNL     1      -1.336   7.309  -0.155  0.00  0.00    +0.068 C 
BRANCH  15  21
ATOM     17  C   UNL     1      -1.629  13.406  -0.587  0.00  0.00    +0.051 C 
ATOM     18  C   UNL     1      -2.134  11.989  -0.507  0.00  0.00    -0.013 A 
ATOM     19  C   UNL     1      -3.420  11.550  -0.523  0.00  0.00    +0.011 A 
ATOM     20  C   UNL     1      -3.670  10.202  -0.445  0.00  0.00    +0.016 A 
ATOM     21  C   UNL     1      -2.568   9.361  -0.341  0.00  0.00    +0.013 A 
ATOM     22  S   UNL     1      -1.216  10.525  -0.373  0.00  0.00    -0.094 S 
ENDBRANCH  15  21
ENDBRANCH   1  16
TORSDOF 3
