REMARK  Name = ZINC30692147
REMARK  3 active torsions:
REMARK  status: ('A' for Active; 'I' for Inactive)
REMARK    1  A    between atoms: C_6  and  N_7
REMARK    2  A    between atoms: C_8  and  C_24
REMARK    3  A    between atoms: C_11  and  C_13
REMARK                            x       y       z     vdW  Elec       q    Type
REMARK                         _______ _______ _______ _____ _____    ______ ____
ROOT
ATOM      1  N   UNL     1       2.404   1.108   0.377  0.00  0.00    -0.212 N 
ATOM      2  C   UNL     1       1.280   1.980   0.001  0.00  0.00    +0.189 C 
ATOM      3  C   UNL     1       1.631   2.435  -1.430  0.00  0.00    +0.096 C 
ATOM      4  C   UNL     1       2.951   1.749  -1.715  0.00  0.00    +0.123 C 
ATOM      5  N   UNL     1       3.304   1.048  -0.685  0.00  0.00    -0.178 NA
ENDROOT
BRANCH   4   6
ATOM      6  C   UNL     1       3.709   1.862  -2.960  0.00  0.00    +0.265 C 
ATOM      7  O   UNL     1       3.286   2.550  -3.870  0.00  0.00    -0.268 OA
ATOM      8  N   UNL     1       4.877   1.204  -3.100  0.00  0.00    -0.260 N 
ATOM      9  C   UNL     1       5.597   1.311  -4.282  0.00  0.00    +0.165 A 
ATOM     10  N   UNL     1       6.742   0.754  -4.606  0.00  0.00    -0.229 NA
ATOM     11  C   UNL     1       7.322   0.951  -5.799  0.00  0.00    +0.054 A 
ATOM     12  C   UNL     1       6.657   1.764  -6.653  0.00  0.00    +0.014 A 
ATOM     13  S   UNL     1       5.213   2.211  -5.717  0.00  0.00    -0.057 S 
ATOM     14  C   UNL     1       7.378   1.930  -7.956  0.00  0.00    +0.045 C 
ATOM     15  C   UNL     1       8.818   1.449  -7.669  0.00  0.00    +0.011 C 
ATOM     16  C   UNL     1       8.598   0.476  -6.494  0.00  0.00    +0.056 C 
ATOM     17  H   UNL     1       5.260   0.582  -2.277  0.00  0.00    +0.157 HD
ENDBRANCH   4   6
BRANCH   1  23
ATOM     18  C   UNL     1       1.578   0.594   2.585  0.00  0.00    +0.028 A 
ATOM     19  C   UNL     1       1.717  -0.064   3.791  0.00  0.00    +0.040 A 
ATOM     20  C   UNL     1       2.827  -0.859   4.023  0.00  0.00    +0.124 A 
ATOM     21  C   UNL     1       3.797  -1.002   3.044  0.00  0.00    +0.040 A 
ATOM     22  C   UNL     1       3.658  -0.351   1.834  0.00  0.00    +0.028 A 
ATOM     23  C   UNL     1       2.546   0.448   1.599  0.00  0.00    +0.053 A 
ATOM     24  F   UNL     1       2.964  -1.497   5.206  0.00  0.00    -0.205 F 
ENDBRANCH   1  23
BRANCH   2  25
ATOM     25  C   UNL     1      -0.014   1.209   0.009  0.00  0.00    +0.233 C 
ATOM     26  O   UNL     1       0.002  -0.004   0.002  0.00  0.00    -0.274 OA
ATOM     27  N   UNL     1      -1.191   1.867   0.018  0.00  0.00    -0.328 N 
ATOM     28  H   UNL     1      -2.136   1.304   0.024  0.00  0.00    +0.145 HD
ATOM     29  H   UNL     1      -1.206   2.966   0.019  0.00  0.00    +0.145 HD
ENDBRANCH   2  25
TORSDOF 3
