REMARK  Name = ZINC35780760
REMARK  13 active torsions:
REMARK  status: ('A' for Active; 'I' for Inactive)
REMARK    1  A    between atoms: C_1  and  C_2
REMARK    2  A    between atoms: C_7  and  O_8
REMARK    3  A    between atoms: O_8  and  C_9
REMARK    4  A    between atoms: C_9  and  C_10
REMARK    5  A    between atoms: C_10  and  C_12
REMARK    6  A    between atoms: C_10  and  O_38
REMARK    7  A    between atoms: C_12  and  N_13
REMARK    8  A    between atoms: N_13  and  C_14
REMARK    9  A    between atoms: N_13  and  C_20
REMARK   10  A    between atoms: C_14  and  C_15
REMARK   11  A    between atoms: C_20  and  C_21
REMARK   12  A    between atoms: C_22  and  C_32
REMARK   13  A    between atoms: C_25  and  N_26
REMARK                            x       y       z     vdW  Elec       q    Type
REMARK                         _______ _______ _______ _____ _____    ______ ____
ROOT
ATOM      1  N   UNL     1       0.534   0.230   6.459  0.00  0.00    +0.389 N 
ATOM      2  H   UNL     1       1.387   0.723   6.244  0.00  0.00    -0.081 HD
ENDROOT
BRANCH   1   3
ATOM      3  C   UNL     1       0.309  -0.820   5.456  0.00  0.00    -0.043 C 
BRANCH   3   4
ATOM      4  C   UNL     1       0.390  -0.212   4.055  0.00  0.00    +0.135 C 
BRANCH   4   5
ATOM      5  O   UNL     1      -0.727   0.655   3.847  0.00  0.00    -0.390 OA
ATOM      6  H   UNL     1      -1.585   0.214   3.918  0.00  0.00    +0.210 HD
ENDBRANCH   4   5
BRANCH   4   7
ATOM      7  C   UNL     1       0.369  -1.331   3.011  0.00  0.00    +0.258 C 
BRANCH   7   8
ATOM      8  O   UNL     1       0.561  -0.772   1.710  0.00  0.00    -0.489 OA
BRANCH   8  15
ATOM      9  C   UNL     1       0.939   0.312  -0.871  0.00  0.00    +0.047 C 
ATOM     10  C   UNL     1       0.750  -1.164  -0.629  0.00  0.00    -0.009 A 
ATOM     11  C   UNL     1       0.764  -2.046  -1.692  0.00  0.00    +0.007 A 
ATOM     12  C   UNL     1       0.591  -3.400  -1.470  0.00  0.00    +0.000 A 
ATOM     13  C   UNL     1       0.404  -3.874  -0.184  0.00  0.00    +0.004 A 
ATOM     14  C   UNL     1       0.390  -2.996   0.882  0.00  0.00    +0.046 A 
ATOM     15  C   UNL     1       0.569  -1.638   0.662  0.00  0.00    +0.124 A 
ENDBRANCH   8  15
ENDBRANCH   7   8
ENDBRANCH   4   7
ENDBRANCH   3   4
ENDBRANCH   1   3
BRANCH   1  16
ATOM     16  C   UNL     1      -0.594   1.171   6.444  0.00  0.00    -0.003 C 
BRANCH  16  17
ATOM     17  C   UNL     1      -0.340   2.275   7.438  0.00  0.00    +0.089 A 
ATOM     18  C   UNL     1       0.234   3.461   7.167  0.00  0.00    +0.042 A 
ATOM     19  C   UNL     1       0.273   4.184   8.381  0.00  0.00    +0.041 A 
ATOM     20  C   UNL     1      -0.279   3.397   9.321  0.00  0.00    +0.195 A 
ATOM     21  O   UNL     1      -0.654   2.244   8.743  0.00  0.00    -0.470 OA
ENDBRANCH  16  17
ENDBRANCH   1  16
BRANCH   1  22
ATOM     22  C   UNL     1       0.644  -0.381   7.791  0.00  0.00    -0.035 C 
BRANCH  22  23
ATOM     23  C   UNL     1       1.882  -1.238   7.850  0.00  0.00    +0.025 A 
ATOM     24  C   UNL     1       1.935  -2.633   7.649  0.00  0.00    +0.117 A 
ATOM     25  N   UNL     1       3.185  -3.013   7.780  0.00  0.00    -0.076 NA
ATOM     26  O   UNL     1       3.963  -1.867   8.070  0.00  0.00    -0.339 OA
ATOM     27  C   UNL     1       3.143  -0.803   8.100  0.00  0.00    +0.222 A 
BRANCH  27  28
ATOM     28  N   UNL     1       3.517   0.506   8.346  0.00  0.00    -0.299 N 
ATOM     29  C   UNL     1       3.634   1.005   9.723  0.00  0.00    +0.108 C 
ATOM     30  C   UNL     1       5.025   1.620   9.907  0.00  0.00    +0.019 C 
ATOM     31  C   UNL     1       5.254   2.684   8.832  0.00  0.00    +0.003 C 
ATOM     32  C   UNL     1       5.194   2.034   7.447  0.00  0.00    +0.019 C 
ATOM     33  C   UNL     1       3.811   1.421   7.235  0.00  0.00    +0.108 C 
ENDBRANCH  27  28
BRANCH  24  34
ATOM     34  C   UNL     1       0.781  -3.516   7.343  0.00  0.00    +0.004 A 
ATOM     35  C   UNL     1      -0.421  -3.357   8.027  0.00  0.00    +0.010 A 
ATOM     36  C   UNL     1      -1.491  -4.180   7.738  0.00  0.00    +0.001 A 
ATOM     37  C   UNL     1      -1.370  -5.161   6.770  0.00  0.00    +0.000 A 
ATOM     38  C   UNL     1      -0.178  -5.323   6.088  0.00  0.00    +0.001 A 
ATOM     39  C   UNL     1       0.896  -4.502   6.365  0.00  0.00    +0.010 A 
ENDBRANCH  24  34
ENDBRANCH  22  23
ENDBRANCH   1  22
TORSDOF 12
