REMARK  Name = ZINC13640421
REMARK  7 active torsions:
REMARK  status: ('A' for Active; 'I' for Inactive)
REMARK    1  A    between atoms: C_1  and  C_2
REMARK    2  A    between atoms: C_2  and  N_3
REMARK    3  A    between atoms: N_3  and  C_4
REMARK    4  A    between atoms: C_10  and  C_12
REMARK    5  A    between atoms: C_19  and  C_28
REMARK    6  A    between atoms: C_31  and  O_35
REMARK    7  A    between atoms: C_33  and  O_34
REMARK                            x       y       z     vdW  Elec       q    Type
REMARK                         _______ _______ _______ _____ _____    ______ ____
ROOT
ATOM      1  C   UNL     1       0.070  -5.246   2.830  0.00  0.00    +0.058 A 
ATOM      2  C   UNL     1       1.313  -5.140   2.205  0.00  0.00    +0.015 A 
ATOM      3  C   UNL     1       1.391  -5.187   0.831  0.00  0.00    +0.001 A 
ATOM      4  C   UNL     1       0.244  -5.339   0.073  0.00  0.00    +0.006 A 
ATOM      5  C   UNL     1      -1.001  -5.449   0.676  0.00  0.00    -0.019 A 
ATOM      6  C   UNL     1      -1.096  -5.401   2.056  0.00  0.00    +0.044 A 
ATOM      7  N   UNL     1      -2.309  -5.499   2.719  0.00  0.00    -0.336 N 
ATOM      8  C   UNL     1      -3.308  -6.235   1.942  0.00  0.00    +0.108 C 
ATOM      9  C   UNL     1      -3.514  -5.543   0.594  0.00  0.00    +0.029 C 
ATOM     10  C   UNL     1      -2.200  -5.616  -0.212  0.00  0.00    +0.049 C 
ATOM     11  C   UNL     1      -2.218  -6.998  -0.824  0.00  0.00    -0.023 C 
ATOM     12  C   UNL     1      -3.440  -7.468  -0.859  0.00  0.00    -0.030 C 
ATOM     13  C   UNL     1      -4.414  -6.461  -0.281  0.00  0.00    +0.033 C 
ATOM     14  H   UNL     1      -2.654  -4.587   2.979  0.00  0.00    +0.147 HD
ENDROOT
BRANCH   8  15
ATOM     15  C   UNL     1      -4.611  -6.264   2.698  0.00  0.00    +0.015 A 
ATOM     16  C   UNL     1      -5.656  -5.450   2.303  0.00  0.00    +0.012 A 
ATOM     17  C   UNL     1      -6.853  -5.474   2.993  0.00  0.00    +0.046 A 
ATOM     18  C   UNL     1      -7.008  -6.317   4.085  0.00  0.00    +0.120 A 
ATOM     19  C   UNL     1      -5.962  -7.134   4.483  0.00  0.00    +0.091 A 
ATOM     20  C   UNL     1      -4.763  -7.112   3.786  0.00  0.00    +0.125 A 
BRANCH  20  21
ATOM     21  O   UNL     1      -3.738  -7.916   4.170  0.00  0.00    -0.506 OA
ATOM     22  H   UNL     1      -3.144  -7.513   4.818  0.00  0.00    +0.292 HD
ENDBRANCH  20  21
BRANCH  18  23
ATOM     23  O   UNL     1      -8.185  -6.340   4.764  0.00  0.00    -0.507 OA
ATOM     24  H   UNL     1      -8.821  -6.985   4.426  0.00  0.00    +0.292 HD
ENDBRANCH  18  23
ENDBRANCH   8  15
BRANCH   1  26
ATOM     25  N   UNL     1       0.746  -6.010   5.052  0.00  0.00    -0.268 N 
ATOM     26  C   UNL     1      -0.022  -5.197   4.301  0.00  0.00    +0.253 C 
ATOM     27  O   UNL     1      -0.792  -4.423   4.836  0.00  0.00    -0.270 OA
BRANCH  25  28
ATOM     28  C   UNL     1       0.554  -6.072   6.436  0.00  0.00    +0.037 A 
ATOM     29  C   UNL     1       1.437  -6.793   7.229  0.00  0.00    +0.023 A 
ATOM     30  C   UNL     1       1.248  -6.848   8.596  0.00  0.00    +0.002 A 
ATOM     31  C   UNL     1       0.175  -6.195   9.174  0.00  0.00    +0.000 A 
ATOM     32  C   UNL     1      -0.710  -5.481   8.386  0.00  0.00    +0.002 A 
ATOM     33  C   UNL     1      -0.523  -5.418   7.019  0.00  0.00    +0.023 A 
ENDBRANCH  25  28
BRANCH  25  35
ATOM     34  C   UNL     1       3.156  -6.207   4.681  0.00  0.00    +0.025 C 
ATOM     35  C   UNL     1       1.783  -6.829   4.419  0.00  0.00    +0.110 C 
ENDBRANCH  25  35
ENDBRANCH   1  26
TORSDOF 6
