REMARK  Name = ZINC21461869
REMARK  17 active torsions:
REMARK  status: ('A' for Active; 'I' for Inactive)
REMARK    1  A    between atoms: C_1  and  C_2
REMARK    2  A    between atoms: C_2  and  C_3
REMARK    3  A    between atoms: C_2  and  C_4
REMARK    4  A    between atoms: C_4  and  C_5
REMARK    5  A    between atoms: C_4  and  C_6
REMARK    6  A    between atoms: C_4  and  N_8
REMARK    7  A    between atoms: C_9  and  C_11
REMARK    8  A    between atoms: C_11  and  S_12
REMARK    9  A    between atoms: S_12  and  C_13
REMARK   10  A    between atoms: C_16  and  C_19
REMARK   11  A    between atoms: N_17  and  N_18
REMARK   12  A    between atoms: C_19  and  O_20
REMARK   13  A    between atoms: O_20  and  C_21
REMARK   14  A    between atoms: C_24  and  C_27
REMARK   15  A    between atoms: C_27  and  C_28
REMARK   16  A    between atoms: C_27  and  C_29
REMARK   17  A    between atoms: C_27  and  C_30
REMARK                            x       y       z     vdW  Elec       q    Type
REMARK                         _______ _______ _______ _____ _____    ______ ____
ROOT
ATOM      1  C   UNL     1       1.243  -0.433  -0.012  0.00  0.00    +0.209 A 
ATOM      2  N   UNL     1       0.002  -0.004   0.002  0.00  0.00    -0.121 NA
ATOM      3  N   UNL     1      -0.015   1.281   0.009  0.00  0.00    -0.128 NA
ATOM      4  C   UNL     1       1.202   1.745   0.000  0.00  0.00    +0.189 A 
ATOM      5  N   UNL     1       2.047   0.670  -0.014  0.00  0.00    -0.225 N 
ENDROOT
BRANCH   5   6
ATOM      6  N   UNL     1       3.413   0.695  -0.028  0.00  0.00    -0.295 N 
ATOM      7  H   UNL     1       3.946   1.657  -0.027  0.00  0.00    +0.163 HD
ATOM      8  H   UNL     1       3.980  -0.248  -0.039  0.00  0.00    +0.163 HD
ENDBRANCH   5   6
BRANCH   1   9
ATOM      9  S   UNL     1       1.770  -2.114  -0.027  0.00  0.00    -0.075 S 
BRANCH   9  10
ATOM     10  C   UNL     1       0.163  -2.948  -0.016  0.00  0.00    +0.173 C 
BRANCH  10  12
ATOM     11  N   UNL     1      -0.692  -5.269  -0.020  0.00  0.00    -0.297 N 
ATOM     12  C   UNL     1       0.371  -4.440  -0.026  0.00  0.00    +0.224 C 
ATOM     13  O   UNL     1       1.495  -4.896  -0.040  0.00  0.00    -0.275 OA
ATOM     14  H   UNL     1      -1.712  -4.856  -0.008  0.00  0.00    +0.150 HD
BRANCH  11  15
ATOM     15  C   UNL     1      -0.490  -6.720  -0.030  0.00  0.00    +0.121 C 
ATOM     16  C   UNL     1       0.282  -7.118  -1.289  0.00  0.00    +0.048 C 
BRANCH  15  18
ATOM     17  C   UNL     1      -1.641  -8.934  -0.157  0.00  0.00    +0.010 C 
ATOM     18  C   UNL     1      -1.848  -7.424  -0.021  0.00  0.00    +0.020 C 
ATOM     19  C   UNL     1      -2.569  -7.125   1.295  0.00  0.00    +0.010 C 
ENDBRANCH  15  18
BRANCH  15  20
ATOM     20  C   UNL     1       0.277  -7.117   1.162  0.00  0.00    +0.088 C 
ATOM     21  N   UNL     1       0.869  -7.423   2.082  0.00  0.00    -0.194 NA
ENDBRANCH  15  20
ENDBRANCH  11  15
ENDBRANCH  10  12
ENDBRANCH   9  10
ENDBRANCH   1   9
BRANCH   4  22
ATOM     22  C   UNL     1       1.605   3.197   0.004  0.00  0.00    +0.306 C 
BRANCH  22  23
ATOM     23  O   UNL     1       1.745   3.649   1.352  0.00  0.00    -0.484 OA
BRANCH  23  24
ATOM     24  C   UNL     1       2.106   4.947   1.533  0.00  0.00    +0.121 A 
ATOM     25  C   UNL     1       2.327   5.766   0.436  0.00  0.00    +0.046 A 
ATOM     26  C   UNL     1       2.688   7.087   0.623  0.00  0.00    +0.008 A 
ATOM     27  C   UNL     1       2.842   7.588   1.902  0.00  0.00    -0.042 A 
ATOM     28  C   UNL     1       2.628   6.772   2.997  0.00  0.00    +0.008 A 
ATOM     29  C   UNL     1       2.261   5.452   2.816  0.00  0.00    +0.046 A 
BRANCH  27  30
ATOM     30  C   UNL     1       3.243   9.027   2.103  0.00  0.00    -0.013 C 
ATOM     31  C   UNL     1       4.564   9.086   2.872  0.00  0.00    +0.015 C 
ATOM     32  C   UNL     1       3.415   9.703   0.741  0.00  0.00    +0.015 C 
ATOM     33  C   UNL     1       2.156   9.752   2.899  0.00  0.00    +0.015 C 
ENDBRANCH  27  30
ENDBRANCH  23  24
ENDBRANCH  22  23
ENDBRANCH   4  22
TORSDOF 11
