REMARK  Name = ZINC03142126
REMARK  8 active torsions:
REMARK  status: ('A' for Active; 'I' for Inactive)
REMARK    1  A    between atoms: C_1  and  C_2
REMARK    2  A    between atoms: C_2  and  N_3
REMARK    3  A    between atoms: N_3  and  N_4
REMARK    4  A    between atoms: C_5  and  C_7
REMARK    5  A    between atoms: C_7  and  C_8
REMARK    6  A    between atoms: C_7  and  C_14
REMARK    7  A    between atoms: C_20  and  C_21
REMARK    8  A    between atoms: N_23  and  C_24
REMARK                            x       y       z     vdW  Elec       q    Type
REMARK                         _______ _______ _______ _____ _____    ______ ____
ROOT
ATOM      1  N   UNL     1       0.747   0.840   3.607  0.00  0.00    -0.269 N 
ATOM      2  H   UNL     1       1.524   0.240   4.102  0.00  0.00    +0.170 HD
ENDROOT
BRANCH   1   3
ATOM      3  N   UNL     1      -0.249   1.464   4.369  0.00  0.00    -0.236 N 
ATOM      4  C   UNL     1      -0.255   1.329   5.710  0.00  0.00    +0.241 C 
ATOM      5  O   UNL     1       0.602   0.667   6.257  0.00  0.00    -0.273 OA
ATOM      6  H   UNL     1      -1.026   2.064   3.874  0.00  0.00    +0.173 HD
BRANCH   4   7
ATOM      7  C   UNL     1      -1.326   2.000   6.531  0.00  0.00    +0.136 C 
BRANCH   7   8
ATOM      8  C   UNL     1      -1.107   1.694   7.990  0.00  0.00    -0.031 A 
ATOM      9  C   UNL     1       0.126   1.927   8.568  0.00  0.00    +0.005 A 
ATOM     10  C   UNL     1       0.326   1.651   9.907  0.00  0.00    +0.000 A 
ATOM     11  C   UNL     1      -0.706   1.132  10.667  0.00  0.00    +0.000 A 
ATOM     12  C   UNL     1      -1.938   0.892  10.088  0.00  0.00    +0.000 A 
ATOM     13  C   UNL     1      -2.139   1.174   8.749  0.00  0.00    +0.005 A 
ENDBRANCH   7   8
BRANCH   7  14
ATOM     14  C   UNL     1      -1.264   3.490   6.315  0.00  0.00    -0.031 A 
ATOM     15  C   UNL     1      -0.073   4.166   6.500  0.00  0.00    +0.005 A 
ATOM     16  C   UNL     1      -0.015   5.532   6.298  0.00  0.00    +0.000 A 
ATOM     17  C   UNL     1      -1.151   6.224   5.920  0.00  0.00    +0.000 A 
ATOM     18  C   UNL     1      -2.343   5.549   5.741  0.00  0.00    +0.000 A 
ATOM     19  C   UNL     1      -2.400   4.182   5.938  0.00  0.00    +0.005 A 
ENDBRANCH   7  14
ENDBRANCH   4   7
ENDBRANCH   1   3
BRANCH   1  21
ATOM     20  C   UNL     1      -0.312   1.791   1.654  0.00  0.00    +0.062 C 
ATOM     21  C   UNL     1       0.752   0.968   2.333  0.00  0.00    +0.024 C 
ATOM     22  C   UNL     1       1.824   0.297   1.513  0.00  0.00    +0.087 C 
BRANCH  22  23
ATOM     23  C   UNL     1       1.605   0.603   0.054  0.00  0.00    +0.243 C 
ATOM     24  O   UNL     1       0.671   1.298  -0.287  0.00  0.00    -0.270 OA
ATOM     25  N   UNL     1       2.447   0.105  -0.873  0.00  0.00    -0.281 N 
ATOM     26  H   UNL     1       3.343  -0.450  -0.560  0.00  0.00    +0.155 HD
BRANCH  25  27
ATOM     27  C   UNL     1       2.181   0.295  -2.235  0.00  0.00    +0.052 A 
ATOM     28  C   UNL     1       0.879   0.514  -2.665  0.00  0.00    +0.026 A 
ATOM     29  C   UNL     1       0.620   0.701  -4.009  0.00  0.00    +0.022 A 
ATOM     30  C   UNL     1       1.655   0.670  -4.926  0.00  0.00    +0.042 A 
ATOM     31  C   UNL     1       2.954   0.452  -4.501  0.00  0.00    +0.041 A 
ATOM     32  C   UNL     1       3.220   0.269  -3.157  0.00  0.00    +0.064 A 
ATOM     33 CL   UNL     1       4.850   0.001  -2.623  0.00  0.00    -0.082 Cl
ATOM     34 CL   UNL     1       1.325   0.906  -6.614  0.00  0.00    -0.083 Cl
ENDBRANCH  25  27
ENDBRANCH  22  23
ENDBRANCH   1  21
TORSDOF 7
