REMARK  Name = ZINC40914089
REMARK  9 active torsions:
REMARK  status: ('A' for Active; 'I' for Inactive)
REMARK    1  A    between atoms: C_1  and  C_2
REMARK    2  A    between atoms: C_6  and  C_8
REMARK    3  A    between atoms: C_8  and  O_9
REMARK    4  A    between atoms: O_9  and  C_10
REMARK    5  A    between atoms: C_11  and  O_34
REMARK    6  A    between atoms: C_13  and  C_17
REMARK    7  A    between atoms: C_22  and  C_26
REMARK    8  A    between atoms: C_22  and  C_27
REMARK    9  A    between atoms: O_34  and  C_35
REMARK                            x       y       z     vdW  Elec       q    Type
REMARK                         _______ _______ _______ _____ _____    ______ ____
ROOT
ATOM      1  C   UNL     1       1.599  -3.746   4.056  0.00  0.00    +0.176 A 
ATOM      2  C   UNL     1       1.682  -3.054   5.261  0.00  0.00    +0.163 A 
ATOM      3  C   UNL     1       1.879  -3.749   6.443  0.00  0.00    +0.055 A 
ATOM      4  C   UNL     1       1.992  -5.128   6.424  0.00  0.00    -0.014 A 
ATOM      5  C   UNL     1       1.910  -5.815   5.228  0.00  0.00    +0.025 A 
ATOM      6  C   UNL     1       1.708  -5.127   4.045  0.00  0.00    +0.063 A 
ATOM      7 BR   UNL     1       1.588  -6.072   2.411  0.00  0.00    -0.046 Br
ENDROOT
BRANCH   4   8
ATOM      8  C   UNL     1       2.206  -5.882   7.711  0.00  0.00    +0.176 C 
ATOM      9  C   UNL     1       3.513  -6.641   7.637  0.00  0.00    +0.041 C 
ATOM     10  C   UNL     1       3.557  -7.981   7.481  0.00  0.00    +0.020 C 
ATOM     11  C   UNL     1       4.877  -8.712   7.411  0.00  0.00    +0.058 C 
ATOM     12  C   UNL     1       5.938  -7.801   6.791  0.00  0.00    -0.023 C 
ATOM     13  C   UNL     1       6.049  -6.536   7.649  0.00  0.00    +0.086 C 
ATOM     14  C   UNL     1       4.696  -5.887   7.737  0.00  0.00    +0.164 C 
ATOM     15  O   UNL     1       4.623  -4.684   7.898  0.00  0.00    -0.292 OA
ATOM     16  C   UNL     1       7.285  -8.525   6.762  0.00  0.00    +0.011 C 
ATOM     17  C   UNL     1       5.524  -7.423   5.367  0.00  0.00    +0.011 C 
ATOM     18  N   UNL     1       2.413  -8.737   7.386  0.00  0.00    -0.287 N 
ATOM     19  C   UNL     1       1.213  -8.151   7.755  0.00  0.00    +0.218 A 
ATOM     20  N   UNL     1       1.103  -6.811   7.916  0.00  0.00    -0.221 N 
ATOM     21  N   UNL     1      -0.218  -6.568   8.292  0.00  0.00    -0.156 NA
ATOM     22  C   UNL     1      -0.819  -7.732   8.331  0.00  0.00    +0.247 A 
ATOM     23  N   UNL     1       0.050  -8.685   8.006  0.00  0.00    -0.201 NA
ATOM     24  H   UNL     1       2.444  -9.653   7.069  0.00  0.00    +0.155 HD
ENDBRANCH   4   8
BRANCH   2  25
ATOM     25  O   UNL     1       1.571  -1.699   5.278  0.00  0.00    -0.491 OA
ATOM     26  C   UNL     1       1.665  -1.056   6.551  0.00  0.00    +0.277 C 
ENDBRANCH   2  25
BRANCH   1  27
ATOM     27  O   UNL     1       1.406  -3.067   2.893  0.00  0.00    -0.483 OA
BRANCH  27  28
ATOM     28  C   UNL     1       0.054  -2.845   2.489  0.00  0.00    +0.264 C 
BRANCH  28  34
ATOM     29  C   UNL     1      -0.018   1.503   0.010  0.00  0.00    +0.044 C 
ATOM     30  C   UNL     1       0.002  -0.004   0.002  0.00  0.00    -0.050 A 
ATOM     31  C   UNL     1       0.006  -0.689  -1.199  0.00  0.00    +0.003 A 
ATOM     32  C   UNL     1       0.025  -2.071  -1.207  0.00  0.00    +0.001 A 
ATOM     33  C   UNL     1       0.040  -2.768  -0.013  0.00  0.00    +0.007 A 
ATOM     34  C   UNL     1       0.037  -2.084   1.188  0.00  0.00    -0.010 A 
ATOM     35  C   UNL     1       0.023  -0.702   1.195  0.00  0.00    +0.010 A 
ENDBRANCH  28  34
ENDBRANCH  27  28
ENDBRANCH   1  27
TORSDOF 5
