REMARK  Name = ZINC37200844
REMARK  5 active torsions:
REMARK  status: ('A' for Active; 'I' for Inactive)
REMARK    1  A    between atoms: C_1  and  C_2
REMARK    2  A    between atoms: C_5  and  O_21
REMARK    3  A    between atoms: C_6  and  N_8
REMARK    4  A    between atoms: N_8  and  C_9
REMARK    5  A    between atoms: O_21  and  C_22
REMARK                            x       y       z     vdW  Elec       q    Type
REMARK                         _______ _______ _______ _____ _____    ______ ____
ROOT
ATOM      1  N   UNL     1       0.052  -2.794   2.398  0.00  0.00    -0.334 N 
ATOM      2  H   UNL     1       0.065  -3.764   2.392  0.00  0.00    +0.147 HD
ENDROOT
BRANCH   1   3
ATOM      3  C   UNL     1       0.048  -2.069   3.671  0.00  0.00    +0.107 C 
ATOM      4  C   UNL     1       0.677  -2.945   4.758  0.00  0.00    +0.068 C 
ATOM      5  C   UNL     1       0.397  -2.298   6.120  0.00  0.00    +0.231 C 
ATOM      6  O   UNL     1      -1.013  -2.318   6.346  0.00  0.00    -0.492 OA
ATOM      7  C   UNL     1      -1.822  -1.867   5.352  0.00  0.00    +0.125 A 
ATOM      8  C   UNL     1      -1.371  -1.731   4.051  0.00  0.00    +0.015 A 
ATOM      9  C   UNL     1      -2.233  -1.272   3.069  0.00  0.00    +0.024 A 
ATOM     10  C   UNL     1      -3.539  -0.949   3.382  0.00  0.00    +0.018 A 
ATOM     11  C   UNL     1      -3.991  -1.083   4.683  0.00  0.00    +0.019 A 
ATOM     12  C   UNL     1      -3.137  -1.538   5.664  0.00  0.00    +0.047 A 
ATOM     13 BR   UNL     1      -4.709  -0.324   2.034  0.00  0.00    -0.050 Br
ENDBRANCH   1   3
BRANCH   1  19
ATOM     14  C   UNL     1      -0.018   1.503   0.010  0.00  0.00    +0.044 C 
ATOM     15  C   UNL     1       0.002  -0.004   0.002  0.00  0.00    -0.048 A 
ATOM     16  C   UNL     1       0.006  -0.687  -1.200  0.00  0.00    +0.007 A 
ATOM     17  C   UNL     1       0.025  -2.070  -1.214  0.00  0.00    +0.048 A 
ATOM     18  C   UNL     1       0.041  -2.775  -0.022  0.00  0.00    +0.141 A 
ATOM     19  C   UNL     1       0.037  -2.087   1.190  0.00  0.00    +0.070 A 
ATOM     20  C   UNL     1       0.023  -0.700   1.196  0.00  0.00    +0.030 A 
BRANCH  18  21
ATOM     21  O   UNL     1       0.059  -4.134  -0.034  0.00  0.00    -0.493 OA
ATOM     22  C   UNL     1       0.061  -4.772  -1.313  0.00  0.00    +0.277 C 
ENDBRANCH  18  21
ENDBRANCH   1  19
TORSDOF 3
