REMARK  Name = ZINC13064591
REMARK  11 active torsions:
REMARK  status: ('A' for Active; 'I' for Inactive)
REMARK    1  A    between atoms: C_1  and  C_2
REMARK    2  A    between atoms: C_2  and  C_3
REMARK    3  A    between atoms: C_3  and  C_5
REMARK    4  A    between atoms: C_3  and  N_66
REMARK    5  A    between atoms: N_9  and  C_10
REMARK    6  A    between atoms: C_15  and  C_16
REMARK    7  A    between atoms: C_15  and  N_66
REMARK    8  A    between atoms: C_21  and  C_22
REMARK    9  A    between atoms: C_21  and  N_66
REMARK   10  A    between atoms: C_26  and  C_35
REMARK   11  A    between atoms: C_27  and  C_34
REMARK                            x       y       z     vdW  Elec       q    Type
REMARK                         _______ _______ _______ _____ _____    ______ ____
ROOT
ATOM      1  N   UNL     1      -5.909   3.318  -1.476  0.00  0.00    +0.392 N 
ATOM      2  H   UNL     1      -6.086   2.309  -1.403  0.00  0.00    -0.080 HD
ENDROOT
BRANCH   1   3
ATOM      3  C   UNL     1      -7.203   4.033  -1.483  0.00  0.00    +0.003 C 
BRANCH   3   4
ATOM      4  C   UNL     1      -6.990   5.509  -1.698  0.00  0.00    +0.138 A 
ATOM      5  N   UNL     1      -6.095   6.065  -2.478  0.00  0.00    -0.115 NA
ATOM      6  N   UNL     1      -6.232   7.343  -2.392  0.00  0.00    -0.023 NA
ATOM      7  N   UNL     1      -7.186   7.617  -1.572  0.00  0.00    -0.044 NA
ATOM      8  N   UNL     1      -7.678   6.512  -1.123  0.00  0.00    -0.228 N 
BRANCH   8   9
ATOM      9  C   UNL     1      -8.780   6.376  -0.166  0.00  0.00    +0.111 C 
ATOM     10  C   UNL     1     -10.077   6.953  -0.768  0.00  0.00    +0.027 C 
ATOM     11  C   UNL     1     -10.786   7.626   0.434  0.00  0.00    +0.002 C 
ATOM     12  C   UNL     1      -9.607   8.241   1.227  0.00  0.00    +0.002 C 
ATOM     13  C   UNL     1      -8.480   7.194   1.102  0.00  0.00    +0.027 C 
ENDBRANCH   8   9
ENDBRANCH   3   4
BRANCH   3  15
ATOM     14  C   UNL     1      -8.367   1.996  -2.344  0.00  0.00    +0.002 C 
ATOM     15  C   UNL     1      -8.071   3.473  -2.612  0.00  0.00    -0.011 C 
ENDBRANCH   3  15
ENDBRANCH   1   3
BRANCH   1  16
ATOM     16  C   UNL     1      -5.176   3.588  -2.730  0.00  0.00    -0.034 C 
BRANCH  16  17
ATOM     17  C   UNL     1      -4.134   2.515  -2.920  0.00  0.00    -0.027 A 
ATOM     18  C   UNL     1      -4.232   1.339  -3.586  0.00  0.00    +0.009 A 
ATOM     19  C   UNL     1      -3.133   0.501  -3.630  0.00  0.00    +0.008 A 
ATOM     20  C   UNL     1      -1.991   0.880  -3.006  0.00  0.00    +0.045 A 
ATOM     21  S   UNL     1      -2.449   2.469  -2.332  0.00  0.00    -0.103 S 
ENDBRANCH  16  17
ENDBRANCH   1  16
BRANCH   1  22
ATOM     22  C   UNL     1      -5.101   3.749  -0.316  0.00  0.00    -0.036 C 
BRANCH  22  23
ATOM     23  C   UNL     1      -5.615   3.051   0.917  0.00  0.00    +0.001 A 
ATOM     24  C   UNL     1      -5.065   1.874   1.305  0.00  0.00    +0.017 A 
ATOM     25  C   UNL     1      -5.590   1.218   2.504  0.00  0.00    -0.001 A 
ATOM     26  C   UNL     1      -5.074  -0.005   2.945  0.00  0.00    +0.013 A 
ATOM     27  C   UNL     1      -5.586  -0.592   4.067  0.00  0.00    -0.047 A 
ATOM     28  C   UNL     1      -6.614   0.016   4.775  0.00  0.00    -0.046 A 
ATOM     29  C   UNL     1      -7.138   1.221   4.359  0.00  0.00    +0.030 A 
ATOM     30  C   UNL     1      -6.636   1.834   3.216  0.00  0.00    +0.049 A 
ATOM     31  N   UNL     1      -7.145   3.037   2.775  0.00  0.00    -0.322 N 
ATOM     32  H   UNL     1      -7.864   3.462   3.268  0.00  0.00    +0.169 HD
ATOM     33  C   UNL     1      -6.660   3.629   1.669  0.00  0.00    +0.251 A 
ATOM     34  O   UNL     1      -7.134   4.692   1.307  0.00  0.00    -0.268 OA
ATOM     35  C   UNL     1      -7.164  -0.650   6.010  0.00  0.00    +0.044 C 
ATOM     36  C   UNL     1      -5.029  -1.909   4.541  0.00  0.00    +0.044 C 
ENDBRANCH  22  23
ENDBRANCH   1  22
TORSDOF 8
