REMARK  Name = ZINC19825826
REMARK  5 active torsions:
REMARK  status: ('A' for Active; 'I' for Inactive)
REMARK    1  A    between atoms: C_1  and  C_2
REMARK    2  A    between atoms: C_7  and  C_8
REMARK    3  A    between atoms: N_9  and  N_10
REMARK    4  A    between atoms: C_11  and  C_13
REMARK    5  A    between atoms: C_15  and  C_19
REMARK                            x       y       z     vdW  Elec       q    Type
REMARK                         _______ _______ _______ _____ _____    ______ ____
ROOT
ATOM      1  N   UNL     1       3.149   6.256  -0.907  0.00  0.00    -0.202 N 
ATOM      2  C   UNL     1       2.982   7.589  -1.011  0.00  0.00    +0.281 C 
ATOM      3  O   UNL     1       1.876   8.077  -0.870  0.00  0.00    -0.267 OA
ATOM      4  H   UNL     1       4.149   5.815  -1.034  0.00  0.00    +0.178 HD
ENDROOT
BRANCH   2   5
ATOM      5  C   UNL     1       4.137   8.456  -1.294  0.00  0.00    +0.122 A 
ATOM      6  C   UNL     1       4.126   9.831  -1.434  0.00  0.00    +0.062 A 
ATOM      7  C   UNL     1       5.461  10.188  -1.693  0.00  0.00    +0.093 A 
ATOM      8  N   UNL     1       6.174   9.082  -1.706  0.00  0.00    -0.173 NA
ATOM      9  N   UNL     1       5.432   8.059  -1.477  0.00  0.00    -0.272 N 
ATOM     10  H   UNL     1       5.694   6.992  -1.415  0.00  0.00    +0.189 HD
BRANCH   7  11
ATOM     11  C   UNL     1       5.973  11.563  -1.919  0.00  0.00    +0.002 A 
ATOM     12  C   UNL     1       5.100  12.649  -1.883  0.00  0.00    +0.011 A 
ATOM     13  C   UNL     1       5.581  13.925  -2.089  0.00  0.00    +0.020 A 
ATOM     14  C   UNL     1       6.927  14.128  -2.340  0.00  0.00    +0.041 A 
ATOM     15  C   UNL     1       7.798  13.053  -2.381  0.00  0.00    +0.020 A 
ATOM     16  C   UNL     1       7.327  11.773  -2.172  0.00  0.00    +0.011 A 
ATOM     17 CL   UNL     1       7.525  15.736  -2.605  0.00  0.00    -0.084 Cl
ENDBRANCH   7  11
ENDBRANCH   2   5
BRANCH   1  19
ATOM     18  C   UNL     1       2.210   4.147  -0.537  0.00  0.00    +0.138 C 
ATOM     19  N   UNL     1       2.049   5.431  -0.637  0.00  0.00    -0.187 NA
BRANCH  18  26
ATOM     20  C   UNL     1      -0.364   5.340   0.033  0.00  0.00    +0.044 C 
ATOM     21  C   UNL     1      -0.196   3.842   0.024  0.00  0.00    -0.042 A 
ATOM     22  C   UNL     1      -1.274   3.024   0.289  0.00  0.00    +0.004 A 
ATOM     23  C   UNL     1      -1.123   1.649   0.276  0.00  0.00    +0.000 A 
ATOM     24  C   UNL     1       0.112   1.084   0.008  0.00  0.00    +0.001 A 
ATOM     25  C   UNL     1       1.199   1.890  -0.259  0.00  0.00    +0.010 A 
ATOM     26  C   UNL     1       1.052   3.279  -0.253  0.00  0.00    -0.003 A 
ENDBRANCH  18  26
ENDBRANCH   1  19
TORSDOF 4
