REMARK  Name = ZINC08588243
REMARK  7 active torsions:
REMARK  status: ('A' for Active; 'I' for Inactive)
REMARK    1  A    between atoms: C_4  and  N_7
REMARK    2  A    between atoms: C_8  and  C_10
REMARK    3  A    between atoms: C_10  and  S_11
REMARK    4  A    between atoms: S_11  and  C_12
REMARK    5  A    between atoms: N_18  and  C_19
REMARK    6  A    between atoms: C_19  and  C_20
REMARK    7  A    between atoms: C_20  and  C_21
REMARK                            x       y       z     vdW  Elec       q    Type
REMARK                         _______ _______ _______ _____ _____    ______ ____
ROOT
ATOM      1  C   UNL     1       6.276  -5.205   0.371  0.00  0.00    +0.174 A 
ATOM      2  N   UNL     1       7.308  -4.396   0.356  0.00  0.00    -0.202 NA
ATOM      3  C   UNL     1       8.569  -4.858   0.432  0.00  0.00    +0.186 A 
ATOM      4  C   UNL     1       8.789  -6.252   0.532  0.00  0.00    +0.172 A 
ATOM      5  C   UNL     1       7.613  -7.139   0.547  0.00  0.00    +0.282 A 
ATOM      6  O   UNL     1       7.735  -8.347   0.631  0.00  0.00    -0.265 OA
ATOM      7  N   UNL     1       6.392  -6.561   0.469  0.00  0.00    -0.286 N 
ATOM      8  N   UNL     1      10.024  -6.728   0.609  0.00  0.00    -0.245 NA
ATOM      9  C   UNL     1      11.045  -5.894   0.592  0.00  0.00    +0.131 A 
ATOM     10  C   UNL     1      10.836  -4.523   0.495  0.00  0.00    +0.133 A 
ATOM     11  N   UNL     1       9.616  -4.031   0.417  0.00  0.00    -0.233 NA
ENDROOT
BRANCH   1  12
ATOM     12  S   UNL     1       4.661  -4.506   0.267  0.00  0.00    -0.078 S 
BRANCH  12  13
ATOM     13  C   UNL     1       4.962  -2.721   0.153  0.00  0.00    +0.173 C 
BRANCH  13  15
ATOM     14  N   UNL     1       3.622  -0.651  -0.037  0.00  0.00    -0.285 N 
ATOM     15  C   UNL     1       3.645  -1.995   0.057  0.00  0.00    +0.227 C 
ATOM     16  O   UNL     1       2.606  -2.620   0.064  0.00  0.00    -0.275 OA
ATOM     17  H   UNL     1       4.452  -0.156  -0.121  0.00  0.00    +0.155 HD
BRANCH  14  21
ATOM     18  C   UNL     1      -0.015   1.381   0.029  0.00  0.00    +0.000 A 
ATOM     19  C   UNL     1       0.140   0.218   0.763  0.00  0.00    +0.002 A 
ATOM     20  C   UNL     1       1.344  -0.457   0.743  0.00  0.00    +0.023 A 
ATOM     21  C   UNL     1       2.400   0.031  -0.015  0.00  0.00    +0.033 A 
ATOM     22  C   UNL     1       2.241   1.198  -0.751  0.00  0.00    +0.023 A 
ATOM     23  C   UNL     1       1.034   1.870  -0.727  0.00  0.00    +0.002 A 
ENDBRANCH  14  21
ENDBRANCH  13  15
ENDBRANCH  12  13
ENDBRANCH   1  12
BRANCH   7  24
ATOM     24  C   UNL     1       5.189  -7.396   0.486  0.00  0.00    +0.132 C 
BRANCH  24  25
ATOM     25  C   UNL     1       4.819  -7.786  -0.947  0.00  0.00    +0.059 C 
BRANCH  25  26
ATOM     26  C   UNL     1       3.581  -8.645  -0.930  0.00  0.00    -0.021 A 
ATOM     27  C   UNL     1       3.540  -9.987  -0.926  0.00  0.00    +0.087 A 
ATOM     28  N   UNL     1       2.241 -10.414  -0.910  0.00  0.00    -0.360 N 
ATOM     29  H   UNL     1       1.959 -11.342  -0.904  0.00  0.00    +0.165 HD
ATOM     30  C   UNL     1       1.392  -9.330  -0.902  0.00  0.00    +0.047 A 
ATOM     31  C   UNL     1       2.194  -8.175  -0.908  0.00  0.00    +0.003 A 
ATOM     32  C   UNL     1       1.598  -6.912  -0.896  0.00  0.00    +0.010 A 
ATOM     33  C   UNL     1       0.236  -6.806  -0.875  0.00  0.00    +0.001 A 
ATOM     34  C   UNL     1      -0.560  -7.942  -0.865  0.00  0.00    +0.002 A 
ATOM     35  C   UNL     1       0.007  -9.198  -0.886  0.00  0.00    +0.026 A 
ENDBRANCH  25  26
ENDBRANCH  24  25
ENDBRANCH   7  24
TORSDOF 7
