REMARK  Name = ZINC34686431
REMARK  13 active torsions:
REMARK  status: ('A' for Active; 'I' for Inactive)
REMARK    1  A    between atoms: C_1  and  C_2
REMARK    2  A    between atoms: C_2  and  C_3
REMARK    3  A    between atoms: C_3  and  C_5
REMARK    4  A    between atoms: C_3  and  O_15
REMARK    5  A    between atoms: N_7  and  C_8
REMARK    6  A    between atoms: C_8  and  C_9
REMARK    7  A    between atoms: C_9  and  N_10
REMARK    8  A    between atoms: O_15  and  C_16
REMARK    9  A    between atoms: C_22  and  C_33
REMARK   10  A    between atoms: C_27  and  C_29
REMARK   11  A    between atoms: C_29  and  C_30
REMARK   12  A    between atoms: C_30  and  C_31
REMARK   13  A    between atoms: C_30  and  C_32
REMARK                            x       y       z     vdW  Elec       q    Type
REMARK                         _______ _______ _______ _____ _____    ______ ____
ROOT
ATOM      1  C   UNL     1      -3.594   1.239  -0.444  0.00  0.00    +0.122 A 
ATOM      2  C   UNL     1      -3.805   2.205   0.530  0.00  0.00    +0.046 A 
ATOM      3  C   UNL     1      -4.443   3.381   0.200  0.00  0.00    +0.007 A 
ATOM      4  C   UNL     1      -4.876   3.612  -1.100  0.00  0.00    -0.040 A 
ATOM      5  C   UNL     1      -4.659   2.659  -2.070  0.00  0.00    -0.016 A 
ATOM      6  C   UNL     1      -4.019   1.472  -1.741  0.00  0.00    +0.051 A 
ATOM      7  C   UNL     1      -5.077   2.857  -3.505  0.00  0.00    +0.137 C 
ATOM      8  N   UNL     1      -5.954   4.029  -3.607  0.00  0.00    -0.290 N 
ATOM      9  C   UNL     1      -5.551   5.240  -2.872  0.00  0.00    +0.113 C 
ATOM     10  C   UNL     1      -5.579   4.915  -1.379  0.00  0.00    +0.054 C 
ATOM     11  C   UNL     1      -7.082   3.998  -4.343  0.00  0.00    +0.217 C 
ATOM     12  O   UNL     1      -7.351   3.014  -4.999  0.00  0.00    -0.276 OA
ENDROOT
BRANCH   7  13
ATOM     13  C   UNL     1      -5.816   1.635  -3.986  0.00  0.00    -0.022 A 
ATOM     14  C   UNL     1      -7.064   1.336  -3.470  0.00  0.00    +0.008 A 
ATOM     15  C   UNL     1      -7.743   0.216  -3.911  0.00  0.00    +0.038 A 
ATOM     16  C   UNL     1      -7.174  -0.606  -4.869  0.00  0.00    +0.123 A 
ATOM     17  C   UNL     1      -5.925  -0.305  -5.384  0.00  0.00    +0.038 A 
ATOM     18  C   UNL     1      -5.249   0.818  -4.946  0.00  0.00    +0.008 A 
ATOM     19  F   UNL     1      -7.837  -1.702  -5.300  0.00  0.00    -0.205 F 
ENDBRANCH   7  13
BRANCH   1  20
ATOM     20  O   UNL     1      -2.970   0.074  -0.128  0.00  0.00    -0.480 OA
BRANCH  20  21
ATOM     21  C   UNL     1      -2.645  -0.135   1.248  0.00  0.00    +0.258 C 
BRANCH  21  22
ATOM     22  C   UNL     1      -2.875  -1.581   1.605  0.00  0.00    +0.254 C 
ATOM     23  O   UNL     1      -3.191  -2.375   0.744  0.00  0.00    -0.272 OA
ATOM     24  N   UNL     1      -2.730  -1.992   2.880  0.00  0.00    -0.314 N 
ATOM     25  H   UNL     1      -2.478  -1.357   3.568  0.00  0.00    +0.149 HD
BRANCH  24  26
ATOM     26  C   UNL     1      -2.954  -3.397   3.227  0.00  0.00    +0.086 C 
BRANCH  26  27
ATOM     27  C   UNL     1      -2.726  -3.595   4.727  0.00  0.00    -0.060 C 
BRANCH  27  28
ATOM     28  N   UNL     1      -2.951  -5.004   5.074  0.00  0.00    +0.381 N 
ATOM     29  C   UNL     1      -1.884  -5.854   4.485  0.00  0.00    -0.079 C 
ATOM     30  C   UNL     1      -1.921  -7.129   5.364  0.00  0.00    -0.020 C 
ATOM     31  C   UNL     1      -2.206  -6.568   6.776  0.00  0.00    -0.020 C 
ATOM     32  C   UNL     1      -2.852  -5.191   6.538  0.00  0.00    -0.079 C 
ATOM     33  H   UNL     1      -3.857  -5.304   4.746  0.00  0.00    -0.082 HD
ENDBRANCH  27  28
ENDBRANCH  26  27
ENDBRANCH  24  26
ENDBRANCH  21  22
BRANCH  21  35
ATOM     34  C   UNL     1      -0.967   1.717   1.241  0.00  0.00    +0.008 C 
ATOM     35  C   UNL     1      -1.175   0.221   1.484  0.00  0.00    +0.051 C 
ENDBRANCH  21  35
ENDBRANCH  20  21
ENDBRANCH   1  20
BRANCH  11  36
ATOM     36  C   UNL     1      -8.008   5.187  -4.353  0.00  0.00    +0.099 C 
BRANCH  36  37
ATOM     37  C   UNL     1      -9.204   4.895  -5.261  0.00  0.00    -0.008 C 
ATOM     38  C   UNL     1     -10.204   6.048  -5.174  0.00  0.00    +0.008 C 
ATOM     39  C   UNL     1      -8.722   4.745  -6.706  0.00  0.00    +0.008 C 
ENDBRANCH  36  37
ENDBRANCH  11  36
TORSDOF 10
