REMARK  Name = ZINC33024415
REMARK  12 active torsions:
REMARK  status: ('A' for Active; 'I' for Inactive)
REMARK    1  A    between atoms: C_1  and  C_2
REMARK    2  A    between atoms: C_2  and  C_3
REMARK    3  A    between atoms: N_9  and  C_10
REMARK    4  A    between atoms: C_10  and  C_11
REMARK    5  A    between atoms: C_11  and  C_12
REMARK    6  A    between atoms: C_12  and  N_13
REMARK    7  A    between atoms: C_14  and  C_16
REMARK    8  A    between atoms: C_16  and  C_17
REMARK    9  A    between atoms: C_23  and  C_25
REMARK   10  A    between atoms: C_26  and  C_33
REMARK   11  A    between atoms: C_27  and  C_32
REMARK   12  A    between atoms: C_28  and  C_31
REMARK                            x       y       z     vdW  Elec       q    Type
REMARK                         _______ _______ _______ _____ _____    ______ ____
ROOT
ATOM      1  C   UNL     1       4.363   6.274  -4.496  0.00  0.00    +0.099 C 
ENDROOT
BRANCH   1   2
ATOM      2  C   UNL     1       5.778   6.668  -4.925  0.00  0.00    +0.001 C 
ATOM      3  C   UNL     1       6.671   6.786  -3.688  0.00  0.00    +0.023 C 
ATOM      4  C   UNL     1       8.095   7.147  -4.124  0.00  0.00    +0.108 C 
ATOM      5  N   UNL     1       8.043   8.362  -4.949  0.00  0.00    -0.296 N 
ATOM      6  C   UNL     1       7.146   8.388  -6.112  0.00  0.00    +0.108 C 
ATOM      7  C   UNL     1       5.733   8.013  -5.654  0.00  0.00    +0.023 C 
ATOM      8  C   UNL     1       8.803   9.432  -4.644  0.00  0.00    +0.263 C 
ATOM      9  O   UNL     1       8.682  10.465  -5.276  0.00  0.00    -0.268 OA
BRANCH   8  10
ATOM     10  C   UNL     1       9.776   9.352  -3.549  0.00  0.00    +0.105 A 
ATOM     11  C   UNL     1      10.995   8.709  -3.587  0.00  0.00    -0.018 A 
ATOM     12  C   UNL     1      11.594   8.887  -2.336  0.00  0.00    -0.027 A 
ATOM     13  C   UNL     1      10.744   9.612  -1.569  0.00  0.00    +0.017 A 
ATOM     14  N   UNL     1       9.636   9.901  -2.294  0.00  0.00    -0.354 N 
ATOM     15  H   UNL     1       8.726  10.462  -2.038  0.00  0.00    +0.166 HD
ATOM     16  C   UNL     1      10.991  10.028  -0.142  0.00  0.00    +0.063 C 
ATOM     17  C   UNL     1      12.941   8.361  -1.914  0.00  0.00    +0.046 C 
ATOM     18  C   UNL     1      11.575   7.960  -4.759  0.00  0.00    +0.046 C 
ENDBRANCH   8  10
ENDBRANCH   1   2
BRANCH   1  20
ATOM     19  N   UNL     1       3.248   4.337  -3.436  0.00  0.00    -0.315 N 
ATOM     20  C   UNL     1       4.389   4.895  -3.888  0.00  0.00    +0.213 C 
ATOM     21  O   UNL     1       5.435   4.288  -3.806  0.00  0.00    -0.276 OA
ATOM     22  H   UNL     1       2.299   4.888  -3.511  0.00  0.00    +0.149 HD
BRANCH  19  23
ATOM     23  C   UNL     1       3.273   2.997  -2.845  0.00  0.00    +0.102 C 
BRANCH  23  24
ATOM     24  C   UNL     1       1.858   2.602  -2.416  0.00  0.00    +0.000 C 
BRANCH  24  25
ATOM     25  C   UNL     1       1.884   1.202  -1.799  0.00  0.00    -0.077 C 
BRANCH  25  31
ATOM     26  C   UNL     1       0.478  -0.581  -0.960  0.00  0.00    -0.069 C 
ATOM     27  C   UNL     1      -0.972  -0.980  -0.678  0.00  0.00    -0.015 C 
ATOM     28  C   UNL     1      -1.543  -0.074   0.416  0.00  0.00    -0.003 C 
ATOM     29  C   UNL     1      -1.437   1.386  -0.033  0.00  0.00    -0.019 C 
ATOM     30  C   UNL     1       0.027   1.717  -0.334  0.00  0.00    -0.078 C 
ATOM     31  N   UNL     1       0.526   0.824  -1.387  0.00  0.00    +0.382 N 
ATOM     32  H   UNL     1      -0.136   0.931  -2.259  0.00  0.00    -0.081 HD
BRANCH  26  34
ATOM     33  C   UNL     1       0.278  -1.219  -3.367  0.00  0.00    +0.002 C 
ATOM     34  C   UNL     1       1.046  -1.470  -2.067  0.00  0.00    -0.019 C 
ENDBRANCH  26  34
ENDBRANCH  25  31
ENDBRANCH  24  25
ENDBRANCH  23  24
ENDBRANCH  19  23
ENDBRANCH   1  20
TORSDOF 8
