REMARK  Name = ZINC65374251
REMARK  3 active torsions:
REMARK  status: ('A' for Active; 'I' for Inactive)
REMARK    1  A    between atoms: C_1  and  C_2
REMARK    2  A    between atoms: C_11  and  C_18
REMARK    3  A    between atoms: C_21  and  O_25
REMARK                            x       y       z     vdW  Elec       q    Type
REMARK                         _______ _______ _______ _____ _____    ______ ____
ROOT
ATOM      1  C   UNL     1      -0.018   1.503   0.010  0.00  0.00    +0.045 C 
ATOM      2  C   UNL     1       0.002  -0.004   0.002  0.00  0.00    -0.034 A 
ATOM      3  C   UNL     1       0.006  -0.697  -1.220  0.00  0.00    +0.008 A 
ATOM      4  C   UNL     1       0.024  -2.057  -1.225  0.00  0.00    +0.045 A 
ATOM      5  C   UNL     1       0.038  -2.750   0.003  0.00  0.00    +0.116 A 
ATOM      6  N   UNL     1       0.053  -4.037   0.304  0.00  0.00    -0.342 N 
ATOM      7  C   UNL     1       0.056  -4.183   1.641  0.00  0.00    +0.055 A 
ATOM      8  C   UNL     1       0.056  -2.964   2.202  0.00  0.00    +0.054 A 
ATOM      9  N   UNL     1       0.036  -2.047   1.176  0.00  0.00    -0.304 N 
ATOM     10  C   UNL     1       0.022  -0.682   1.169  0.00  0.00    +0.096 A 
ATOM     11  C   UNL     1       0.088  -2.567   3.654  0.00  0.00    +0.078 C 
ATOM     12  C   UNL     1       0.395  -3.744   4.561  0.00  0.00    +0.110 C 
ATOM     13  C   UNL     1      -0.686  -4.775   4.503  0.00  0.00    +0.214 C 
ATOM     14  O   UNL     1      -1.409  -4.914   5.467  0.00  0.00    -0.276 OA
ATOM     15  N   UNL     1      -0.889  -5.546   3.440  0.00  0.00    -0.310 N 
ATOM     16  C   UNL     1       0.045  -5.527   2.318  0.00  0.00    +0.159 C 
ATOM     17  H   UNL     1      -1.666  -6.127   3.409  0.00  0.00    +0.149 HD
ATOM     18  H   UNL     1       0.062  -4.763  -0.339  0.00  0.00    +0.167 HD
ENDROOT
BRANCH  11  19
ATOM     19  C   UNL     1       1.145  -1.511   3.850  0.00  0.00    -0.019 A 
ATOM     20  C   UNL     1       2.463  -1.787   3.538  0.00  0.00    +0.009 A 
ATOM     21  C   UNL     1       3.434  -0.821   3.717  0.00  0.00    +0.046 A 
ATOM     22  C   UNL     1       3.086   0.428   4.211  0.00  0.00    +0.118 A 
ATOM     23  C   UNL     1       1.764   0.704   4.524  0.00  0.00    +0.065 A 
ATOM     24  C   UNL     1       0.794  -0.265   4.338  0.00  0.00    +0.048 A 
ATOM     25 CL   UNL     1      -0.863   0.082   4.722  0.00  0.00    -0.083 Cl
BRANCH  22  26
ATOM     26  O   UNL     1       4.040   1.379   4.388  0.00  0.00    -0.507 OA
ATOM     27  H   UNL     1       4.182   1.943   3.615  0.00  0.00    +0.292 HD
ENDBRANCH  22  26
ENDBRANCH  11  19
TORSDOF 2
