REMARK  Name = ZINC39353279
REMARK  9 active torsions:
REMARK  status: ('A' for Active; 'I' for Inactive)
REMARK    1  A    between atoms: C_1  and  O_2
REMARK    2  A    between atoms: O_2  and  C_3
REMARK    3  A    between atoms: C_8  and  C_13
REMARK    4  A    between atoms: C_13  and  C_35
REMARK    5  A    between atoms: C_14  and  C_15
REMARK    6  A    between atoms: C_18  and  O_21
REMARK    7  A    between atoms: O_21  and  C_22
REMARK    8  A    between atoms: C_25  and  C_31
REMARK    9  A    between atoms: C_27  and  N_28
REMARK                            x       y       z     vdW  Elec       q    Type
REMARK                         _______ _______ _______ _____ _____    ______ ____
ROOT
ATOM      1  C   UNL     1       0.967  -6.497  -6.380  0.00  0.00    -0.024 A 
ATOM      2  C   UNL     1      -0.341  -6.127  -6.712  0.00  0.00    +0.011 A 
ATOM      3  C   UNL     1      -1.063  -6.884  -7.607  0.00  0.00    +0.047 A 
ATOM      4  C   UNL     1      -0.494  -8.015  -8.181  0.00  0.00    +0.129 A 
ATOM      5  C   UNL     1       0.805  -8.388  -7.855  0.00  0.00    +0.047 A 
ATOM      6  C   UNL     1       1.537  -7.634  -6.966  0.00  0.00    +0.011 A 
ENDROOT
BRANCH   1   8
ATOM      7  C   UNL     1       1.129  -5.129  -4.363  0.00  0.00    +0.072 C 
ATOM      8  C   UNL     1       1.742  -5.692  -5.425  0.00  0.00    +0.026 C 
BRANCH   7  14
ATOM      9  C   UNL     1       0.364  -2.627   0.587  0.00  0.00    +0.122 A 
ATOM     10  C   UNL     1      -0.066  -1.518  -0.256  0.00  0.00    +0.048 A 
ATOM     11  C   UNL     1       0.160  -1.504  -1.583  0.00  0.00    +0.031 A 
ATOM     12  C   UNL     1       0.860  -2.632  -2.216  0.00  0.00    +0.061 A 
ATOM     13  N   UNL     1       1.200  -2.869  -3.451  0.00  0.00    -0.359 N 
ATOM     14  C   UNL     1       1.882  -4.169  -3.479  0.00  0.00    +0.216 C 
ATOM     15  N   UNL     1       1.896  -4.660  -2.096  0.00  0.00    -0.359 N 
ATOM     16  C   UNL     1       1.300  -3.764  -1.357  0.00  0.00    +0.064 A 
ATOM     17  C   UNL     1       1.019  -3.699   0.078  0.00  0.00    +0.073 A 
ATOM     18  H   UNL     1       1.032  -2.293  -4.212  0.00  0.00    +0.162 HD
ATOM     19  H   UNL     1       2.279  -5.497  -1.788  0.00  0.00    +0.162 HD
BRANCH   9  21
ATOM     20  C   UNL     1      -0.586  -1.431   2.406  0.00  0.00    +0.277 C 
ATOM     21  O   UNL     1       0.107  -2.582   1.918  0.00  0.00    -0.495 OA
ENDBRANCH   9  21
ENDBRANCH   7  14
BRANCH   7  22
ATOM     22  C   UNL     1      -0.238  -5.444  -4.076  0.00  0.00    +0.099 C 
ATOM     23  N   UNL     1      -1.323  -5.694  -3.848  0.00  0.00    -0.191 NA
ENDBRANCH   7  22
ENDBRANCH   1   8
BRANCH   4  24
ATOM     24  O   UNL     1      -1.210  -8.759  -9.063  0.00  0.00    -0.454 OA
BRANCH  24  25
ATOM     25  C   UNL     1      -1.319  -8.306 -10.339  0.00  0.00    +0.159 A 
ATOM     26  C   UNL     1      -0.772  -7.080 -10.691  0.00  0.00    +0.049 A 
ATOM     27  C   UNL     1      -0.884  -6.622 -11.989  0.00  0.00    +0.016 A 
ATOM     28  C   UNL     1      -1.541  -7.383 -12.938  0.00  0.00    +0.057 A 
ATOM     29  C   UNL     1      -2.087  -8.605 -12.590  0.00  0.00    +0.048 A 
ATOM     30  C   UNL     1      -1.972  -9.071 -11.295  0.00  0.00    +0.169 A 
BRANCH  28  31
ATOM     31  C   UNL     1      -1.662  -6.880 -14.353  0.00  0.00    +0.417 C 
ATOM     32  F   UNL     1      -1.037  -5.633 -14.460  0.00  0.00    -0.166 F 
ATOM     33  F   UNL     1      -1.046  -7.786 -15.224  0.00  0.00    -0.166 F 
ATOM     34  F   UNL     1      -3.014  -6.755 -14.690  0.00  0.00    -0.166 F 
ENDBRANCH  28  31
BRANCH  30  35
ATOM     35  N   UNL     1      -2.552 -10.381 -10.925  0.00  0.00    +0.060 N 
ATOM     36  O   UNL     1      -3.122 -11.047 -11.758  0.00  0.00    -0.126 OA
ATOM     37  O   UNL     1      -2.457 -10.786  -9.790  0.00  0.00    -0.126 OA
ENDBRANCH  30  35
ENDBRANCH  24  25
ENDBRANCH   4  24
TORSDOF 8
