REMARK  Name = ZINC59513945
REMARK  6 active torsions:
REMARK  status: ('A' for Active; 'I' for Inactive)
REMARK    1  A    between atoms: C_4  and  N_7
REMARK    2  A    between atoms: C_8  and  C_10
REMARK    3  A    between atoms: C_15  and  N_16
REMARK    4  A    between atoms: C_17  and  C_18
REMARK    5  A    between atoms: C_21  and  O_25
REMARK    6  A    between atoms: C_22  and  O_24
REMARK                            x       y       z     vdW  Elec       q    Type
REMARK                         _______ _______ _______ _____ _____    ______ ____
ROOT
ATOM      1  C   UNL     1       4.933  -2.705   0.155  0.00  0.00    +0.062 A 
ATOM      2  C   UNL     1       6.132  -1.990   0.152  0.00  0.00    +0.015 A 
ATOM      3  C   UNL     1       7.334  -2.660   0.235  0.00  0.00    +0.001 A 
ATOM      4  C   UNL     1       7.364  -4.043   0.323  0.00  0.00    +0.002 A 
ATOM      5  C   UNL     1       6.192  -4.769   0.327  0.00  0.00    +0.028 A 
ATOM      6  C   UNL     1       4.963  -4.111   0.250  0.00  0.00    +0.076 A 
ENDROOT
BRANCH   1   8
ATOM      7  N   UNL     1       3.622  -0.649  -0.025  0.00  0.00    -0.281 N 
ATOM      8  C   UNL     1       3.645  -1.994   0.065  0.00  0.00    +0.250 C 
ATOM      9  O   UNL     1       2.603  -2.620   0.073  0.00  0.00    -0.270 OA
ATOM     10  H   UNL     1       4.453  -0.154  -0.098  0.00  0.00    +0.155 HD
BRANCH   7  14
ATOM     11  C   UNL     1      -0.016   1.379   0.009  0.00  0.00    +0.000 A 
ATOM     12  C   UNL     1       1.094   1.944   0.610  0.00  0.00    +0.002 A 
ATOM     13  C   UNL     1       2.302   1.274   0.600  0.00  0.00    +0.023 A 
ATOM     14  C   UNL     1       2.400   0.032  -0.013  0.00  0.00    +0.034 A 
ATOM     15  C   UNL     1       1.283  -0.532  -0.616  0.00  0.00    +0.023 A 
ATOM     16  C   UNL     1       0.079   0.143  -0.604  0.00  0.00    +0.002 A 
ENDBRANCH   7  14
ENDBRANCH   1   8
BRANCH   6  17
ATOM     17  N   UNL     1       3.800  -4.824   0.259  0.00  0.00    -0.254 NA
ATOM     18  C   UNL     1       3.635  -5.793   1.119  0.00  0.00    +0.119 C 
BRANCH  18  19
ATOM     19  C   UNL     1       2.344  -6.489   1.204  0.00  0.00    -0.003 A 
ATOM     20  C   UNL     1       1.290  -6.118   0.360  0.00  0.00    +0.013 A 
ATOM     21  C   UNL     1       0.081  -6.772   0.441  0.00  0.00    +0.050 A 
ATOM     22  C   UNL     1      -0.097  -7.799   1.359  0.00  0.00    +0.158 A 
ATOM     23  C   UNL     1       0.947  -8.174   2.203  0.00  0.00    +0.159 A 
ATOM     24  C   UNL     1       2.165  -7.528   2.124  0.00  0.00    +0.058 A 
BRANCH  23  25
ATOM     25  O   UNL     1       0.768  -9.179   3.101  0.00  0.00    -0.503 OA
ATOM     26  H   UNL     1       0.992 -10.056   2.760  0.00  0.00    +0.292 HD
ENDBRANCH  23  25
BRANCH  22  27
ATOM     27  O   UNL     1      -1.292  -8.440   1.434  0.00  0.00    -0.503 OA
ATOM     28  H   UNL     1      -1.363  -9.211   0.855  0.00  0.00    +0.292 HD
ENDBRANCH  22  27
ENDBRANCH  18  19
ENDBRANCH   6  17
TORSDOF 6
