REMARK  Name = ZINC37352098
REMARK  8 active torsions:
REMARK  status: ('A' for Active; 'I' for Inactive)
REMARK    1  A    between atoms: C_1  and  C_2
REMARK    2  A    between atoms: C_5  and  C_10
REMARK    3  A    between atoms: C_7  and  O_8
REMARK    4  A    between atoms: O_8  and  C_9
REMARK    5  A    between atoms: C_11  and  C_17
REMARK    6  A    between atoms: N_13  and  C_16
REMARK    7  A    between atoms: C_14  and  N_15
REMARK    8  A    between atoms: C_20  and  C_22
REMARK                            x       y       z     vdW  Elec       q    Type
REMARK                         _______ _______ _______ _____ _____    ______ ____
ROOT
ATOM      1  C   UNL     1       0.059  -4.259  -0.027  0.00  0.00    +0.045 A 
ATOM      2  C   UNL     1      -0.957  -5.103  -0.513  0.00  0.00    +0.076 A 
ATOM      3  N   UNL     1      -0.573  -6.341  -0.352  0.00  0.00    -0.174 NA
ATOM      4  N   UNL     1       0.695  -6.351   0.239  0.00  0.00    -0.253 N 
ATOM      5  C   UNL     1       1.083  -5.070   0.432  0.00  0.00    +0.122 A 
ATOM      6  C   UNL     1       1.472  -7.543   0.585  0.00  0.00    +0.174 C 
ENDROOT
BRANCH   1  11
ATOM      7  C   UNL     1      -0.018   1.503   0.010  0.00  0.00    +0.047 C 
ATOM      8  C   UNL     1       0.002  -0.004   0.002  0.00  0.00    -0.009 A 
ATOM      9  C   UNL     1       0.006  -0.687  -1.200  0.00  0.00    +0.007 A 
ATOM     10  C   UNL     1       0.024  -2.067  -1.215  0.00  0.00    +0.009 A 
ATOM     11  C   UNL     1       0.040  -2.776  -0.014  0.00  0.00    -0.009 A 
ATOM     12  C   UNL     1       0.036  -2.088   1.197  0.00  0.00    +0.054 A 
ATOM     13  C   UNL     1       0.023  -0.702   1.202  0.00  0.00    +0.124 A 
BRANCH  13  14
ATOM     14  O   UNL     1       0.025  -0.027   2.381  0.00  0.00    -0.495 OA
ATOM     15  C   UNL     1       0.047  -0.809   3.576  0.00  0.00    +0.277 C 
ENDBRANCH  13  14
ENDBRANCH   1  11
BRANCH   2  16
ATOM     16  C   UNL     1      -2.264  -4.656  -1.115  0.00  0.00    +0.043 C 
ATOM     17  C   UNL     1      -3.318  -5.729  -1.395  0.00  0.00    +0.014 C 
ATOM     18  C   UNL     1      -2.560  -5.080  -2.555  0.00  0.00    -0.004 C 
ATOM     19  C   UNL     1      -3.330  -4.095  -3.438  0.00  0.00    +0.008 C 
ENDBRANCH   2  16
BRANCH   5  20
ATOM     20  N   UNL     1       2.282  -4.647   0.989  0.00  0.00    -0.343 N 
ATOM     21  H   UNL     1       2.464  -3.700   1.087  0.00  0.00    +0.144 HD
ATOM     22  H   UNL     1       2.937  -5.300   1.281  0.00  0.00    +0.144 HD
ENDBRANCH   5  20
TORSDOF 4
