REMARK  Name = ZINC32738329
REMARK  7 active torsions:
REMARK  status: ('A' for Active; 'I' for Inactive)
REMARK    1  A    between atoms: C_1  and  C_2
REMARK    2  A    between atoms: C_2  and  C_4
REMARK    3  A    between atoms: C_2  and  N_14
REMARK    4  A    between atoms: C_15  and  C_17
REMARK    5  A    between atoms: C_18  and  C_26
REMARK    6  A    between atoms: C_26  and  S_27
REMARK    7  A    between atoms: S_27  and  C_28
REMARK                            x       y       z     vdW  Elec       q    Type
REMARK                         _______ _______ _______ _____ _____    ______ ____
ROOT
ATOM      1  N   UNL     1       1.178  -0.662  -0.012  0.00  0.00    -0.299 N 
ATOM      2  C   UNL     1       0.002  -0.004   0.002  0.00  0.00    +0.280 C 
ATOM      3  O   UNL     1      -1.043  -0.627   0.008  0.00  0.00    -0.267 OA
ATOM      4  H   UNL     1       2.123  -0.099  -0.018  0.00  0.00    +0.150 HD
ENDROOT
BRANCH   2   5
ATOM      5  C   UNL     1      -0.018   1.466   0.010  0.00  0.00    +0.194 A 
ATOM      6  C   UNL     1      -1.139   2.232   0.019  0.00  0.00    +0.020 A 
ATOM      7  C   UNL     1      -0.680   3.621   0.028  0.00  0.00    +0.025 A 
ATOM      8  C   UNL     1      -1.326   4.859   0.041  0.00  0.00    +0.012 A 
ATOM      9  C   UNL     1      -0.587   6.008   0.041  0.00  0.00    +0.001 A 
ATOM     10  C   UNL     1       0.800   5.952   0.027  0.00  0.00    +0.004 A 
ATOM     11  C   UNL     1       1.456   4.741   0.014  0.00  0.00    +0.047 A 
ATOM     12  C   UNL     1       0.725   3.558   0.014  0.00  0.00    +0.136 A 
ATOM     13  O   UNL     1       1.075   2.257   0.004  0.00  0.00    -0.450 OA
BRANCH   6  14
ATOM     14  C   UNL     1      -2.567   1.749   0.022  0.00  0.00    +0.108 C 
BRANCH  14  15
ATOM     15  S   UNL     1      -3.133   1.546   1.733  0.00  0.00    -0.159 S 
ATOM     16  C   UNL     1      -4.844   0.968   1.563  0.00  0.00    +0.084 C 
ENDBRANCH  14  15
ENDBRANCH   6  14
ENDBRANCH   2   5
BRANCH   1  18
ATOM     17  C   UNL     1       1.092  -2.646   1.415  0.00  0.00    +0.036 C 
ATOM     18  C   UNL     1       1.198  -2.127  -0.020  0.00  0.00    +0.136 C 
BRANCH  18  19
ATOM     19  C   UNL     1       2.487  -2.608  -0.635  0.00  0.00    +0.128 A 
ATOM     20  N   UNL     1       2.661  -3.817  -1.234  0.00  0.00    -0.340 N 
ATOM     21  H   UNL     1       1.823  -4.527  -1.293  0.00  0.00    +0.167 HD
ATOM     22  C   UNL     1       3.970  -3.877  -1.667  0.00  0.00    +0.066 A 
ATOM     23  C   UNL     1       4.726  -4.832  -2.334  0.00  0.00    +0.028 A 
ATOM     24  C   UNL     1       6.049  -4.576  -2.623  0.00  0.00    +0.002 A 
ATOM     25  C   UNL     1       6.630  -3.371  -2.251  0.00  0.00    +0.002 A 
ATOM     26  C   UNL     1       5.902  -2.420  -1.594  0.00  0.00    +0.030 A 
ATOM     27  C   UNL     1       4.559  -2.657  -1.291  0.00  0.00    +0.089 A 
ATOM     28  N   UNL     1       3.597  -1.930  -0.666  0.00  0.00    -0.231 NA
ENDBRANCH  18  19
ENDBRANCH   1  18
TORSDOF 5
