REMARK  Name = ZINC40323298
REMARK  7 active torsions:
REMARK  status: ('A' for Active; 'I' for Inactive)
REMARK    1  A    between atoms: C_6  and  C_7
REMARK    2  A    between atoms: C_7  and  C_8
REMARK    3  A    between atoms: C_8  and  N_9
REMARK    4  A    between atoms: N_9  and  S_10
REMARK    5  A    between atoms: S_10  and  C_13
REMARK    6  A    between atoms: C_16  and  O_20
REMARK    7  A    between atoms: C_17  and  N_19
REMARK                            x       y       z     vdW  Elec       q    Type
REMARK                         _______ _______ _______ _____ _____    ______ ____
ROOT
ATOM      1  S   UNL     1      -3.919  -1.875  -2.797  0.00  0.00    +0.058 S 
ATOM      2  O   UNL     1      -5.047  -2.679  -2.479  0.00  0.00    -0.153 OA
ATOM      3  O   UNL     1      -4.044  -0.550  -3.296  0.00  0.00    -0.153 OA
ENDROOT
BRANCH   1   4
ATOM      4  C   UNL     1      -2.978  -2.773  -3.986  0.00  0.00    +0.107 A 
ATOM      5  C   UNL     1      -2.124  -2.101  -4.840  0.00  0.00    +0.032 A 
ATOM      6  C   UNL     1      -1.382  -2.801  -5.774  0.00  0.00    +0.049 A 
ATOM      7  C   UNL     1      -1.495  -4.179  -5.856  0.00  0.00    +0.137 A 
ATOM      8  C   UNL     1      -2.356  -4.857  -4.996  0.00  0.00    +0.068 A 
ATOM      9  C   UNL     1      -3.092  -4.149  -4.058  0.00  0.00    +0.055 A 
BRANCH   8  10
ATOM     10  N   UNL     1      -2.474  -6.249  -5.075  0.00  0.00    -0.355 N 
ATOM     11  H   UNL     1      -1.956  -6.744  -5.730  0.00  0.00    +0.142 HD
ATOM     12  H   UNL     1      -3.074  -6.720  -4.476  0.00  0.00    +0.142 HD
ENDBRANCH   8  10
BRANCH   7  13
ATOM     13  O   UNL     1      -0.767  -4.868  -6.775  0.00  0.00    -0.505 OA
ATOM     14  H   UNL     1       0.099  -5.156  -6.455  0.00  0.00    +0.292 HD
ENDBRANCH   7  13
ENDBRANCH   1   4
BRANCH   1  15
ATOM     15  N   UNL     1      -3.004  -1.778  -1.420  0.00  0.00    -0.190 NA
ATOM     16  H   UNL     1      -3.302  -2.217  -0.608  0.00  0.00    +0.148 HD
BRANCH  15  17
ATOM     17  C   UNL     1      -1.745  -1.028  -1.429  0.00  0.00    +0.110 C 
BRANCH  17  18
ATOM     18  C   UNL     1      -1.293  -0.775   0.011  0.00  0.00    +0.052 C 
BRANCH  18  24
ATOM     19  C   UNL     1      -0.017   1.378   0.010  0.00  0.00    +0.005 A 
ATOM     20  C   UNL     1       1.171   2.086   0.002  0.00  0.00    +0.020 A 
ATOM     21  C   UNL     1       2.378   1.410  -0.013  0.00  0.00    +0.041 A 
ATOM     22  C   UNL     1       2.396   0.027  -0.021  0.00  0.00    +0.020 A 
ATOM     23  C   UNL     1       1.208  -0.679  -0.013  0.00  0.00    +0.005 A 
ATOM     24  C   UNL     1       0.002  -0.004   0.002  0.00  0.00    -0.046 A 
ATOM     25 CL   UNL     1       3.870   2.298  -0.023  0.00  0.00    -0.084 Cl
ENDBRANCH  18  24
ENDBRANCH  17  18
ENDBRANCH  15  17
ENDBRANCH   1  15
TORSDOF 7
