REMARK  Name = ZINC36202437
REMARK  13 active torsions:
REMARK  status: ('A' for Active; 'I' for Inactive)
REMARK    1  A    between atoms: C_1  and  C_2
REMARK    2  A    between atoms: C_5  and  C_7
REMARK    3  A    between atoms: C_7  and  N_8
REMARK    4  A    between atoms: N_8  and  C_9
REMARK    5  A    between atoms: N_8  and  C_13
REMARK    6  A    between atoms: C_9  and  C_10
REMARK    7  A    between atoms: C_10  and  O_11
REMARK    8  A    between atoms: O_11  and  C_12
REMARK    9  A    between atoms: C_13  and  C_14
REMARK   10  A    between atoms: C_17  and  C_19
REMARK   11  A    between atoms: C_19  and  C_20
REMARK   12  A    between atoms: C_19  and  C_27
REMARK   13  A    between atoms: C_19  and  O_34
REMARK                            x       y       z     vdW  Elec       q    Type
REMARK                         _______ _______ _______ _____ _____    ______ ____
ROOT
ATOM      1  C   UNL     1       3.862  -4.599  -3.334  0.00  0.00    +0.089 A 
ATOM      2  C   UNL     1       4.694  -4.303  -4.348  0.00  0.00    +0.043 A 
ATOM      3  C   UNL     1       4.183  -4.945  -5.499  0.00  0.00    +0.048 A 
ATOM      4  C   UNL     1       3.068  -5.596  -5.119  0.00  0.00    +0.146 A 
ATOM      5  O   UNL     1       2.882  -5.387  -3.805  0.00  0.00    -0.463 OA
ENDROOT
BRANCH   1   6
ATOM      6  C   UNL     1       4.008  -4.132  -1.909  0.00  0.00    -0.002 C 
BRANCH   6   7
ATOM      7  N   UNL     1       3.422  -2.792  -1.770  0.00  0.00    +0.391 N 
ATOM      8  H   UNL     1       3.838  -2.171  -2.449  0.00  0.00    -0.081 HD
BRANCH   7   9
ATOM      9  C   UNL     1       1.972  -2.865  -1.998  0.00  0.00    -0.002 C 
BRANCH   9  14
ATOM     10  C   UNL     1      -0.121   1.406  -0.320  0.00  0.00    +0.086 C 
ATOM     11  C   UNL     1       0.479   0.381  -1.248  0.00  0.00    +0.102 A 
ATOM     12  C   UNL     1       0.663   0.531  -2.572  0.00  0.00    +0.044 A 
ATOM     13  C   UNL     1       1.250  -0.666  -3.042  0.00  0.00    +0.043 A 
ATOM     14  C   UNL     1       1.390  -1.476  -1.978  0.00  0.00    +0.089 A 
ATOM     15  O   UNL     1       0.926  -0.834  -0.893  0.00  0.00    -0.467 OA
ENDBRANCH   9  14
ENDBRANCH   7   9
BRANCH   7  16
ATOM     16  C   UNL     1       3.680  -2.282  -0.417  0.00  0.00    -0.049 C 
BRANCH  16  17
ATOM     17  C   UNL     1       5.182  -2.053  -0.236  0.00  0.00    +0.141 C 
BRANCH  17  18
ATOM     18  O   UNL     1       5.624  -1.048  -1.150  0.00  0.00    -0.385 OA
ATOM     19  C   UNL     1       7.020  -0.756  -1.063  0.00  0.00    +0.193 C 
ENDBRANCH  17  18
ENDBRANCH  16  17
ENDBRANCH   7  16
ENDBRANCH   6   7
ENDBRANCH   1   6
BRANCH   4  20
ATOM     20  C   UNL     1       2.182  -6.423  -6.015  0.00  0.00    +0.174 C 
BRANCH  20  21
ATOM     21  C   UNL     1       1.539  -7.521  -5.209  0.00  0.00    -0.002 A 
ATOM     22  C   UNL     1       1.830  -8.844  -5.488  0.00  0.00    +0.007 A 
ATOM     23  C   UNL     1       1.240  -9.853  -4.750  0.00  0.00    +0.003 A 
ATOM     24  C   UNL     1       0.359  -9.541  -3.731  0.00  0.00    +0.038 A 
ATOM     25  C   UNL     1       0.067  -8.217  -3.451  0.00  0.00    +0.124 A 
ATOM     26  C   UNL     1       0.663  -7.207  -4.187  0.00  0.00    +0.045 A 
ATOM     27  F   UNL     1      -0.794  -7.911  -2.456  0.00  0.00    -0.205 F 
ENDBRANCH  20  21
BRANCH  20  28
ATOM     28  C   UNL     1       1.112  -5.545  -6.611  0.00  0.00    -0.002 A 
ATOM     29  C   UNL     1       0.490  -4.587  -5.832  0.00  0.00    +0.007 A 
ATOM     30  C   UNL     1      -0.492  -3.781  -6.378  0.00  0.00    +0.003 A 
ATOM     31  C   UNL     1      -0.853  -3.933  -7.703  0.00  0.00    +0.038 A 
ATOM     32  C   UNL     1      -0.231  -4.892  -8.484  0.00  0.00    +0.124 A 
ATOM     33  C   UNL     1       0.757  -5.694  -7.938  0.00  0.00    +0.045 A 
ATOM     34  F   UNL     1      -0.584  -5.041  -9.780  0.00  0.00    -0.205 F 
ENDBRANCH  20  28
BRANCH  20  35
ATOM     35  O   UNL     1       2.966  -6.997  -7.062  0.00  0.00    -0.372 OA
ATOM     36  H   UNL     1       3.676  -7.575  -6.751  0.00  0.00    +0.212 HD
ENDBRANCH  20  35
ENDBRANCH   4  20
TORSDOF 11
