REMARK  Name = ZINC32795528
REMARK  10 active torsions:
REMARK  status: ('A' for Active; 'I' for Inactive)
REMARK    1  A    between atoms: C_1  and  C_2
REMARK    2  A    between atoms: C_2  and  C_3
REMARK    3  A    between atoms: C_3  and  C_4
REMARK    4  A    between atoms: C_4  and  C_5
REMARK    5  A    between atoms: C_8  and  N_11
REMARK    6  A    between atoms: C_13  and  C_18
REMARK    7  A    between atoms: N_20  and  C_21
REMARK    8  A    between atoms: C_21  and  C_22
REMARK    9  A    between atoms: C_25  and  S_28
REMARK   10  A    between atoms: S_28  and  N_31
REMARK                            x       y       z     vdW  Elec       q    Type
REMARK                         _______ _______ _______ _____ _____    ______ ____
ROOT
ATOM      1  C   UNL     1       4.429   6.859  -0.433  0.00  0.00    +0.218 C 
ATOM      2  O   UNL     1       3.722   7.442  -1.227  0.00  0.00    -0.275 OA
ATOM      3  N   UNL     1       5.711   7.240  -0.266  0.00  0.00    -0.311 N 
ATOM      4  H   UNL     1       6.353   6.711   0.454  0.00  0.00    +0.149 HD
ENDROOT
BRANCH   1   7
ATOM      5  N   UNL     1       2.356   3.889   0.001  0.00  0.00    -0.271 N 
ATOM      6  C   UNL     1       2.446   5.350  -0.104  0.00  0.00    +0.127 C 
ATOM      7  C   UNL     1       3.876   5.707   0.365  0.00  0.00    +0.101 C 
ATOM      8  C   UNL     1       4.642   4.400   0.057  0.00  0.00    +0.110 C 
ATOM      9  C   UNL     1       3.575   3.329   0.083  0.00  0.00    +0.221 C 
ATOM     10  O   UNL     1       3.788   2.138   0.167  0.00  0.00    -0.275 OA
BRANCH   5  14
ATOM     11  C   UNL     1      -1.220   1.750   0.017  0.00  0.00    -0.047 A 
ATOM     12  C   UNL     1      -0.013   1.076  -0.007  0.00  0.00    +0.005 A 
ATOM     13  C   UNL     1       1.174   1.782  -0.015  0.00  0.00    +0.024 A 
ATOM     14  C   UNL     1       1.155   3.170   0.008  0.00  0.00    +0.036 A 
ATOM     15  C   UNL     1      -0.059   3.844   0.038  0.00  0.00    +0.024 A 
ATOM     16  C   UNL     1      -1.243   3.132   0.045  0.00  0.00    +0.005 A 
BRANCH  11  17
ATOM     17  C   UNL     1      -2.513   0.977   0.020  0.00  0.00    +0.035 C 
BRANCH  17  18
ATOM     18  C   UNL     1      -2.934   0.692   1.463  0.00  0.00    +0.004 C 
BRANCH  18  20
ATOM     19  C   UNL     1      -4.668  -0.379   2.908  0.00  0.00    +0.004 C 
ATOM     20  C   UNL     1      -4.247  -0.094   1.465  0.00  0.00    -0.003 C 
ENDBRANCH  18  20
ENDBRANCH  17  18
ENDBRANCH  11  17
ENDBRANCH   5  14
ENDBRANCH   1   7
BRANCH   3  21
ATOM     21  C   UNL     1       6.250   8.360  -1.042  0.00  0.00    +0.139 C 
BRANCH  21  22
ATOM     22  C   UNL     1       7.693   8.582  -0.670  0.00  0.00    -0.030 A 
ATOM     23  C   UNL     1       8.016   9.447   0.358  0.00  0.00    +0.007 A 
ATOM     24  C   UNL     1       9.340   9.647   0.703  0.00  0.00    +0.029 A 
ATOM     25  C   UNL     1      10.341   8.988   0.014  0.00  0.00    +0.105 A 
ATOM     26  C   UNL     1      10.018   8.126  -1.018  0.00  0.00    +0.029 A 
ATOM     27  C   UNL     1       8.694   7.923  -1.360  0.00  0.00    +0.007 A 
BRANCH  25  28
ATOM     28  S   UNL     1      12.028   9.246   0.450  0.00  0.00    +0.056 S 
ATOM     29  O   UNL     1      12.036   9.679   1.803  0.00  0.00    -0.153 OA
ATOM     30  O   UNL     1      12.741   8.097   0.014  0.00  0.00    -0.153 OA
BRANCH  28  31
ATOM     31  N   UNL     1      12.580  10.517  -0.457  0.00  0.00    -0.204 NA
ATOM     32  H   UNL     1      13.635  10.711  -0.213  0.00  0.00    +0.144 HD
ATOM     33  H   UNL     1      11.981  11.413  -0.234  0.00  0.00    +0.144 HD
ENDBRANCH  28  31
ENDBRANCH  25  28
ENDBRANCH  21  22
ENDBRANCH   3  21
TORSDOF 9
