REMARK  Name = ZINC67624357
REMARK  8 active torsions:
REMARK  status: ('A' for Active; 'I' for Inactive)
REMARK    1  A    between atoms: C_1  and  C_2
REMARK    2  A    between atoms: C_2  and  C_4
REMARK    3  A    between atoms: C_2  and  N_11
REMARK    4  A    between atoms: C_8  and  O_10
REMARK    5  A    between atoms: N_11  and  C_12
REMARK    6  A    between atoms: N_15  and  C_16
REMARK    7  A    between atoms: C_16  and  C_18
REMARK    8  A    between atoms: C_16  and  C_23
REMARK                            x       y       z     vdW  Elec       q    Type
REMARK                         _______ _______ _______ _____ _____    ______ ____
ROOT
ATOM      1  N   UNL     1       0.653  -0.457   1.310  0.00  0.00    -0.282 N 
ATOM      2  C   UNL     1       1.947   0.067   1.754  0.00  0.00    +0.134 C 
ATOM      3  C   UNL     1      -0.007  -1.354   2.069  0.00  0.00    +0.303 C 
ATOM      4  O   UNL     1      -1.081  -1.789   1.701  0.00  0.00    -0.253 OA
ATOM      5  N   UNL     1       0.524  -1.771   3.236  0.00  0.00    -0.292 N 
ATOM      6  H   UNL     1       1.381  -1.424   3.529  0.00  0.00    +0.151 HD
ENDROOT
BRANCH   1   8
ATOM      7  C   UNL     1      -0.018   1.523   0.040  0.00  0.00    +0.033 C 
ATOM      8  C   UNL     1       0.075  -0.004   0.042  0.00  0.00    +0.104 C 
BRANCH   8   9
ATOM      9  C   UNL     1       0.951  -0.456  -1.098  0.00  0.00    -0.024 A 
ATOM     10  C   UNL     1       1.679  -1.626  -0.989  0.00  0.00    +0.006 A 
ATOM     11  C   UNL     1       2.484  -2.043  -2.033  0.00  0.00    +0.004 A 
ATOM     12  C   UNL     1       2.563  -1.290  -3.188  0.00  0.00    +0.045 A 
ATOM     13  C   UNL     1       1.833  -0.115  -3.301  0.00  0.00    +0.117 A 
ATOM     14  C   UNL     1       1.022   0.298  -2.254  0.00  0.00    +0.050 A 
BRANCH  13  15
ATOM     15  O   UNL     1       1.909   0.627  -4.437  0.00  0.00    -0.507 OA
ATOM     16  H   UNL     1       1.254   0.389  -5.107  0.00  0.00    +0.292 HD
ENDBRANCH  13  15
ENDBRANCH   8   9
ENDBRANCH   1   8
BRANCH   5  17
ATOM     17  C   UNL     1      -0.193  -2.747   4.060  0.00  0.00    +0.114 C 
BRANCH  17  18
ATOM     18  C   UNL     1      -1.188  -2.030   4.936  0.00  0.00    +0.010 A 
ATOM     19  C   UNL     1      -2.450  -2.395   5.269  0.00  0.00    +0.013 A 
ATOM     20  C   UNL     1      -3.189  -1.571   6.097  0.00  0.00    +0.008 A 
ATOM     21  C   UNL     1      -2.631  -0.423   6.552  0.00  0.00    +0.045 A 
ATOM     22  S   UNL     1      -1.008  -0.483   5.809  0.00  0.00    -0.100 S 
ENDBRANCH  17  18
BRANCH  17  23
ATOM     23  C   UNL     1       0.806  -3.504   4.938  0.00  0.00    +0.014 C 
ATOM     24  C   UNL     1       1.606  -2.511   5.806  0.00  0.00    +0.006 C 
ATOM     25  C   UNL     1       3.033  -3.112   5.852  0.00  0.00    +0.000 C 
ATOM     26  C   UNL     1       3.216  -3.671   4.419  0.00  0.00    +0.000 C 
ATOM     27  C   UNL     1       1.829  -4.241   4.056  0.00  0.00    +0.006 C 
ENDBRANCH  17  23
ENDBRANCH   5  17
TORSDOF 6
