REMARK  Name = ZINC36815533
REMARK  9 active torsions:
REMARK  status: ('A' for Active; 'I' for Inactive)
REMARK    1  A    between atoms: C_1  and  C_2
REMARK    2  A    between atoms: C_2  and  C_3
REMARK    3  A    between atoms: C_3  and  C_4
REMARK    4  A    between atoms: C_4  and  C_5
REMARK    5  A    between atoms: C_5  and  O_6
REMARK    6  A    between atoms: O_6  and  C_7
REMARK    7  A    between atoms: C_8  and  O_16
REMARK    8  A    between atoms: C_10  and  C_14
REMARK    9  A    between atoms: O_16  and  C_17
REMARK                            x       y       z     vdW  Elec       q    Type
REMARK                         _______ _______ _______ _____ _____    ______ ____
ROOT
ATOM      1  C   UNL     1      -4.032  -4.656   0.016  0.00  0.00    +0.176 A 
ATOM      2  C   UNL     1      -4.640  -4.982   1.224  0.00  0.00    +0.163 A 
ATOM      3  C   UNL     1      -5.866  -5.628   1.227  0.00  0.00    +0.054 A 
ATOM      4  C   UNL     1      -6.483  -5.947   0.031  0.00  0.00    -0.032 A 
ATOM      5  C   UNL     1      -5.879  -5.623  -1.169  0.00  0.00    +0.023 A 
ATOM      6  C   UNL     1      -4.658  -4.973  -1.180  0.00  0.00    +0.063 A 
ATOM      7 BR   UNL     1      -3.839  -4.525  -2.824  0.00  0.00    -0.046 Br
ENDROOT
BRANCH   4   8
ATOM      8  C   UNL     1      -7.816  -6.649   0.037  0.00  0.00    +0.115 C 
ATOM      9 BR   UNL     1      -9.260  -5.315   0.048  0.00  0.00    -0.087 Br
ENDBRANCH   4   8
BRANCH   2  10
ATOM     10  O   UNL     1      -4.032  -4.668   2.399  0.00  0.00    -0.491 OA
ATOM     11  C   UNL     1      -4.715  -5.034   3.600  0.00  0.00    +0.277 C 
ENDBRANCH   2  10
BRANCH   1  12
ATOM     12  O   UNL     1      -2.829  -4.022   0.007  0.00  0.00    -0.487 OA
BRANCH  12  13
ATOM     13  C   UNL     1      -2.848  -2.593   0.015  0.00  0.00    +0.229 C 
BRANCH  13  14
ATOM     14  C   UNL     1      -1.413  -2.063   0.004  0.00  0.00    +0.041 C 
BRANCH  14  15
ATOM     15  C   UNL     1      -1.433  -0.534   0.013  0.00  0.00    +0.003 C 
BRANCH  15  17
ATOM     16  C   UNL     1      -0.019   1.526   0.010  0.00  0.00    +0.004 C 
ATOM     17  C   UNL     1       0.002  -0.004   0.002  0.00  0.00    -0.003 C 
ENDBRANCH  15  17
ENDBRANCH  14  15
ENDBRANCH  13  14
ENDBRANCH  12  13
ENDBRANCH   1  12
TORSDOF 7
