REMARK  Name = ZINC07840040
REMARK  7 active torsions:
REMARK  status: ('A' for Active; 'I' for Inactive)
REMARK    1  A    between atoms: C_1  and  C_2
REMARK    2  A    between atoms: C_5  and  O_27
REMARK    3  A    between atoms: C_6  and  C_8
REMARK    4  A    between atoms: C_8  and  O_10
REMARK    5  A    between atoms: O_10  and  C_11
REMARK    6  A    between atoms: C_11  and  C_13
REMARK    7  A    between atoms: C_11  and  C_14
REMARK                            x       y       z     vdW  Elec       q    Type
REMARK                         _______ _______ _______ _____ _____    ______ ____
ROOT
ATOM      1  C   UNL     1      -2.397   1.061   0.019  0.00  0.00    +0.259 C 
ATOM      2  C   UNL     1      -2.814   0.770   1.462  0.00  0.00    +0.062 C 
ENDROOT
BRANCH   1   3
ATOM      3  C   UNL     1      -3.502   1.809  -0.682  0.00  0.00    +0.261 C 
ATOM      4  O   UNL     1      -3.293   2.913  -1.138  0.00  0.00    -0.271 OA
ATOM      5  N   UNL     1      -4.723   1.250  -0.802  0.00  0.00    -0.258 N 
ATOM      6  C   UNL     1      -5.002  -0.087  -0.258  0.00  0.00    +0.209 C 
ATOM      7  C   UNL     1      -5.835  -0.858  -1.251  0.00  0.00    +0.235 C 
ATOM      8  O   UNL     1      -5.748  -2.067  -1.294  0.00  0.00    -0.274 OA
ATOM      9  N   UNL     1      -6.672  -0.221  -2.091  0.00  0.00    -0.283 N 
ATOM     10  C   UNL     1      -6.753   1.176  -2.096  0.00  0.00    +0.055 A 
ATOM     11  C   UNL     1      -5.770   1.928  -1.446  0.00  0.00    +0.058 A 
ATOM     12  C   UNL     1      -5.832   3.308  -1.454  0.00  0.00    +0.025 A 
ATOM     13  C   UNL     1      -6.878   3.945  -2.098  0.00  0.00    +0.002 A 
ATOM     14  C   UNL     1      -7.857   3.204  -2.735  0.00  0.00    +0.002 A 
ATOM     15  C   UNL     1      -7.798   1.823  -2.737  0.00  0.00    +0.025 A 
ATOM     16  H   UNL     1      -7.226  -0.736  -2.698  0.00  0.00    +0.155 HD
ENDBRANCH   1   3
BRANCH   1  17
ATOM     17  O   UNL     1      -1.190   1.869   0.018  0.00  0.00    -0.449 OA
BRANCH  17  18
ATOM     18  C   UNL     1      -0.014   1.211   0.009  0.00  0.00    +0.343 C 
ATOM     19  O   UNL     1       0.002  -0.004   0.002  0.00  0.00    -0.245 OA
BRANCH  18  25
ATOM     20  C   UNL     1       2.408   5.569   0.007  0.00  0.00    +0.044 C 
ATOM     21  C   UNL     1       2.425   4.062  -0.000  0.00  0.00    -0.049 A 
ATOM     22  C   UNL     1       3.634   3.385  -0.015  0.00  0.00    +0.007 A 
ATOM     23  C   UNL     1       3.663   2.005  -0.022  0.00  0.00    +0.046 A 
ATOM     24  C   UNL     1       2.478   1.285  -0.015  0.00  0.00    +0.131 A 
ATOM     25  C   UNL     1       1.252   1.965   0.001  0.00  0.00    +0.101 A 
ATOM     26  C   UNL     1       1.238   3.363   0.003  0.00  0.00    +0.022 A 
BRANCH  24  27
ATOM     27  O   UNL     1       2.505  -0.071  -0.023  0.00  0.00    -0.506 OA
ATOM     28  H   UNL     1       2.504  -0.459  -0.908  0.00  0.00    +0.292 HD
ENDBRANCH  24  27
ENDBRANCH  18  25
ENDBRANCH  17  18
ENDBRANCH   1  17
TORSDOF 5
