REMARK  Name = ZINC15015489
REMARK  4 active torsions:
REMARK  status: ('A' for Active; 'I' for Inactive)
REMARK    1  A    between atoms: C_1  and  C_2
REMARK    2  A    between atoms: C_2  and  C_10
REMARK    3  A    between atoms: C_3  and  C_4
REMARK    4  A    between atoms: N_11  and  N_12
REMARK                            x       y       z     vdW  Elec       q    Type
REMARK                         _______ _______ _______ _____ _____    ______ ____
ROOT
ATOM      1  N   UNL     1       6.007   6.154  -0.939  0.00  0.00    -0.204 N 
ATOM      2  C   UNL     1       5.979   7.512  -1.205  0.00  0.00    +0.256 A 
ATOM      3  N   UNL     1       7.113   8.146  -1.472  0.00  0.00    -0.192 NA
ATOM      4  C   UNL     1       7.085   9.450  -1.727  0.00  0.00    +0.163 A 
ATOM      5  C   UNL     1       5.838  10.110  -1.702  0.00  0.00    +0.137 A 
ATOM      6  C   UNL     1       6.111  11.523  -2.017  0.00  0.00    +0.029 A 
ATOM      7  C   UNL     1       5.304  12.652  -2.140  0.00  0.00    +0.012 A 
ATOM      8  C   UNL     1       5.872  13.868  -2.452  0.00  0.00    +0.001 A 
ATOM      9  C   UNL     1       7.242  13.970  -2.643  0.00  0.00    +0.002 A 
ATOM     10  C   UNL     1       8.051  12.861  -2.525  0.00  0.00    +0.026 A 
ATOM     11  C   UNL     1       7.497  11.624  -2.210  0.00  0.00    +0.050 A 
ATOM     12  N   UNL     1       8.057  10.370  -2.031  0.00  0.00    -0.338 N 
ATOM     13  H   UNL     1       9.003  10.170  -2.110  0.00  0.00    +0.167 HD
ATOM     14  N   UNL     1       4.741   9.419  -1.429  0.00  0.00    -0.142 NA
ATOM     15  N   UNL     1       4.816   8.154  -1.192  0.00  0.00    -0.111 NA
ATOM     16  H   UNL     1       6.851   5.675  -0.949  0.00  0.00    +0.177 HD
ENDROOT
BRANCH   1  18
ATOM     17  C   UNL     1       4.844   4.192  -0.404  0.00  0.00    +0.133 C 
ATOM     18  N   UNL     1       4.817   5.471  -0.654  0.00  0.00    -0.188 NA
BRANCH  17  20
ATOM     19  C   UNL     1       2.330   4.245  -0.100  0.00  0.00    +0.045 C 
ATOM     20  C   UNL     1       3.640   3.501  -0.117  0.00  0.00    -0.030 C 
ATOM     21  C   UNL     1       3.667   2.178   0.142  0.00  0.00    +0.012 C 
BRANCH  21  22
ATOM     22  C   UNL     1       2.446   1.490   0.592  0.00  0.00    -0.025 A 
ATOM     23  C   UNL     1       2.176   0.186   0.165  0.00  0.00    +0.008 A 
ATOM     24  C   UNL     1       1.030  -0.451   0.592  0.00  0.00    +0.001 A 
ATOM     25  C   UNL     1       0.148   0.196   1.440  0.00  0.00    +0.000 A 
ATOM     26  C   UNL     1       0.408   1.487   1.866  0.00  0.00    +0.001 A 
ATOM     27  C   UNL     1       1.550   2.138   1.449  0.00  0.00    +0.008 A 
ENDBRANCH  21  22
ENDBRANCH  17  20
ENDBRANCH   1  18
TORSDOF 3
