REMARK  Name = ZINC03358407
REMARK  16 active torsions:
REMARK  status: ('A' for Active; 'I' for Inactive)
REMARK    1  A    between atoms: C_1  and  C_2
REMARK    2  A    between atoms: C_2  and  O_3
REMARK    3  A    between atoms: O_3  and  C_4
REMARK    4  A    between atoms: C_6  and  C_11
REMARK    5  A    between atoms: C_9  and  O_10
REMARK    6  A    between atoms: N_15  and  C_29
REMARK    7  A    between atoms: C_16  and  S_18
REMARK    8  A    between atoms: S_18  and  C_19
REMARK    9  A    between atoms: C_19  and  C_20
REMARK   10  A    between atoms: N_22  and  C_23
REMARK   11  A    between atoms: C_23  and  C_25
REMARK   12  A    between atoms: C_23  and  C_26
REMARK   13  A    between atoms: C_26  and  C_27
REMARK   14  A    between atoms: C_26  and  C_28
REMARK   15  A    between atoms: C_32  and  O_35
REMARK   16  A    between atoms: O_35  and  C_36
REMARK                            x       y       z     vdW  Elec       q    Type
REMARK                         _______ _______ _______ _____ _____    ______ ____
ROOT
ATOM      1  C   UNL     1      -0.204  -4.958  -0.491  0.00  0.00    +0.041 C 
ATOM      2  C   UNL     1       0.003  -6.315  -0.395  0.00  0.00    +0.129 C 
ATOM      3  C   UNL     1      -0.407  -7.347  -1.365  0.00  0.00    +0.275 C 
ATOM      4  O   UNL     1      -0.997  -7.177  -2.417  0.00  0.00    -0.268 OA
ATOM      5  N   UNL     1       0.010  -8.520  -0.842  0.00  0.00    -0.214 N 
ATOM      6  C   UNL     1       0.632  -8.263   0.356  0.00  0.00    +0.169 C 
ATOM      7  N   UNL     1       0.635  -6.982   0.617  0.00  0.00    -0.220 NA
ENDROOT
BRANCH   1  10
ATOM      8  C   UNL     1       0.822  -1.824   1.290  0.00  0.00    +0.162 A 
ATOM      9  C   UNL     1       0.275  -2.668   0.344  0.00  0.00    +0.057 A 
ATOM     10  C   UNL     1       0.375  -4.056   0.508  0.00  0.00    -0.019 A 
ATOM     11  C   UNL     1       1.030  -4.579   1.632  0.00  0.00    +0.012 A 
ATOM     12  C   UNL     1       1.572  -3.728   2.569  0.00  0.00    +0.050 A 
ATOM     13  C   UNL     1       1.477  -2.352   2.402  0.00  0.00    +0.158 A 
BRANCH  13  14
ATOM     14  O   UNL     1       2.020  -1.519   3.328  0.00  0.00    -0.503 OA
ATOM     15  H   UNL     1       1.415  -1.279   4.043  0.00  0.00    +0.292 HD
ENDBRANCH  13  14
BRANCH   8  16
ATOM     16  O   UNL     1       0.728  -0.476   1.134  0.00  0.00    -0.489 OA
BRANCH  16  18
ATOM     17  C   UNL     1       0.038   1.526  -0.030  0.00  0.00    +0.048 C 
ATOM     18  C   UNL     1       0.043  -0.004  -0.028  0.00  0.00    +0.226 C 
ENDBRANCH  16  18
ENDBRANCH   8  16
ENDBRANCH   1  10
BRANCH   5  19
ATOM     19  C   UNL     1      -0.162  -9.786  -1.423  0.00  0.00    +0.044 A 
ATOM     20  C   UNL     1      -0.972 -10.729  -0.805  0.00  0.00    +0.027 A 
ATOM     21  C   UNL     1      -1.141 -11.974  -1.377  0.00  0.00    +0.048 A 
ATOM     22  C   UNL     1      -0.501 -12.284  -2.568  0.00  0.00    +0.127 A 
ATOM     23  C   UNL     1       0.309 -11.342  -3.185  0.00  0.00    +0.048 A 
ATOM     24  C   UNL     1       0.474 -10.094  -2.618  0.00  0.00    +0.027 A 
BRANCH  22  25
ATOM     25  O   UNL     1      -0.667 -13.511  -3.130  0.00  0.00    -0.434 OA
BRANCH  25  26
ATOM     26  C   UNL     1       0.021 -13.761  -4.357  0.00  0.00    +0.541 C 
ATOM     27  F   UNL     1      -0.401 -12.843  -5.324  0.00  0.00    -0.166 F 
ATOM     28  F   UNL     1       1.399 -13.624  -4.154  0.00  0.00    -0.166 F 
ENDBRANCH  25  26
ENDBRANCH  22  25
ENDBRANCH   5  19
BRANCH   6  29
ATOM     29  S   UNL     1       1.337  -9.495   1.399  0.00  0.00    -0.080 S 
BRANCH  29  30
ATOM     30  C   UNL     1       1.994  -8.556   2.805  0.00  0.00    +0.172 C 
BRANCH  30  31
ATOM     31  C   UNL     1       2.634  -9.504   3.787  0.00  0.00    +0.224 C 
ATOM     32  O   UNL     1       2.646 -10.695   3.560  0.00  0.00    -0.275 OA
ATOM     33  N   UNL     1       3.194  -9.027   4.917  0.00  0.00    -0.312 N 
ATOM     34  H   UNL     1       3.184  -8.075   5.098  0.00  0.00    +0.149 HD
BRANCH  33  35
ATOM     35  C   UNL     1       3.816  -9.949   5.871  0.00  0.00    +0.072 C 
ATOM     36  C   UNL     1       2.746 -10.508   6.811  0.00  0.00    +0.028 C 
BRANCH  35  37
ATOM     37  C   UNL     1       4.872  -9.201   6.688  0.00  0.00    +0.003 C 
ATOM     38  C   UNL     1       4.191  -8.130   7.543  0.00  0.00    +0.009 C 
ATOM     39  C   UNL     1       5.607 -10.188   7.596  0.00  0.00    +0.009 C 
ENDBRANCH  35  37
ENDBRANCH  33  35
ENDBRANCH  30  31
ENDBRANCH  29  30
ENDBRANCH   6  29
TORSDOF 12
