REMARK  Name = ZINC32479799
REMARK  9 active torsions:
REMARK  status: ('A' for Active; 'I' for Inactive)
REMARK    1  A    between atoms: C_1  and  C_2
REMARK    2  A    between atoms: C_5  and  S_14
REMARK    3  A    between atoms: N_6  and  C_7
REMARK    4  A    between atoms: C_7  and  C_8
REMARK    5  A    between atoms: S_14  and  C_15
REMARK    6  A    between atoms: C_15  and  C_16
REMARK    7  A    between atoms: N_18  and  C_19
REMARK    8  A    between atoms: C_23  and  S_25
REMARK    9  A    between atoms: S_25  and  N_28
REMARK                            x       y       z     vdW  Elec       q    Type
REMARK                         _______ _______ _______ _____ _____    ______ ____
ROOT
ATOM      1  C   UNL     1       0.097  -6.239   0.999  0.00  0.00    +0.227 C 
ATOM      2  O   UNL     1       0.111  -6.300   2.211  0.00  0.00    -0.275 OA
ATOM      3  N   UNL     1       0.108  -7.370   0.267  0.00  0.00    -0.285 N 
ATOM      4  H   UNL     1       0.029  -7.324  -0.698  0.00  0.00    +0.155 HD
ENDROOT
BRANCH   3   5
ATOM      5  C   UNL     1       0.234  -8.612   0.901  0.00  0.00    +0.035 A 
ATOM      6  C   UNL     1       0.948  -9.635   0.290  0.00  0.00    +0.023 A 
ATOM      7  C   UNL     1       1.070 -10.859   0.918  0.00  0.00    +0.004 A 
ATOM      8  C   UNL     1       0.483 -11.067   2.152  0.00  0.00    +0.029 A 
ATOM      9  C   UNL     1      -0.228 -10.050   2.763  0.00  0.00    +0.114 A 
ATOM     10  C   UNL     1      -0.349  -8.821   2.143  0.00  0.00    +0.052 A 
BRANCH   9  11
ATOM     11  S   UNL     1      -0.975 -10.320   4.335  0.00  0.00    +0.100 S 
ATOM     12  O   UNL     1      -2.043  -9.388   4.443  0.00  0.00    -0.146 OA
ATOM     13  O   UNL     1      -1.172 -11.722   4.457  0.00  0.00    -0.146 OA
BRANCH  11  14
ATOM     14  N   UNL     1       0.139  -9.898   5.486  0.00  0.00    -0.118 NA
ATOM     15  C   UNL     1      -0.156 -10.001   6.740  0.00  0.00    +0.117 C 
ATOM     16  N   UNL     1      -1.351 -10.450   7.237  0.00  0.00    -0.331 N 
ATOM     17  C   UNL     1      -1.163 -10.887   8.630  0.00  0.00    +0.103 C 
ATOM     18  C   UNL     1      -0.025  -9.989   9.166  0.00  0.00    +0.026 C 
ATOM     19  C   UNL     1       0.768  -9.650   7.886  0.00  0.00    +0.074 C 
ATOM     20  H   UNL     1      -2.188 -10.476   6.748  0.00  0.00    +0.147 HD
ENDBRANCH  11  14
ENDBRANCH   9  11
ENDBRANCH   3   5
BRANCH   1  21
ATOM     21  C   UNL     1       0.066  -4.898   0.313  0.00  0.00    +0.173 C 
BRANCH  21  22
ATOM     22  S   UNL     1       0.057  -3.580   1.559  0.00  0.00    -0.077 S 
BRANCH  22  27
ATOM     23  C   UNL     1      -0.046   1.502   0.009  0.00  0.00    +0.088 C 
ATOM     24  C   UNL     1      -0.021  -0.004   0.001  0.00  0.00    +0.131 A 
ATOM     25  N   UNL     1      -0.020  -0.771  -1.052  0.00  0.00    -0.134 NA
ATOM     26  N   UNL     1       0.005  -2.006  -0.699  0.00  0.00    -0.122 NA
ATOM     27  C   UNL     1       0.021  -2.096   0.611  0.00  0.00    +0.192 A 
ATOM     28  N   UNL     1       0.010  -0.820   1.098  0.00  0.00    -0.302 N 
BRANCH  28  29
ATOM     29  C   UNL     1       0.026  -0.411   2.505  0.00  0.00    +0.160 C 
BRANCH  29  30
ATOM     30  C   UNL     1      -1.389  -0.295   3.010  0.00  0.00    -0.028 A 
ATOM     31  C   UNL     1      -2.065   0.906   2.902  0.00  0.00    +0.005 A 
ATOM     32  C   UNL     1      -3.363   1.012   3.365  0.00  0.00    +0.000 A 
ATOM     33  C   UNL     1      -3.986  -0.082   3.936  0.00  0.00    +0.000 A 
ATOM     34  C   UNL     1      -3.310  -1.283   4.043  0.00  0.00    +0.000 A 
ATOM     35  C   UNL     1      -2.013  -1.391   3.576  0.00  0.00    +0.005 A 
ENDBRANCH  29  30
ENDBRANCH  28  29
ENDBRANCH  22  27
ENDBRANCH  21  22
ENDBRANCH   1  21
TORSDOF 8
