REMARK  Name = ZINC20764574
REMARK  8 active torsions:
REMARK  status: ('A' for Active; 'I' for Inactive)
REMARK    1  A    between atoms: C_1  and  O_2
REMARK    2  A    between atoms: O_2  and  C_3
REMARK    3  A    between atoms: C_6  and  C_9
REMARK    4  A    between atoms: C_11  and  C_25
REMARK    5  A    between atoms: C_14  and  C_17
REMARK    6  A    between atoms: C_22  and  O_23
REMARK    7  A    between atoms: C_30  and  O_31
REMARK    8  A    between atoms: O_31  and  C_32
REMARK                            x       y       z     vdW  Elec       q    Type
REMARK                         _______ _______ _______ _____ _____    ______ ____
ROOT
ATOM      1  C   UNL     1      -1.066   3.481  -1.054  0.00  0.00    +0.047 C 
ATOM      2  N   UNL     1      -0.989   4.086   0.072  0.00  0.00    -0.264 NA
ATOM      3  C   UNL     1      -0.599   3.442   1.321  0.00  0.00    +0.207 C 
ATOM      4  N   UNL     1      -0.720   1.984   1.213  0.00  0.00    -0.284 NA
ATOM      5  C   UNL     1      -0.018   1.503   0.010  0.00  0.00    +0.095 C 
ATOM      6  C   UNL     1      -0.771   2.016  -1.221  0.00  0.00    +0.079 C 
ATOM      7  H   UNL     1      -0.275   1.512   2.102  0.00  0.00    +0.125 HD
ENDROOT
BRANCH   5   8
ATOM      8  C   UNL     1       0.002  -0.004   0.002  0.00  0.00    +0.013 A 
ATOM      9  C   UNL     1      -0.959  -0.712   0.698  0.00  0.00    +0.028 A 
ATOM     10  C   UNL     1      -0.944  -2.096   0.686  0.00  0.00    +0.042 A 
ATOM     11  C   UNL     1       0.040  -2.773  -0.013  0.00  0.00    +0.023 A 
ATOM     12  C   UNL     1       1.005  -2.068  -0.706  0.00  0.00    +0.047 A 
ATOM     13  C   UNL     1       0.989  -0.681  -0.700  0.00  0.00    +0.122 A 
ATOM     14 CL   UNL     1      -2.156  -2.983   1.555  0.00  0.00    -0.084 Cl
BRANCH  13  15
ATOM     15  O   UNL     1       1.937   0.014  -1.381  0.00  0.00    -0.506 OA
ATOM     16  H   UNL     1       2.719  -0.523  -1.938  0.00  0.00    +0.292 HD
ENDBRANCH  13  15
ENDBRANCH   5   8
BRANCH   3  17
ATOM     17  C   UNL     1      -1.492   3.933   2.432  0.00  0.00    +0.034 A 
ATOM     18  C   UNL     1      -1.866   3.076   3.449  0.00  0.00    +0.026 A 
ATOM     19  C   UNL     1      -2.680   3.527   4.471  0.00  0.00    +0.018 A 
ATOM     20  C   UNL     1      -3.132   4.835   4.472  0.00  0.00    +0.019 A 
ATOM     21  C   UNL     1      -2.765   5.694   3.455  0.00  0.00    +0.047 A 
ATOM     22  C   UNL     1      -1.944   5.245   2.431  0.00  0.00    +0.127 A 
ATOM     23 BR   UNL     1      -3.183   2.354   5.866  0.00  0.00    -0.050 Br
BRANCH  22  24
ATOM     24  O   UNL     1      -1.581   6.088   1.429  0.00  0.00    -0.495 OA
ATOM     25  C   UNL     1      -2.084   7.425   1.493  0.00  0.00    +0.277 C 
ENDBRANCH  22  24
ENDBRANCH   3  17
BRANCH   1  29
ATOM     26  C   UNL     1      -2.208   5.718  -4.476  0.00  0.00    +0.120 A 
ATOM     27  C   UNL     1      -2.114   6.344  -3.239  0.00  0.00    +0.046 A 
ATOM     28  C   UNL     1      -1.744   5.622  -2.126  0.00  0.00    +0.013 A 
ATOM     29  C   UNL     1      -1.463   4.258  -2.242  0.00  0.00    -0.004 A 
ATOM     30  C   UNL     1      -1.553   3.634  -3.490  0.00  0.00    +0.013 A 
ATOM     31  C   UNL     1      -1.929   4.362  -4.596  0.00  0.00    +0.046 A 
BRANCH  26  33
ATOM     32  C   UNL     1      -2.650   5.728  -6.811  0.00  0.00    +0.277 C 
ATOM     33  O   UNL     1      -2.574   6.433  -5.571  0.00  0.00    -0.495 OA
ENDBRANCH  26  33
ENDBRANCH   1  29
TORSDOF 6
