REMARK  Name = ZINC08451155
REMARK  9 active torsions:
REMARK  status: ('A' for Active; 'I' for Inactive)
REMARK    1  A    between atoms: C_1  and  O_2
REMARK    2  A    between atoms: O_2  and  C_3
REMARK    3  A    between atoms: C_6  and  C_9
REMARK    4  A    between atoms: C_11  and  C_32
REMARK    5  A    between atoms: C_12  and  C_30
REMARK    6  A    between atoms: C_13  and  S_15
REMARK    7  A    between atoms: S_15  and  C_16
REMARK    8  A    between atoms: C_16  and  C_17
REMARK    9  A    between atoms: N_19  and  C_20
REMARK                            x       y       z     vdW  Elec       q    Type
REMARK                         _______ _______ _______ _____ _____    ______ ____
ROOT
ATOM      1  C   UNL     1       1.104   2.031   0.002  0.00  0.00    +0.073 A 
ATOM      2  C   UNL     1       2.353   1.407  -0.013  0.00  0.00    +0.042 A 
ATOM      3  C   UNL     1       2.421   0.028  -0.021  0.00  0.00    +0.077 A 
ATOM      4  C   UNL     1       1.224  -0.701  -0.014  0.00  0.00    +0.095 A 
ATOM      5  C   UNL     1       0.002  -0.004   0.002  0.00  0.00    +0.116 A 
ATOM      6  N   UNL     1      -0.016   1.319   0.009  0.00  0.00    -0.239 NA
ENDROOT
BRANCH   1  10
ATOM      7  C   UNL     1       0.887   6.277   0.027  0.00  0.00    +0.120 A 
ATOM      8  C   UNL     1      -0.280   5.523   0.034  0.00  0.00    +0.046 A 
ATOM      9  C   UNL     1      -0.213   4.146   0.026  0.00  0.00    +0.013 A 
ATOM     10  C   UNL     1       1.029   3.510   0.011  0.00  0.00    +0.001 A 
ATOM     11  C   UNL     1       2.199   4.270   0.010  0.00  0.00    +0.013 A 
ATOM     12  C   UNL     1       2.124   5.646   0.012  0.00  0.00    +0.046 A 
BRANCH   7  14
ATOM     13  C   UNL     1       2.056   8.346   0.028  0.00  0.00    +0.277 C 
ATOM     14  O   UNL     1       0.817   7.633   0.036  0.00  0.00    -0.495 OA
ENDBRANCH   7  14
ENDBRANCH   1  10
BRANCH   3  15
ATOM     15  C   UNL     1       3.753  -0.677  -0.039  0.00  0.00    +0.419 C 
ATOM     16  F   UNL     1       4.783   0.270  -0.043  0.00  0.00    -0.166 F 
ATOM     17  F   UNL     1       3.868  -1.485   1.097  0.00  0.00    -0.166 F 
ATOM     18  F   UNL     1       3.845  -1.471  -1.187  0.00  0.00    -0.166 F 
ENDBRANCH   3  15
BRANCH   4  19
ATOM     19  C   UNL     1       1.245  -2.133  -0.022  0.00  0.00    +0.102 C 
ATOM     20  N   UNL     1       1.262  -3.268  -0.028  0.00  0.00    -0.191 NA
ENDBRANCH   4  19
BRANCH   5  21
ATOM     21  S   UNL     1      -1.515  -0.900   0.012  0.00  0.00    -0.095 S 
BRANCH  21  22
ATOM     22  C   UNL     1      -2.692   0.476   0.030  0.00  0.00    +0.171 C 
BRANCH  22  23
ATOM     23  C   UNL     1      -4.098  -0.066   0.041  0.00  0.00    +0.224 C 
ATOM     24  O   UNL     1      -4.286  -1.264   0.036  0.00  0.00    -0.275 OA
ATOM     25  N   UNL     1      -5.146   0.780   0.055  0.00  0.00    -0.309 N 
ATOM     26  H   UNL     1      -4.996   1.739   0.059  0.00  0.00    +0.149 HD
BRANCH  25  27
ATOM     27  C   UNL     1      -6.513   0.254   0.066  0.00  0.00    +0.035 C 
ATOM     28  C   UNL     1      -6.742  -0.596  -1.186  0.00  0.00    +0.029 C 
ATOM     29  C   UNL     1      -8.169  -1.146  -1.175  0.00  0.00    -0.008 C 
ATOM     30  C   UNL     1      -9.164   0.016  -1.160  0.00  0.00    +0.007 C 
ATOM     31  C   UNL     1      -8.936   0.866   0.092  0.00  0.00    -0.008 C 
ATOM     32  C   UNL     1      -7.508   1.416   0.081  0.00  0.00    +0.029 C 
ATOM     33  C   UNL     1      -9.140   0.003   1.339  0.00  0.00    +0.007 C 
ATOM     34  C   UNL     1      -8.146  -1.160   1.323  0.00  0.00    -0.008 C 
ATOM     35  C   UNL     1      -8.374  -2.010   0.071  0.00  0.00    +0.007 C 
ATOM     36  C   UNL     1      -6.718  -0.610   1.312  0.00  0.00    +0.029 C 
ENDBRANCH  25  27
ENDBRANCH  22  23
ENDBRANCH  21  22
ENDBRANCH   5  21
TORSDOF 8
