REMARK  Name = ZINC02708624
REMARK  5 active torsions:
REMARK  status: ('A' for Active; 'I' for Inactive)
REMARK    1  A    between atoms: C_11  and  N_21
REMARK    2  A    between atoms: C_13  and  S_15
REMARK    3  A    between atoms: S_15  and  C_16
REMARK    4  A    between atoms: N_21  and  S_22
REMARK    5  A    between atoms: S_22  and  C_25
REMARK                            x       y       z     vdW  Elec       q    Type
REMARK                         _______ _______ _______ _____ _____    ______ ____
ROOT
ATOM      1  C   UNL     1      -2.044   0.775  -0.590  0.00  0.00    +0.001 A 
ATOM      2  C   UNL     1      -0.732   0.416  -0.480  0.00  0.00    +0.008 A 
ATOM      3  C   UNL     1       0.234   1.422  -0.311  0.00  0.00    -0.017 A 
ATOM      4  C   UNL     1       1.612   1.184  -0.180  0.00  0.00    +0.008 A 
ATOM      5  C   UNL     1       2.451   2.248  -0.017  0.00  0.00    +0.001 A 
ATOM      6  C   UNL     1       1.987   3.564   0.030  0.00  0.00    +0.005 A 
ATOM      7  C   UNL     1       0.657   3.830  -0.088  0.00  0.00    -0.024 A 
ATOM      8  C   UNL     1      -0.210   2.755  -0.256  0.00  0.00    -0.009 A 
ATOM      9  C   UNL     1      -1.552   3.106  -0.369  0.00  0.00    -0.019 A 
ATOM     10  C   UNL     1      -2.461   2.107  -0.536  0.00  0.00    +0.006 A 
ATOM     11  C   UNL     1      -1.635   4.610  -0.268  0.00  0.00    +0.125 C 
ATOM     12  C   UNL     1      -0.178   5.087  -0.082  0.00  0.00    +0.108 C 
ENDROOT
BRANCH  11  13
ATOM     13  N   UNL     1      -2.202   5.171  -1.497  0.00  0.00    -0.181 NA
ATOM     14  H   UNL     1      -1.537   5.509  -2.305  0.00  0.00    +0.149 HD
BRANCH  13  15
ATOM     15  S   UNL     1      -3.817   5.526  -1.576  0.00  0.00    +0.059 S 
ATOM     16  O   UNL     1      -4.051   6.072  -2.867  0.00  0.00    -0.153 OA
ATOM     17  O   UNL     1      -4.509   4.382  -1.096  0.00  0.00    -0.153 OA
BRANCH  15  18
ATOM     18  C   UNL     1      -4.123   6.821  -0.420  0.00  0.00    +0.105 A 
ATOM     19  C   UNL     1      -4.469   6.516   0.883  0.00  0.00    +0.030 A 
ATOM     20  C   UNL     1      -4.703   7.531   1.792  0.00  0.00    +0.022 A 
ATOM     21  C   UNL     1      -4.603   8.852   1.394  0.00  0.00    +0.041 A 
ATOM     22  C   UNL     1      -4.262   9.156   0.088  0.00  0.00    +0.022 A 
ATOM     23  C   UNL     1      -4.022   8.141  -0.818  0.00  0.00    +0.030 A 
ATOM     24 CL   UNL     1      -4.904  10.127   2.533  0.00  0.00    -0.084 Cl
ENDBRANCH  15  18
ENDBRANCH  13  15
ENDBRANCH  11  13
BRANCH  12  25
ATOM     25  S   UNL     1       0.307   6.168  -1.451  0.00  0.00    -0.076 S 
BRANCH  25  26
ATOM     26  C   UNL     1       1.838   6.780  -0.829  0.00  0.00    +0.185 A 
ATOM     27  N   UNL     1       2.714   7.560  -1.499  0.00  0.00    -0.254 N 
ATOM     28  N   UNL     1       3.785   7.795  -0.622  0.00  0.00    -0.160 NA
ATOM     29  C   UNL     1       3.509   7.174   0.493  0.00  0.00    +0.245 A 
ATOM     30  N   UNL     1       2.332   6.559   0.371  0.00  0.00    -0.209 NA
ATOM     31  H   UNL     1       2.726   7.994  -2.510  0.00  0.00    +0.191 HD
ENDBRANCH  25  26
ENDBRANCH  12  25
TORSDOF 5
