REMARK  Name = ZINC12759076
REMARK  7 active torsions:
REMARK  status: ('A' for Active; 'I' for Inactive)
REMARK    1  A    between atoms: C_1  and  C_2
REMARK    2  A    between atoms: C_3  and  C_29
REMARK    3  A    between atoms: N_9  and  C_12
REMARK    4  A    between atoms: C_12  and  C_13
REMARK    5  A    between atoms: N_15  and  C_16
REMARK    6  A    between atoms: C_16  and  C_18
REMARK    7  A    between atoms: C_16  and  C_24
REMARK                            x       y       z     vdW  Elec       q    Type
REMARK                         _______ _______ _______ _____ _____    ______ ____
ROOT
ATOM      1  C   UNL     1      -0.875   3.534  10.127  0.00  0.00    +0.052 C 
ATOM      2  C   UNL     1      -1.279   4.339   8.918  0.00  0.00    -0.003 A 
ATOM      3  C   UNL     1      -1.688   3.889   7.708  0.00  0.00    +0.007 A 
ATOM      4  C   UNL     1      -2.033   4.861   6.678  0.00  0.00    +0.080 A 
ATOM      5  C   UNL     1      -1.900   6.206   7.061  0.00  0.00    +0.116 A 
ATOM      6  S   UNL     1      -1.335   6.112   8.740  0.00  0.00    -0.073 S 
ATOM      7  N   UNL     1      -2.178   7.205   6.227  0.00  0.00    -0.230 NA
ATOM      8  C   UNL     1      -2.589   6.971   5.010  0.00  0.00    +0.203 A 
ATOM      9  N   UNL     1      -2.746   5.702   4.554  0.00  0.00    -0.290 N 
ATOM     10  C   UNL     1      -2.490   4.640   5.339  0.00  0.00    +0.263 A 
ATOM     11  O   UNL     1      -2.641   3.507   4.917  0.00  0.00    -0.267 OA
ENDROOT
BRANCH   3  12
ATOM     12  C   UNL     1      -1.783   2.435   7.435  0.00  0.00    -0.016 A 
ATOM     13  C   UNL     1      -3.024   1.849   7.187  0.00  0.00    +0.008 A 
ATOM     14  C   UNL     1      -3.106   0.496   6.929  0.00  0.00    +0.001 A 
ATOM     15  C   UNL     1      -1.961  -0.281   6.928  0.00  0.00    +0.000 A 
ATOM     16  C   UNL     1      -0.728   0.293   7.178  0.00  0.00    +0.001 A 
ATOM     17  C   UNL     1      -0.633   1.647   7.432  0.00  0.00    +0.008 A 
ENDBRANCH   3  12
BRANCH   9  18
ATOM     18  C   UNL     1      -3.210   5.485   3.181  0.00  0.00    +0.222 C 
BRANCH  18  19
ATOM     19  C   UNL     1      -2.022   5.407   2.256  0.00  0.00    +0.234 C 
ATOM     20  O   UNL     1      -0.899   5.521   2.700  0.00  0.00    -0.274 OA
ATOM     21  N   UNL     1      -2.208   5.209   0.936  0.00  0.00    -0.303 N 
ATOM     22  H   UNL     1      -3.106   5.118   0.581  0.00  0.00    +0.150 HD
BRANCH  21  23
ATOM     23  C   UNL     1      -1.054   5.133   0.037  0.00  0.00    +0.140 C 
BRANCH  23  24
ATOM     24  C   UNL     1      -1.476   5.522  -1.356  0.00  0.00    -0.022 A 
ATOM     25  C   UNL     1      -2.692   5.095  -1.855  0.00  0.00    +0.006 A 
ATOM     26  C   UNL     1      -3.081   5.455  -3.131  0.00  0.00    +0.000 A 
ATOM     27  C   UNL     1      -2.249   6.234  -3.913  0.00  0.00    +0.000 A 
ATOM     28  C   UNL     1      -1.031   6.658  -3.417  0.00  0.00    +0.000 A 
ATOM     29  C   UNL     1      -0.643   6.301  -2.138  0.00  0.00    +0.006 A 
ENDBRANCH  23  24
BRANCH  23  30
ATOM     30  C   UNL     1      -0.518   3.725   0.025  0.00  0.00    +0.014 A 
ATOM     31  C   UNL     1       0.770   3.301   0.012  0.00  0.00    +0.013 A 
ATOM     32  C   UNL     1       1.029   1.944   0.003  0.00  0.00    +0.008 A 
ATOM     33  C   UNL     1      -0.013   1.076   0.008  0.00  0.00    +0.045 A 
ATOM     34  S   UNL     1      -1.415   2.181   0.019  0.00  0.00    -0.099 S 
ENDBRANCH  23  30
ENDBRANCH  21  23
ENDBRANCH  18  19
ENDBRANCH   9  18
TORSDOF 6
