REMARK  Name = ZINC19808449
REMARK  14 active torsions:
REMARK  status: ('A' for Active; 'I' for Inactive)
REMARK    1  A    between atoms: C_1  and  C_2
REMARK    2  A    between atoms: C_2  and  O_3
REMARK    3  A    between atoms: O_3  and  C_4
REMARK    4  A    between atoms: C_4  and  C_6
REMARK    5  A    between atoms: C_7  and  N_38
REMARK    6  A    between atoms: N_8  and  C_29
REMARK    7  A    between atoms: C_11  and  C_13
REMARK    8  A    between atoms: C_16  and  C_18
REMARK    9  A    between atoms: C_18  and  C_19
REMARK   10  A    between atoms: C_18  and  C_20
REMARK   11  A    between atoms: C_18  and  C_21
REMARK   12  A    between atoms: C_25  and  C_27
REMARK   13  A    between atoms: C_25  and  C_28
REMARK   14  A    between atoms: C_32  and  N_35
REMARK                            x       y       z     vdW  Elec       q    Type
REMARK                         _______ _______ _______ _____ _____    ______ ____
ROOT
ATOM      1  C   UNL     1      -0.610   3.205   1.243  0.00  0.00    +0.085 C 
ATOM      2  C   UNL     1      -0.296   4.490   0.922  0.00  0.00    +0.103 C 
ATOM      3  N   UNL     1      -0.504   4.952  -0.355  0.00  0.00    -0.261 N 
ATOM      4  C   UNL     1      -1.369   4.303  -1.198  0.00  0.00    +0.025 C 
ATOM      5  C   UNL     1      -1.721   3.021  -0.969  0.00  0.00    +0.025 C 
ATOM      6  C   UNL     1      -1.175   2.267   0.217  0.00  0.00    +0.101 C 
ATOM      7  C   UNL     1      -2.606   2.347  -1.830  0.00  0.00    +0.162 C 
ATOM      8  O   UNL     1      -2.915   1.197  -1.587  0.00  0.00    -0.292 OA
ATOM      9  C   UNL     1      -3.177   3.023  -3.046  0.00  0.00    +0.086 C 
ATOM     10  C   UNL     1      -2.190   4.089  -3.533  0.00  0.00    -0.023 C 
ATOM     11  C   UNL     1      -1.920   5.061  -2.381  0.00  0.00    +0.058 C 
ATOM     12  C   UNL     1      -0.881   3.421  -3.961  0.00  0.00    +0.011 C 
ATOM     13  C   UNL     1      -2.792   4.846  -4.718  0.00  0.00    +0.011 C 
ENDROOT
BRANCH   3  14
ATOM     14  C   UNL     1       0.174   6.093  -0.800  0.00  0.00    +0.040 A 
ATOM     15  C   UNL     1       1.158   5.983  -1.774  0.00  0.00    +0.026 A 
ATOM     16  C   UNL     1       1.821   7.112  -2.215  0.00  0.00    +0.034 A 
ATOM     17  C   UNL     1       1.513   8.349  -1.680  0.00  0.00    +0.126 A 
ATOM     18  C   UNL     1       0.537   8.462  -0.706  0.00  0.00    +0.034 A 
ATOM     19  C   UNL     1      -0.133   7.338  -0.265  0.00  0.00    +0.026 A 
BRANCH  17  20
ATOM     20  N   UNL     1       2.229   9.556  -2.150  0.00  0.00    +0.056 N 
ATOM     21  O   UNL     1       1.960  10.646  -1.680  0.00  0.00    -0.126 OA
ATOM     22  O   UNL     1       3.089   9.458  -3.008  0.00  0.00    -0.126 OA
ENDBRANCH  17  20
ENDBRANCH   3  14
BRANCH   6  23
ATOM     23  C   UNL     1      -0.089   1.332  -0.249  0.00  0.00    +0.002 A 
ATOM     24  C   UNL     1      -0.038  -0.021  -0.176  0.00  0.00    +0.012 A 
ATOM     25  C   UNL     1       1.069  -0.677  -0.679  0.00  0.00    +0.012 A 
ATOM     26  C   UNL     1       2.072   0.050  -1.230  0.00  0.00    -0.005 A 
ATOM     27  S   UNL     1       1.461   1.718  -1.046  0.00  0.00    -0.097 S 
BRANCH  26  28
ATOM     28  C   UNL     1       3.366  -0.425  -1.838  0.00  0.00    -0.006 C 
ATOM     29  C   UNL     1       3.066  -1.349  -3.019  0.00  0.00    +0.016 C 
ATOM     30  C   UNL     1       4.173   0.780  -2.325  0.00  0.00    +0.016 C 
ATOM     31  C   UNL     1       4.174  -1.188  -0.786  0.00  0.00    +0.016 C 
ENDBRANCH  26  28
ENDBRANCH   6  23
BRANCH   2  32
ATOM     32  N   UNL     1       0.228   5.325   1.875  0.00  0.00    -0.346 N 
ATOM     33  H   UNL     1       0.482   6.364   1.617  0.00  0.00    +0.143 HD
ATOM     34  H   UNL     1       0.395   4.956   2.898  0.00  0.00    +0.143 HD
ENDBRANCH   2  32
BRANCH   1  35
ATOM     35  C   UNL     1      -0.401   2.750   2.553  0.00  0.00    +0.339 C 
ATOM     36  O   UNL     1       0.141   3.473   3.369  0.00  0.00    -0.245 OA
BRANCH  35  37
ATOM     37  O   UNL     1      -0.802   1.510   2.909  0.00  0.00    -0.462 OA
BRANCH  37  39
ATOM     38  C   UNL     1      -1.076  -0.311   4.474  0.00  0.00    +0.048 C 
ATOM     39  C   UNL     1      -0.557   1.113   4.260  0.00  0.00    +0.229 C 
ENDBRANCH  37  39
ENDBRANCH  35  37
ENDBRANCH   1  35
TORSDOF 8
