REMARK  Name = ZINC02651737
REMARK  13 active torsions:
REMARK  status: ('A' for Active; 'I' for Inactive)
REMARK    1  A    between atoms: C_1  and  C_2
REMARK    2  A    between atoms: C_2  and  N_3
REMARK    3  A    between atoms: N_3  and  C_4
REMARK    4  A    between atoms: C_5  and  N_20
REMARK    5  A    between atoms: N_6  and  C_13
REMARK    6  A    between atoms: C_13  and  C_14
REMARK    7  A    between atoms: C_21  and  C_23
REMARK    8  A    between atoms: C_23  and  N_62
REMARK    9  A    between atoms: C_24  and  N_62
REMARK   10  A    between atoms: C_25  and  C_26
REMARK   11  A    between atoms: C_25  and  N_62
REMARK   12  A    between atoms: C_29  and  O_32
REMARK   13  A    between atoms: O_32  and  C_33
REMARK                            x       y       z     vdW  Elec       q    Type
REMARK                         _______ _______ _______ _____ _____    ______ ____
ROOT
ATOM      1  N   UNL     1       0.583  -5.764  -3.210  0.00  0.00    -0.266 N 
ATOM      2  C   UNL     1       0.996  -4.494  -3.012  0.00  0.00    +0.203 C 
ATOM      3  O   UNL     1       1.187  -3.764  -3.962  0.00  0.00    -0.277 OA
ENDROOT
BRANCH   1   4
ATOM      4  C   UNL     1       0.280  -6.212  -4.513  0.00  0.00    +0.140 A 
ATOM      5  C   UNL     1      -0.757  -5.645  -5.227  0.00  0.00    +0.128 A 
ATOM      6  N   UNL     1      -1.025  -6.100  -6.497  0.00  0.00    -0.276 N 
ATOM      7  C   UNL     1      -0.292  -7.093  -7.033  0.00  0.00    +0.331 A 
ATOM      8  O   UNL     1      -0.548  -7.484  -8.156  0.00  0.00    -0.246 OA
ATOM      9  N   UNL     1       0.718  -7.661  -6.351  0.00  0.00    -0.273 N 
ATOM     10  H   UNL     1       1.247  -8.397  -6.772  0.00  0.00    +0.173 HD
ATOM     11  C   UNL     1       1.025  -7.249  -5.105  0.00  0.00    +0.277 A 
ATOM     12  O   UNL     1       1.943  -7.770  -4.495  0.00  0.00    -0.266 OA
BRANCH   5  13
ATOM     13  N   UNL     1      -1.509  -4.635  -4.676  0.00  0.00    -0.343 N 
ATOM     14  H   UNL     1      -1.385  -4.390  -3.746  0.00  0.00    +0.144 HD
ATOM     15  H   UNL     1      -2.163  -4.167  -5.219  0.00  0.00    +0.144 HD
ENDBRANCH   5  13
BRANCH   6  16
ATOM     16  C   UNL     1      -2.118  -5.503  -7.268  0.00  0.00    +0.163 C 
BRANCH  16  17
ATOM     17  C   UNL     1      -3.395  -6.255  -6.993  0.00  0.00    -0.028 A 
ATOM     18  C   UNL     1      -3.744  -7.336  -7.781  0.00  0.00    +0.005 A 
ATOM     19  C   UNL     1      -4.913  -8.029  -7.526  0.00  0.00    +0.000 A 
ATOM     20  C   UNL     1      -5.738  -7.635  -6.489  0.00  0.00    +0.000 A 
ATOM     21  C   UNL     1      -5.391  -6.551  -5.704  0.00  0.00    +0.000 A 
ATOM     22  C   UNL     1      -4.220  -5.861  -5.956  0.00  0.00    +0.005 A 
ENDBRANCH  16  17
ENDBRANCH   6  16
ENDBRANCH   1   4
BRANCH   1  24
ATOM     23  C   UNL     1      -0.979  -6.608  -1.528  0.00  0.00    +0.025 C 
ATOM     24  C   UNL     1       0.450  -6.676  -2.072  0.00  0.00    +0.110 C 
ENDBRANCH   1  24
BRANCH   2  25
ATOM     25  C   UNL     1       1.221  -3.985  -1.612  0.00  0.00    +0.019 C 
BRANCH  25  27
ATOM     26  C   UNL     1       2.988  -2.476  -2.294  0.00  0.00    -0.095 C 
ATOM     27  N   UNL     1       1.645  -2.571  -1.682  0.00  0.00    +0.386 N 
ATOM     28  H   UNL     1       0.977  -2.050  -2.262  0.00  0.00    -0.081 HD
BRANCH  27  29
ATOM     29  C   UNL     1       1.666  -1.982  -0.326  0.00  0.00    -0.043 C 
BRANCH  29  30
ATOM     30  C   UNL     1       1.885  -0.495  -0.445  0.00  0.00    -0.064 A 
ATOM     31  C   UNL     1       0.801   0.354  -0.575  0.00  0.00    +0.005 A 
ATOM     32  C   UNL     1       0.999   1.717  -0.683  0.00  0.00    +0.046 A 
ATOM     33  C   UNL     1       2.287   2.233  -0.663  0.00  0.00    +0.127 A 
ATOM     34  C   UNL     1       3.372   1.379  -0.533  0.00  0.00    +0.046 A 
ATOM     35  C   UNL     1       3.169   0.017  -0.425  0.00  0.00    +0.005 A 
BRANCH  33  36
ATOM     36  O   UNL     1       2.484   3.573  -0.770  0.00  0.00    -0.434 OA
BRANCH  36  37
ATOM     37  C   UNL     1       3.836   4.034  -0.742  0.00  0.00    +0.541 C 
ATOM     38  F   UNL     1       4.430   3.663   0.469  0.00  0.00    -0.166 F 
ATOM     39  F   UNL     1       4.546   3.463  -1.804  0.00  0.00    -0.166 F 
ENDBRANCH  36  37
ENDBRANCH  33  36
ENDBRANCH  29  30
ENDBRANCH  27  29
ENDBRANCH  25  27
ENDBRANCH   2  25
TORSDOF 11
