REMARK  Name = ZINC02191962
REMARK  13 active torsions:
REMARK  status: ('A' for Active; 'I' for Inactive)
REMARK    1  A    between atoms: C_1  and  C_2
REMARK    2  A    between atoms: C_2  and  O_34
REMARK    3  A    between atoms: N_12  and  C_13
REMARK    4  A    between atoms: C_13  and  C_14
REMARK    5  A    between atoms: C_14  and  C_15
REMARK    6  A    between atoms: C_15  and  C_16
REMARK    7  A    between atoms: C_16  and  C_17
REMARK    8  A    between atoms: C_17  and  C_18
REMARK    9  A    between atoms: C_18  and  C_19
REMARK   10  A    between atoms: C_19  and  C_20
REMARK   11  A    between atoms: C_20  and  N_21
REMARK   12  A    between atoms: C_26  and  C_27
REMARK   13  A    between atoms: C_26  and  O_28
REMARK                            x       y       z     vdW  Elec       q    Type
REMARK                         _______ _______ _______ _____ _____    ______ ____
ROOT
ATOM      1  C   UNL     1      -0.013   1.086   0.008  0.00  0.00    +0.000 C 
ENDROOT
BRANCH   1   2
ATOM      2  C   UNL     1      -0.753   1.593  -1.232  0.00  0.00    +0.002 C 
BRANCH   2   3
ATOM      3  C   UNL     1      -0.037   1.099  -2.490  0.00  0.00    +0.019 C 
BRANCH   3   4
ATOM      4  C   UNL     1      -0.777   1.606  -3.730  0.00  0.00    +0.114 C 
BRANCH   4  16
ATOM      5  C   UNL     1       0.483   3.197  -6.162  0.00  0.00    +0.068 C 
ATOM      6  C   UNL     1       0.984   1.847  -5.644  0.00  0.00    +0.175 C 
ATOM      7  C   UNL     1       1.329   0.911  -6.814  0.00  0.00    +0.160 C 
ATOM      8  C   UNL     1       1.077   1.619  -8.141  0.00  0.00    +0.053 C 
ATOM      9  C   UNL     1       1.398   0.668  -9.297  0.00  0.00    +0.004 C 
ATOM     10  C   UNL     1       2.861   0.230  -9.203  0.00  0.00    +0.000 C 
ATOM     11  C   UNL     1       3.095  -0.496  -7.877  0.00  0.00    +0.004 C 
ATOM     12  C   UNL     1       2.780   0.451  -6.716  0.00  0.00    +0.053 C 
ATOM     13  O   UNL     1       0.424  -0.214  -6.655  0.00  0.00    -0.439 OA
ATOM     14  C   UNL     1      -0.344  -0.017  -5.576  0.00  0.00    +0.406 C 
ATOM     15  O   UNL     1      -1.191  -0.807  -5.211  0.00  0.00    -0.226 OA
ATOM     16  N   UNL     1      -0.091   1.134  -4.935  0.00  0.00    -0.236 N 
BRANCH   6  17
ATOM     17  O   UNL     1       2.118   2.023  -4.793  0.00  0.00    -0.368 OA
ATOM     18  H   UNL     1       1.938   2.550  -4.002  0.00  0.00    +0.212 HD
ENDBRANCH   6  17
ENDBRANCH   4  16
ENDBRANCH   3   4
ENDBRANCH   2   3
ENDBRANCH   1   2
BRANCH   1  19
ATOM     19  C   UNL     1      -0.729   1.579   1.267  0.00  0.00    +0.000 C 
BRANCH  19  20
ATOM     20  C   UNL     1       0.011   1.072   2.506  0.00  0.00    +0.002 C 
BRANCH  20  21
ATOM     21  C   UNL     1      -0.705   1.566   3.765  0.00  0.00    +0.019 C 
BRANCH  21  22
ATOM     22  C   UNL     1       0.035   1.059   5.005  0.00  0.00    +0.114 C 
BRANCH  22  23
ATOM     23  N   UNL     1      -0.651   1.531   6.210  0.00  0.00    -0.236 N 
ATOM     24  C   UNL     1      -1.633   0.884   6.853  0.00  0.00    +0.406 C 
ATOM     25  O   UNL     1      -2.067  -0.192   6.490  0.00  0.00    -0.226 OA
ATOM     26  O   UNL     1      -2.092   1.531   7.932  0.00  0.00    -0.439 OA
ATOM     27  C   UNL     1      -1.365   2.780   8.087  0.00  0.00    +0.160 C 
ATOM     28  C   UNL     1      -0.370   2.792   6.917  0.00  0.00    +0.175 C 
ATOM     29  C   UNL     1       1.071   2.810   7.433  0.00  0.00    +0.068 C 
ATOM     30  C   UNL     1      -0.613   2.801   9.414  0.00  0.00    +0.053 C 
ATOM     31  C   UNL     1      -1.615   2.761  10.571  0.00  0.00    +0.004 C 
ATOM     32  C   UNL     1      -2.549   3.969  10.476  0.00  0.00    +0.000 C 
ATOM     33  C   UNL     1      -3.312   3.925   9.150  0.00  0.00    +0.004 C 
ATOM     34  C   UNL     1      -2.316   3.969   7.989  0.00  0.00    +0.053 C 
BRANCH  28  35
ATOM     35  O   UNL     1      -0.614   3.912   6.064  0.00  0.00    -0.368 OA
ATOM     36  H   UNL     1      -0.058   3.932   5.272  0.00  0.00    +0.212 HD
ENDBRANCH  28  35
ENDBRANCH  22  23
ENDBRANCH  21  22
ENDBRANCH  20  21
ENDBRANCH  19  20
ENDBRANCH   1  19
TORSDOF 11
