REMARK  Name = ZINC60484886
REMARK  9 active torsions:
REMARK  status: ('A' for Active; 'I' for Inactive)
REMARK    1  A    between atoms: C_1  and  C_2
REMARK    2  A    between atoms: C_2  and  O_3
REMARK    3  A    between atoms: O_3  and  C_4
REMARK    4  A    between atoms: N_7  and  C_10
REMARK    5  A    between atoms: C_10  and  C_11
REMARK    6  A    between atoms: C_10  and  C_12
REMARK    7  A    between atoms: N_14  and  C_15
REMARK    8  A    between atoms: C_15  and  C_16
REMARK    9  A    between atoms: C_16  and  N_22
REMARK                            x       y       z     vdW  Elec       q    Type
REMARK                         _______ _______ _______ _____ _____    ______ ____
ROOT
ATOM      1  C   UNL     1      -0.193  -6.263  -3.709  0.00  0.00    +0.199 C 
ATOM      2  O   UNL     1      -0.998  -5.404  -3.999  0.00  0.00    -0.278 OA
ATOM      3  N   UNL     1      -0.449  -7.554  -4.001  0.00  0.00    -0.318 N 
ATOM      4  H   UNL     1       0.195  -8.241  -3.769  0.00  0.00    +0.149 HD
ENDROOT
BRANCH   1   5
ATOM      5  C   UNL     1       1.095  -5.888  -3.021  0.00  0.00    +0.016 C 
ATOM      6  C   UNL     1       2.191  -5.682  -4.067  0.00  0.00    -0.004 C 
BRANCH   5  10
ATOM      7  C   UNL     1       0.856  -3.075   0.171  0.00  0.00    +0.115 C 
ATOM      8  C   UNL     1      -0.426  -3.522  -0.536  0.00  0.00    +0.013 C 
ATOM      9  C   UNL     1      -0.165  -4.838  -1.272  0.00  0.00    -0.075 C 
ATOM     10  N   UNL     1       0.900  -4.644  -2.264  0.00  0.00    +0.387 N 
ATOM     11  C   UNL     1       2.152  -4.285  -1.586  0.00  0.00    -0.075 C 
ATOM     12  C   UNL     1       1.979  -2.948  -0.862  0.00  0.00    +0.013 C 
ATOM     13  H   UNL     1       0.638  -3.905  -2.898  0.00  0.00    -0.081 HD
BRANCH   7  14
ATOM     14  O   UNL     1       0.639  -1.810   0.799  0.00  0.00    -0.377 OA
BRANCH  14  16
ATOM     15  C   UNL     1      -0.025  -0.495   2.715  0.00  0.00    +0.034 C 
ATOM     16  C   UNL     1       0.171  -1.902   2.146  0.00  0.00    +0.157 C 
ENDBRANCH  14  16
ENDBRANCH   7  14
ENDBRANCH   5  10
ENDBRANCH   1   5
BRANCH   3  17
ATOM     17  C   UNL     1      -1.700  -7.919  -4.670  0.00  0.00    +0.092 C 
BRANCH  17  18
ATOM     18  C   UNL     1      -1.791  -9.441  -4.787  0.00  0.00    -0.050 C 
ATOM     19  C   UNL     1      -3.074  -9.820  -5.530  0.00  0.00    -0.010 C 
ATOM     20  C   UNL     1      -4.285  -9.296  -4.756  0.00  0.00    -0.001 C 
ATOM     21  C   UNL     1      -4.303  -9.915  -3.357  0.00  0.00    -0.000 C 
ATOM     22  C   UNL     1      -3.021  -9.536  -2.615  0.00  0.00    -0.001 C 
ATOM     23  C   UNL     1      -1.809 -10.060  -3.388  0.00  0.00    -0.010 C 
BRANCH  18  24
ATOM     24  N   UNL     1      -0.628  -9.945  -5.530  0.00  0.00    +0.384 N 
ATOM     25  C   UNL     1      -0.599  -9.334  -6.864  0.00  0.00    -0.078 C 
ATOM     26  C   UNL     1       0.654  -9.793  -7.613  0.00  0.00    -0.019 C 
ATOM     27  C   UNL     1       0.630 -11.318  -7.750  0.00  0.00    -0.004 C 
ATOM     28  C   UNL     1       0.525 -11.944  -6.356  0.00  0.00    -0.019 C 
ATOM     29  C   UNL     1      -0.723 -11.405  -5.654  0.00  0.00    -0.078 C 
ATOM     30  H   UNL     1       0.217  -9.705  -5.034  0.00  0.00    -0.081 HD
ENDBRANCH  18  24
ENDBRANCH  17  18
ENDBRANCH   3  17
TORSDOF 7
