REMARK  Name = ZINC06178091
REMARK  11 active torsions:
REMARK  status: ('A' for Active; 'I' for Inactive)
REMARK    1  A    between atoms: C_1  and  C_2
REMARK    2  A    between atoms: C_4  and  C_42
REMARK    3  A    between atoms: C_9  and  C_14
REMARK    4  A    between atoms: C_14  and  C_16
REMARK    5  A    between atoms: C_14  and  N_28
REMARK    6  A    between atoms: N_20  and  C_21
REMARK    7  A    between atoms: C_21  and  C_22
REMARK    8  A    between atoms: N_28  and  C_29
REMARK    9  A    between atoms: N_28  and  C_36
REMARK   10  A    between atoms: C_29  and  C_30
REMARK   11  A    between atoms: C_36  and  C_37
REMARK                            x       y       z     vdW  Elec       q    Type
REMARK                         _______ _______ _______ _____ _____    ______ ____
ROOT
ATOM      1  C   UNL     1       0.193  -5.207   3.493  0.00  0.00    +0.040 C 
ENDROOT
BRANCH   1  10
ATOM      2  C   UNL     1       1.345   0.676  -0.943  0.00  0.00    +0.044 C 
ATOM      3  C   UNL     1       1.015  -0.782  -0.753  0.00  0.00    -0.050 A 
ATOM      4  C   UNL     1       0.773  -1.583  -1.861  0.00  0.00    +0.008 A 
ATOM      5  C   UNL     1       0.469  -2.918  -1.711  0.00  0.00    -0.026 A 
ATOM      6  C   UNL     1       0.403  -3.472  -0.437  0.00  0.00    +0.052 A 
ATOM      7  C   UNL     1       0.649  -2.657   0.684  0.00  0.00    -0.001 A 
ATOM      8  C   UNL     1       0.961  -1.305   0.508  0.00  0.00    +0.013 A 
ATOM      9  C   UNL     1       0.577  -3.249   2.022  0.00  0.00    +0.017 A 
ATOM     10  C   UNL     1       0.275  -4.567   2.131  0.00  0.00    +0.011 A 
ATOM     11  C   UNL     1       0.038  -5.340   0.975  0.00  0.00    +0.251 A 
ATOM     12  O   UNL     1      -0.232  -6.523   1.096  0.00  0.00    -0.268 OA
ATOM     13  N   UNL     1       0.101  -4.805  -0.257  0.00  0.00    -0.322 N 
ATOM     14  H   UNL     1      -0.068  -5.365  -1.031  0.00  0.00    +0.169 HD
ATOM     15  C   UNL     1       0.208  -3.775  -2.923  0.00  0.00    +0.046 C 
ENDBRANCH   1  10
BRANCH   1  16
ATOM     16  C   UNL     1       1.322  -6.193   3.653  0.00  0.00    +0.143 A 
ATOM     17  N   UNL     1       1.410  -7.378   3.099  0.00  0.00    -0.115 NA
ATOM     18  N   UNL     1       2.520  -7.912   3.478  0.00  0.00    -0.023 NA
ATOM     19  N   UNL     1       3.142  -7.099   4.259  0.00  0.00    -0.044 NA
ATOM     20  N   UNL     1       2.438  -6.026   4.387  0.00  0.00    -0.228 N 
BRANCH  20  21
ATOM     21  C   UNL     1       2.785  -4.847   5.184  0.00  0.00    +0.178 C 
BRANCH  21  22
ATOM     22  C   UNL     1       2.241  -5.013   6.604  0.00  0.00    +0.140 C 
ATOM     23  C   UNL     1       2.676  -3.818   7.490  0.00  0.00    +0.035 C 
ATOM     24  C   UNL     1       1.562  -3.833   8.572  0.00  0.00    +0.031 C 
ATOM     25  C   UNL     1       0.329  -4.297   7.767  0.00  0.00    +0.160 C 
ATOM     26  O   UNL     1       0.805  -4.974   6.596  0.00  0.00    -0.375 OA
ENDBRANCH  21  22
ENDBRANCH  20  21
ENDBRANCH   1  16
BRANCH   1  27
ATOM     27  N   UNL     1      -1.091  -5.907   3.628  0.00  0.00    +0.397 N 
ATOM     28  H   UNL     1      -1.156  -6.630   2.926  0.00  0.00    -0.079 HD
BRANCH  27  29
ATOM     29  C   UNL     1      -2.191  -4.951   3.450  0.00  0.00    -0.039 C 
BRANCH  29  30
ATOM     30  C   UNL     1      -2.105  -3.883   4.509  0.00  0.00    -0.046 A 
ATOM     31  C   UNL     1      -2.676  -4.084   5.757  0.00  0.00    +0.005 A 
ATOM     32  C   UNL     1      -2.572  -3.074   6.701  0.00  0.00    +0.020 A 
ATOM     33  C   UNL     1      -1.908  -1.908   6.369  0.00  0.00    +0.111 A 
ATOM     34  N   UNL     1      -1.378  -1.751   5.172  0.00  0.00    -0.263 NA
ATOM     35  C   UNL     1      -1.452  -2.693   4.252  0.00  0.00    +0.112 A 
ENDBRANCH  29  30
ENDBRANCH  27  29
BRANCH  27  36
ATOM     36  C   UNL     1      -1.181  -6.513   4.964  0.00  0.00    -0.001 C 
BRANCH  36  37
ATOM     37  C   UNL     1      -2.411  -7.379   5.041  0.00  0.00    +0.089 A 
ATOM     38  C   UNL     1      -2.455  -8.706   4.824  0.00  0.00    +0.042 A 
ATOM     39  C   UNL     1      -3.799  -9.106   5.002  0.00  0.00    +0.041 A 
ATOM     40  C   UNL     1      -4.497  -8.000   5.316  0.00  0.00    +0.195 A 
ATOM     41  O   UNL     1      -3.650  -6.957   5.345  0.00  0.00    -0.470 OA
ENDBRANCH  36  37
ENDBRANCH  27  36
ENDBRANCH   1  27
TORSDOF 9
