REMARK  Name = ZINC34788666
REMARK  4 active torsions:
REMARK  status: ('A' for Active; 'I' for Inactive)
REMARK    1  A    between atoms: C_6  and  C_11
REMARK    2  A    between atoms: C_20  and  C_22
REMARK    3  A    between atoms: C_22  and  N_23
REMARK    4  A    between atoms: C_31  and  C_33
REMARK                            x       y       z     vdW  Elec       q    Type
REMARK                         _______ _______ _______ _____ _____    ______ ____
ROOT
ATOM      1  C   UNL     1       4.977  -2.713  -0.059  0.00  0.00    +0.247 C 
ATOM      2  O   UNL     1       6.016  -2.091  -0.168  0.00  0.00    -0.270 OA
ATOM      3  N   UNL     1       5.003  -4.057   0.036  0.00  0.00    -0.296 N 
ATOM      4  C   UNL     1       6.228  -4.770   0.135  0.00  0.00    +0.109 C 
ATOM      5  C   UNL     1       6.923  -5.065  -1.234  0.00  0.00    +0.038 C 
ATOM      6  C   UNL     1       5.796  -5.398  -2.265  0.00  0.00    +0.109 C 
ATOM      7  N   UNL     1       4.718  -6.160  -1.738  0.00  0.00    -0.299 N 
ATOM      8  C   UNL     1       3.517  -5.410  -1.288  0.00  0.00    +0.126 C 
ATOM      9  C   UNL     1       3.752  -4.858   0.047  0.00  0.00    +0.127 C 
ATOM     10  C   UNL     1       4.782  -7.503  -1.650  0.00  0.00    +0.230 C 
ATOM     11  O   UNL     1       5.776  -8.088  -2.026  0.00  0.00    -0.274 OA
ENDROOT
BRANCH   1  17
ATOM     12  C   UNL     1      -0.189   1.009   0.922  0.00  0.00    +0.001 A 
ATOM     13  C   UNL     1       0.806   1.365   1.830  0.00  0.00    +0.001 A 
ATOM     14  C   UNL     1       2.009   0.728   1.835  0.00  0.00    +0.008 A 
ATOM     15  C   UNL     1       2.254  -0.305   0.913  0.00  0.00    -0.017 A 
ATOM     16  C   UNL     1       3.482  -0.983   0.892  0.00  0.00    +0.021 A 
ATOM     17  C   UNL     1       3.686  -1.995  -0.031  0.00  0.00    +0.037 A 
ATOM     18  C   UNL     1       2.672  -2.345  -0.941  0.00  0.00    +0.013 A 
ATOM     19  C   UNL     1       1.478  -1.700  -0.936  0.00  0.00    +0.009 A 
ATOM     20  C   UNL     1       1.240  -0.668  -0.010  0.00  0.00    -0.018 A 
ATOM     21  C   UNL     1       0.012   0.013   0.015  0.00  0.00    +0.008 A 
ENDBRANCH   1  17
BRANCH  10  22
ATOM     22  C   UNL     1       3.619  -8.278  -1.086  0.00  0.00    +0.181 C 
BRANCH  22  23
ATOM     23  N   UNL     1       3.935  -9.713  -1.098  0.00  0.00    -0.283 NA
ATOM     24  C   UNL     1       5.060 -10.012  -0.201  0.00  0.00    +0.091 C 
ATOM     25  C   UNL     1       5.613 -11.404  -0.548  0.00  0.00    +0.058 C 
ATOM     26  C   UNL     1       4.453 -12.336  -0.679  0.00  0.00    -0.004 A 
ATOM     27  C   UNL     1       3.139 -11.989  -0.784  0.00  0.00    -0.016 A 
ATOM     28  C   UNL     1       2.227 -13.036  -0.892  0.00  0.00    +0.013 A 
ATOM     29  C   UNL     1       2.663 -14.317  -0.892  0.00  0.00    +0.046 A 
ATOM     30  S   UNL     1       4.430 -14.105  -0.734  0.00  0.00    -0.101 S 
ATOM     31  C   UNL     1       2.747 -10.515  -0.780  0.00  0.00    +0.118 C 
BRANCH  31  32
ATOM     32  C   UNL     1       1.680 -10.273  -1.817  0.00  0.00    -0.023 A 
ATOM     33  C   UNL     1       2.026 -10.163  -3.151  0.00  0.00    +0.006 A 
ATOM     34  C   UNL     1       1.049  -9.941  -4.103  0.00  0.00    +0.003 A 
ATOM     35  C   UNL     1      -0.275  -9.828  -3.723  0.00  0.00    +0.038 A 
ATOM     36  C   UNL     1      -0.622  -9.938  -2.387  0.00  0.00    +0.124 A 
ATOM     37  C   UNL     1       0.357 -10.167  -1.435  0.00  0.00    +0.043 A 
ATOM     38  F   UNL     1      -1.916  -9.828  -2.014  0.00  0.00    -0.205 F 
ENDBRANCH  31  32
ENDBRANCH  22  23
ENDBRANCH  10  22
TORSDOF 4
