REMARK  Name = ZINC01184455
REMARK  9 active torsions:
REMARK  status: ('A' for Active; 'I' for Inactive)
REMARK    1  A    between atoms: C_2  and  C_3
REMARK    2  A    between atoms: C_3  and  C_4
REMARK    3  A    between atoms: C_9  and  O_10
REMARK    4  A    between atoms: O_10  and  C_11
REMARK    5  A    between atoms: C_11  and  C_12
REMARK    6  A    between atoms: C_12  and  C_14
REMARK    7  A    between atoms: C_12  and  O_27
REMARK    8  A    between atoms: C_14  and  N_54
REMARK    9  A    between atoms: N_17  and  C_20
REMARK                            x       y       z     vdW  Elec       q    Type
REMARK                         _______ _______ _______ _____ _____    ______ ____
ROOT
ATOM      1  C   UNL     1      -4.478  -3.605   1.584  0.00  0.00    -0.044 C 
ENDROOT
BRANCH   1   7
ATOM      2  C   UNL     1      -2.986  -4.660   3.173  0.00  0.00    -0.060 C 
ATOM      3  C   UNL     1      -2.895  -5.233   4.589  0.00  0.00    +0.086 C 
ATOM      4  N   UNL     1      -3.828  -6.361   4.719  0.00  0.00    -0.331 N 
ATOM      5  C   UNL     1      -5.208  -5.931   4.455  0.00  0.00    +0.086 C 
ATOM      6  C   UNL     1      -5.299  -5.359   3.038  0.00  0.00    -0.060 C 
ATOM      7  N   UNL     1      -4.373  -4.212   2.928  0.00  0.00    +0.383 N 
ATOM      8  H   UNL     1      -4.626  -3.509   3.632  0.00  0.00    -0.082 HD
BRANCH   4   9
ATOM      9  C   UNL     1      -3.721  -6.957   5.980  0.00  0.00    +0.065 A 
ATOM     10  C   UNL     1      -4.467  -8.088   6.280  0.00  0.00    +0.026 A 
ATOM     11  C   UNL     1      -4.356  -8.677   7.525  0.00  0.00    +0.002 A 
ATOM     12  C   UNL     1      -3.511  -8.136   8.476  0.00  0.00    +0.003 A 
ATOM     13  C   UNL     1      -2.769  -7.005   8.183  0.00  0.00    +0.040 A 
ATOM     14  C   UNL     1      -2.872  -6.413   6.938  0.00  0.00    +0.144 A 
ATOM     15  F   UNL     1      -2.148  -5.309   6.652  0.00  0.00    -0.204 F 
ENDBRANCH   4   9
ENDBRANCH   1   7
BRANCH   1  16
ATOM     16  C   UNL     1      -3.685  -2.296   1.569  0.00  0.00    +0.135 C 
BRANCH  16  17
ATOM     17  O   UNL     1      -4.208  -1.411   2.561  0.00  0.00    -0.390 OA
ATOM     18  H   UNL     1      -5.139  -1.182   2.432  0.00  0.00    +0.210 HD
ENDBRANCH  16  17
BRANCH  16  19
ATOM     19  C   UNL     1      -3.802  -1.645   0.190  0.00  0.00    +0.258 C 
BRANCH  19  20
ATOM     20  O   UNL     1      -2.968  -0.485   0.139  0.00  0.00    -0.489 OA
BRANCH  20  26
ATOM     21  C   UNL     1      -2.170   1.352  -1.144  0.00  0.00    -0.002 A 
ATOM     22  C   UNL     1      -2.163   2.065  -2.328  0.00  0.00    +0.007 A 
ATOM     23  C   UNL     1      -2.931   1.641  -3.396  0.00  0.00    +0.001 A 
ATOM     24  C   UNL     1      -3.716   0.509  -3.280  0.00  0.00    +0.004 A 
ATOM     25  C   UNL     1      -3.731  -0.205  -2.097  0.00  0.00    +0.046 A 
ATOM     26  C   UNL     1      -2.956   0.216  -1.025  0.00  0.00    +0.124 A 
BRANCH  21  27
ATOM     27  C   UNL     1      -1.328   1.812   0.018  0.00  0.00    +0.065 C 
BRANCH  27  29
ATOM     28  C   UNL     1       1.113   1.746   0.001  0.00  0.00    +0.004 C 
ATOM     29  C   UNL     1      -0.013   1.076   0.008  0.00  0.00    -0.030 C 
ENDBRANCH  27  29
ENDBRANCH  21  27
ENDBRANCH  20  26
ENDBRANCH  19  20
ENDBRANCH  16  19
ENDBRANCH   1  16
TORSDOF 9
