REMARK  Name = ZINC09986118
REMARK  10 active torsions:
REMARK  status: ('A' for Active; 'I' for Inactive)
REMARK    1  A    between atoms: C_1  and  O_2
REMARK    2  A    between atoms: O_2  and  C_3
REMARK    3  A    between atoms: C_5  and  C_13
REMARK    4  A    between atoms: C_7  and  O_11
REMARK    5  A    between atoms: C_8  and  O_9
REMARK    6  A    between atoms: O_9  and  C_10
REMARK    7  A    between atoms: O_11  and  C_12
REMARK    8  A    between atoms: C_19  and  C_27
REMARK    9  A    between atoms: C_21  and  C_25
REMARK   10  A    between atoms: C_22  and  N_24
REMARK                            x       y       z     vdW  Elec       q    Type
REMARK                         _______ _______ _______ _____ _____    ______ ____
ROOT
ATOM      1  C   UNL     1      -4.853   0.229   0.038  0.00  0.00    +0.084 C 
ATOM      2  N   UNL     1      -4.964   1.531   0.035  0.00  0.00    -0.150 NA
ATOM      3  N   UNL     1      -6.295   1.947   0.012  0.00  0.00    -0.115 NA
ATOM      4  C   UNL     1      -7.110   0.956  -0.059  0.00  0.00    +0.227 C 
ATOM      5  C   UNL     1      -6.265  -0.311   0.047  0.00  0.00    +0.140 C 
ATOM      6  C   UNL     1      -6.551  -1.115  -1.226  0.00  0.00    +0.084 C 
ATOM      7  C   UNL     1      -8.026  -1.058  -1.522  0.00  0.00    +0.095 C 
ATOM      8  C   UNL     1      -8.861  -0.111  -1.047  0.00  0.00    +0.200 C 
ATOM      9  O   UNL     1      -8.449   0.889  -0.222  0.00  0.00    -0.425 OA
ENDROOT
BRANCH   6  10
ATOM     10  C   UNL     1      -5.781  -0.525  -2.379  0.00  0.00    -0.020 A 
ATOM     11  C   UNL     1      -5.995   0.788  -2.754  0.00  0.00    +0.007 A 
ATOM     12  C   UNL     1      -5.289   1.330  -3.811  0.00  0.00    +0.020 A 
ATOM     13  C   UNL     1      -4.366   0.558  -4.495  0.00  0.00    +0.042 A 
ATOM     14  C   UNL     1      -4.151  -0.756  -4.120  0.00  0.00    +0.040 A 
ATOM     15  C   UNL     1      -4.855  -1.296  -3.059  0.00  0.00    +0.046 A 
ATOM     16 CL   UNL     1      -4.581  -2.943  -2.584  0.00  0.00    -0.083 Cl
ATOM     17 CL   UNL     1      -3.479   1.239  -5.823  0.00  0.00    -0.083 Cl
ENDBRANCH   6  10
BRANCH   1  20
ATOM     18  C   UNL     1      -1.201  -0.638   0.010  0.00  0.00    +0.166 A 
ATOM     19  C   UNL     1      -2.370   0.100   0.019  0.00  0.00    +0.059 A 
ATOM     20  C   UNL     1      -3.607  -0.553   0.027  0.00  0.00    +0.006 A 
ATOM     21  C   UNL     1      -3.657  -1.951   0.026  0.00  0.00    +0.059 A 
ATOM     22  C   UNL     1      -2.483  -2.682   0.016  0.00  0.00    +0.166 A 
ATOM     23  C   UNL     1      -1.254  -2.029   0.003  0.00  0.00    +0.204 A 
BRANCH  18  25
ATOM     24  C   UNL     1      -0.017   1.425   0.010  0.00  0.00    +0.277 C 
ATOM     25  O   UNL     1       0.002  -0.004   0.002  0.00  0.00    -0.491 OA
ENDBRANCH  18  25
BRANCH  23  26
ATOM     26  O   UNL     1      -0.102  -2.752  -0.012  0.00  0.00    -0.488 OA
ATOM     27  C   UNL     1       0.459  -3.103   1.254  0.00  0.00    +0.277 C 
ENDBRANCH  23  26
BRANCH  22  28
ATOM     28  O   UNL     1      -2.530  -4.041   0.015  0.00  0.00    -0.491 OA
ATOM     29  C   UNL     1      -3.825  -4.646   0.023  0.00  0.00    +0.277 C 
ENDBRANCH  22  28
ENDBRANCH   1  20
BRANCH   8  30
ATOM     30  N   UNL     1     -10.185  -0.162  -1.407  0.00  0.00    -0.328 N 
ATOM     31  H   UNL     1     -10.502  -0.868  -1.991  0.00  0.00    +0.145 HD
ATOM     32  H   UNL     1     -10.804   0.509  -1.076  0.00  0.00    +0.145 HD
ENDBRANCH   8  30
BRANCH   7  33
ATOM     33  C   UNL     1      -8.579  -2.075  -2.364  0.00  0.00    +0.100 C 
ATOM     34  N   UNL     1      -9.018  -2.883  -3.032  0.00  0.00    -0.191 NA
ENDBRANCH   7  33
TORSDOF 7
