REMARK  Name = ZINC15220746
REMARK  5 active torsions:
REMARK  status: ('A' for Active; 'I' for Inactive)
REMARK    1  A    between atoms: C_4  and  N_7
REMARK    2  A    between atoms: C_14  and  O_27
REMARK    3  A    between atoms: C_15  and  C_18
REMARK    4  A    between atoms: C_18  and  C_20
REMARK    5  A    between atoms: C_21  and  C_22
REMARK                            x       y       z     vdW  Elec       q    Type
REMARK                         _______ _______ _______ _____ _____    ______ ____
ROOT
ATOM      1  N   UNL     1       1.048   2.445   0.130  0.00  0.00    -0.276 N 
ATOM      2  C   UNL     1       0.877   3.793   0.376  0.00  0.00    +0.061 A 
ATOM      3  C   UNL     1       1.950   4.569   0.806  0.00  0.00    +0.027 A 
ATOM      4  C   UNL     1       1.772   5.914   1.049  0.00  0.00    +0.002 A 
ATOM      5  C   UNL     1       0.529   6.507   0.869  0.00  0.00    +0.001 A 
ATOM      6  C   UNL     1      -0.538   5.766   0.448  0.00  0.00    +0.013 A 
ATOM      7  C   UNL     1      -0.380   4.398   0.196  0.00  0.00    +0.041 A 
ATOM      8  C   UNL     1      -1.514   3.587  -0.257  0.00  0.00    +0.142 A 
ATOM      9  C   UNL     1      -1.301   2.228  -0.500  0.00  0.00    +0.128 A 
ATOM     10  C   UNL     1       0.033   1.669  -0.285  0.00  0.00    +0.271 A 
ATOM     11  O   UNL     1       0.227   0.484  -0.490  0.00  0.00    -0.266 OA
ENDROOT
BRANCH   1  15
ATOM     12  C   UNL     1       4.808   0.741   0.692  0.00  0.00    +0.000 A 
ATOM     13  C   UNL     1       3.889   0.740   1.725  0.00  0.00    +0.002 A 
ATOM     14  C   UNL     1       2.642   1.304   1.542  0.00  0.00    +0.026 A 
ATOM     15  C   UNL     1       2.311   1.873   0.319  0.00  0.00    +0.050 A 
ATOM     16  C   UNL     1       3.235   1.867  -0.719  0.00  0.00    +0.026 A 
ATOM     17  C   UNL     1       4.482   1.306  -0.527  0.00  0.00    +0.002 A 
ENDBRANCH   1  15
BRANCH   9  18
ATOM     18  C   UNL     1      -2.404   1.371  -0.961  0.00  0.00    +0.195 C 
ATOM     19  O   UNL     1      -3.356   1.158  -0.230  0.00  0.00    -0.287 OA
BRANCH  18  20
ATOM     20  C   UNL     1      -2.359   0.794  -2.253  0.00  0.00    +0.055 C 
ATOM     21  C   UNL     1      -3.422   0.090  -2.719  0.00  0.00    +0.050 C 
BRANCH  21  22
ATOM     22  C   UNL     1      -3.378  -0.487  -4.010  0.00  0.00    +0.128 A 
ATOM     23  C   UNL     1      -4.379  -1.228  -4.605  0.00  0.00    +0.049 A 
ATOM     24  C   UNL     1      -3.906  -1.592  -5.874  0.00  0.00    +0.042 A 
ATOM     25  C   UNL     1      -2.662  -1.079  -5.999  0.00  0.00    +0.195 A 
ATOM     26  O   UNL     1      -2.347  -0.416  -4.878  0.00  0.00    -0.464 OA
ENDBRANCH  21  22
ENDBRANCH  18  20
ENDBRANCH   9  18
BRANCH   8  27
ATOM     27  O   UNL     1      -2.732   4.140  -0.439  0.00  0.00    -0.505 OA
ATOM     28  H   UNL     1      -3.422   3.504  -0.674  0.00  0.00    +0.292 HD
ENDBRANCH   8  27
TORSDOF 5
