REMARK  Name = ZINC17514116
REMARK  8 active torsions:
REMARK  status: ('A' for Active; 'I' for Inactive)
REMARK    1  A    between atoms: C_4  and  C_7
REMARK    2  A    between atoms: C_7  and  C_9
REMARK    3  A    between atoms: C_7  and  S_29
REMARK    4  A    between atoms: N_11  and  N_12
REMARK    5  A    between atoms: C_13  and  C_15
REMARK    6  A    between atoms: C_18  and  S_21
REMARK    7  A    between atoms: S_21  and  N_24
REMARK    8  A    between atoms: S_29  and  C_30
REMARK                            x       y       z     vdW  Elec       q    Type
REMARK                         _______ _______ _______ _____ _____    ______ ____
ROOT
ATOM      1  C   UNL     1       1.856   3.718  -0.119  0.00  0.00    +0.247 C 
ATOM      2  O   UNL     1       0.951   4.432   0.258  0.00  0.00    -0.273 OA
ATOM      3  N   UNL     1       2.971   4.263  -0.643  0.00  0.00    -0.233 N 
ATOM      4  H   UNL     1       3.695   3.692  -0.945  0.00  0.00    +0.173 HD
ENDROOT
BRANCH   3   5
ATOM      5  N   UNL     1       3.086   5.655  -0.752  0.00  0.00    -0.230 N 
ATOM      6  C   UNL     1       4.202   6.200  -1.276  0.00  0.00    +0.260 C 
ATOM      7  O   UNL     1       5.109   5.484  -1.654  0.00  0.00    -0.269 OA
ATOM      8  H   UNL     1       2.363   6.226  -0.450  0.00  0.00    +0.173 HD
BRANCH   6   9
ATOM      9  C   UNL     1       4.323   7.669  -1.391  0.00  0.00    +0.038 A 
ATOM     10  C   UNL     1       3.281   8.494  -0.963  0.00  0.00    +0.015 A 
ATOM     11  C   UNL     1       3.403   9.864  -1.068  0.00  0.00    +0.029 A 
ATOM     12  C   UNL     1       4.550  10.421  -1.606  0.00  0.00    +0.106 A 
ATOM     13  C   UNL     1       5.584   9.609  -2.037  0.00  0.00    +0.029 A 
ATOM     14  C   UNL     1       5.477   8.237  -1.933  0.00  0.00    +0.015 A 
BRANCH  12  15
ATOM     15  S   UNL     1       4.694  12.172  -1.743  0.00  0.00    +0.061 S 
ATOM     16  O   UNL     1       3.822  12.729  -0.770  0.00  0.00    -0.153 OA
ATOM     17  O   UNL     1       6.084  12.463  -1.776  0.00  0.00    -0.153 OA
BRANCH  15  18
ATOM     18  N   UNL     1       4.086  12.598  -3.223  0.00  0.00    -0.177 NA
ATOM     19  C   UNL     1       4.858  12.698  -4.471  0.00  0.00    +0.109 C 
ATOM     20  C   UNL     1       3.882  13.149  -5.578  0.00  0.00    +0.018 C 
ATOM     21  C   UNL     1       2.742  13.831  -4.778  0.00  0.00    +0.018 C 
ATOM     22  C   UNL     1       2.682  12.947  -3.507  0.00  0.00    +0.109 C 
ENDBRANCH  15  18
ENDBRANCH  12  15
ENDBRANCH   6   9
ENDBRANCH   3   5
BRANCH   1  23
ATOM     23  C   UNL     1       1.732   2.220  -0.003  0.00  0.00    +0.168 C 
BRANCH  23  27
ATOM     24  C   UNL     1       3.578   0.919   3.623  0.00  0.00    +0.000 A 
ATOM     25  C   UNL     1       4.037   0.449   2.407  0.00  0.00    +0.000 A 
ATOM     26  C   UNL     1       3.440   0.871   1.233  0.00  0.00    +0.005 A 
ATOM     27  C   UNL     1       2.383   1.761   1.276  0.00  0.00    -0.025 A 
ATOM     28  C   UNL     1       1.928   2.235   2.493  0.00  0.00    +0.005 A 
ATOM     29  C   UNL     1       2.522   1.810   3.666  0.00  0.00    +0.000 A 
ENDBRANCH  23  27
BRANCH  23  30
ATOM     30  S   UNL     1      -0.022   1.758   0.012  0.00  0.00    -0.108 S 
BRANCH  30  31
ATOM     31  C   UNL     1       0.002  -0.004   0.002  0.00  0.00    +0.009 A 
ATOM     32  C   UNL     1       1.214  -0.684  -0.019  0.00  0.00    +0.015 A 
ATOM     33  C   UNL     1       1.229  -2.065  -0.022  0.00  0.00    +0.001 A 
ATOM     34  C   UNL     1       0.040  -2.771  -0.014  0.00  0.00    +0.000 A 
ATOM     35  C   UNL     1      -1.168  -2.098   0.002  0.00  0.00    +0.001 A 
ATOM     36  C   UNL     1      -1.191  -0.717   0.010  0.00  0.00    +0.015 A 
ENDBRANCH  30  31
ENDBRANCH  23  30
ENDBRANCH   1  23
TORSDOF 8
