REMARK  Name = ZINC64600324
REMARK  9 active torsions:
REMARK  status: ('A' for Active; 'I' for Inactive)
REMARK    1  A    between atoms: C_1  and  C_2
REMARK    2  A    between atoms: C_4  and  O_33
REMARK    3  A    between atoms: C_11  and  C_16
REMARK    4  A    between atoms: C_13  and  C_15
REMARK    5  A    between atoms: C_16  and  C_17
REMARK    6  A    between atoms: N_19  and  C_20
REMARK    7  A    between atoms: C_20  and  C_22
REMARK    8  A    between atoms: C_20  and  C_23
REMARK    9  A    between atoms: C_23  and  C_24
REMARK                            x       y       z     vdW  Elec       q    Type
REMARK                         _______ _______ _______ _____ _____    ______ ____
ROOT
ATOM      1  C   UNL     1      -2.635  -4.793   2.597  0.00  0.00    +0.214 C 
ATOM      2  O   UNL     1      -1.939  -5.309   3.445  0.00  0.00    -0.276 OA
ATOM      3  N   UNL     1      -3.952  -4.616   2.822  0.00  0.00    -0.312 N 
ATOM      4  H   UNL     1      -4.509  -4.202   2.144  0.00  0.00    +0.149 HD
ENDROOT
BRANCH   3   5
ATOM      5  C   UNL     1      -4.543  -5.047   4.092  0.00  0.00    +0.074 C 
ATOM      6  C   UNL     1      -4.365  -3.945   5.138  0.00  0.00    +0.028 C 
BRANCH   5   7
ATOM      7  C   UNL     1      -6.034  -5.325   3.892  0.00  0.00    +0.055 C 
BRANCH   7   8
ATOM      8  C   UNL     1      -6.206  -6.493   2.954  0.00  0.00    -0.040 C 
ATOM      9  C   UNL     1      -6.384  -7.790   3.295  0.00  0.00    -0.001 A 
ATOM     10  C   UNL     1      -6.467  -8.476   4.590  0.00  0.00    +0.010 A 
ATOM     11  C   UNL     1      -6.654  -9.815   4.612  0.00  0.00    +0.001 A 
ATOM     12  C   UNL     1      -6.769 -10.563   3.432  0.00  0.00    +0.002 A 
ATOM     13  C   UNL     1      -6.704 -10.004   2.205  0.00  0.00    +0.026 A 
ATOM     14  C   UNL     1      -6.510  -8.602   2.063  0.00  0.00    +0.043 A 
ATOM     15  N   UNL     1      -6.413  -7.837   1.003  0.00  0.00    -0.380 N 
ATOM     16  C   UNL     1      -6.221  -6.450   1.443  0.00  0.00    +0.144 C 
ATOM     17  H   UNL     1      -6.464  -8.137   0.082  0.00  0.00    +0.160 HD
ENDBRANCH   7   8
ENDBRANCH   5   7
ENDBRANCH   3   5
BRANCH   1  18
ATOM     18  C   UNL     1      -2.028  -4.348   1.292  0.00  0.00    +0.111 C 
BRANCH  18  29
ATOM     19  C   UNL     1       0.713   1.448  -0.559  0.00  0.00    +0.044 C 
ATOM     20  C   UNL     1       0.543  -0.043  -0.420  0.00  0.00    -0.044 A 
ATOM     21  C   UNL     1       0.517  -0.844  -1.546  0.00  0.00    +0.049 A 
ATOM     22  C   UNL     1       0.365  -2.216  -1.415  0.00  0.00    +0.124 A 
ATOM     23  C   UNL     1       0.235  -2.790  -0.155  0.00  0.00    +0.040 A 
ATOM     24  C   UNL     1       0.255  -1.985   0.968  0.00  0.00    +0.139 A 
ATOM     25  C   UNL     1       0.418  -0.609   0.832  0.00  0.00    +0.050 A 
ATOM     26  O   UNL     1       0.111  -2.497   2.221  0.00  0.00    -0.425 OA
ATOM     27  C   UNL     1       0.167  -3.837   2.356  0.00  0.00    +0.317 C 
ATOM     28  O   UNL     1       0.746  -4.356   3.281  0.00  0.00    -0.250 OA
ATOM     29  C   UNL     1      -0.530  -4.662   1.293  0.00  0.00    +0.114 C 
ATOM     30  C   UNL     1       0.082  -4.287  -0.060  0.00  0.00    +0.037 C 
ATOM     31  C   UNL     1      -0.831  -4.777  -1.185  0.00  0.00    +0.013 C 
BRANCH  22  32
ATOM     32  O   UNL     1       0.341  -3.002  -2.523  0.00  0.00    -0.506 OA
ATOM     33  H   UNL     1       1.212  -3.323  -2.796  0.00  0.00    +0.292 HD
ENDBRANCH  22  32
ENDBRANCH  18  29
ENDBRANCH   1  18
TORSDOF 6
