REMARK  Name = ZINC20877074
REMARK  17 active torsions:
REMARK  status: ('A' for Active; 'I' for Inactive)
REMARK    1  A    between atoms: C_1  and  C_2
REMARK    2  A    between atoms: C_2  and  C_3
REMARK    3  A    between atoms: C_2  and  C_4
REMARK    4  A    between atoms: C_2  and  C_5
REMARK    5  A    between atoms: C_5  and  C_6
REMARK    6  A    between atoms: C_6  and  C_7
REMARK    7  A    between atoms: C_6  and  C_8
REMARK    8  A    between atoms: C_6  and  N_9
REMARK    9  A    between atoms: N_9  and  C_10
REMARK   10  A    between atoms: C_10  and  C_11
REMARK   11  A    between atoms: C_13  and  O_32
REMARK   12  A    between atoms: C_14  and  O_18
REMARK   13  A    between atoms: O_18  and  C_19
REMARK   14  A    between atoms: C_19  and  C_20
REMARK   15  A    between atoms: C_20  and  C_22
REMARK   16  A    between atoms: C_20  and  O_31
REMARK   17  A    between atoms: O_32  and  C_33
REMARK                            x       y       z     vdW  Elec       q    Type
REMARK                         _______ _______ _______ _____ _____    ______ ____
ROOT
ATOM      1  C   UNL     1      -5.282   0.725  -5.009  0.00  0.00    -0.060 A 
ATOM      2  C   UNL     1      -5.216   0.892  -3.638  0.00  0.00    +0.051 A 
ATOM      3  C   UNL     1      -4.498  -0.005  -2.865  0.00  0.00    +0.163 A 
ATOM      4  C   UNL     1      -3.836  -1.069  -3.471  0.00  0.00    +0.176 A 
ATOM      5  C   UNL     1      -3.907  -1.231  -4.846  0.00  0.00    +0.063 A 
ATOM      6  C   UNL     1      -4.630  -0.333  -5.612  0.00  0.00    +0.021 A 
ATOM      7 BR   UNL     1      -3.015  -2.677  -5.675  0.00  0.00    -0.046 Br
ENDROOT
BRANCH   3   8
ATOM      8  O   UNL     1      -4.436   0.155  -1.516  0.00  0.00    -0.491 OA
ATOM      9  C   UNL     1      -5.139   1.268  -0.961  0.00  0.00    +0.277 C 
ENDBRANCH   3   8
BRANCH   1  10
ATOM     10  C   UNL     1      -6.069   1.700  -5.848  0.00  0.00    -0.046 C 
BRANCH  10  11
ATOM     11  N   UNL     1      -7.456   1.232  -5.970  0.00  0.00    +0.385 N 
ATOM     12  H   UNL     1      -7.893   1.158  -4.963  0.00  0.00    -0.085 HD
ATOM     13  H   UNL     1      -7.453   0.239  -6.443  0.00  0.00    -0.085 HD
BRANCH  11  14
ATOM     14  C   UNL     1      -8.254   2.160  -6.783  0.00  0.00    -0.073 C 
ATOM     15  C   UNL     1      -8.258   3.541  -6.125  0.00  0.00    -0.010 C 
ATOM     16  C   UNL     1      -7.646   2.264  -8.183  0.00  0.00    -0.010 C 
BRANCH  14  17
ATOM     17  C   UNL     1      -9.690   1.641  -6.888  0.00  0.00    -0.007 C 
BRANCH  17  19
ATOM     18  C   UNL     1      -9.171  -0.610  -5.935  0.00  0.00    +0.010 C 
ATOM     19  C   UNL     1      -9.669   0.138  -7.174  0.00  0.00    -0.039 C 
ATOM     20  C   UNL     1     -11.082  -0.334  -7.522  0.00  0.00    +0.010 C 
ATOM     21  C   UNL     1      -8.733  -0.144  -8.351  0.00  0.00    +0.010 C 
ENDBRANCH  17  19
ENDBRANCH  14  17
ENDBRANCH  11  14
ENDBRANCH  10  11
ENDBRANCH   1  10
BRANCH   4  22
ATOM     22  O   UNL     1      -3.126  -1.950  -2.717  0.00  0.00    -0.484 OA
BRANCH  22  23
ATOM     23  C   UNL     1      -1.747  -1.650  -2.495  0.00  0.00    +0.265 C 
BRANCH  23  24
ATOM     24  C   UNL     1      -1.119  -2.746  -1.632  0.00  0.00    +0.182 C 
BRANCH  24  25
ATOM     25  C   UNL     1       0.361  -2.496  -1.500  0.00  0.00    -0.012 A 
ATOM     26  C   UNL     1       0.831  -1.636  -0.526  0.00  0.00    +0.010 A 
ATOM     27  C   UNL     1       2.189  -1.406  -0.398  0.00  0.00    +0.050 A 
ATOM     28  C   UNL     1       3.081  -2.032  -1.254  0.00  0.00    +0.166 A 
ATOM     29  C   UNL     1       2.607  -2.895  -2.239  0.00  0.00    +0.167 A 
ATOM     30  C   UNL     1       1.246  -3.123  -2.358  0.00  0.00    +0.055 A 
ATOM     31  O   UNL     1       3.671  -3.378  -2.944  0.00  0.00    -0.453 OA
ATOM     32  C   UNL     1       4.825  -3.122  -2.122  0.00  0.00    +0.466 C 
ATOM     33  O   UNL     1       4.442  -1.974  -1.342  0.00  0.00    -0.453 OA
ENDBRANCH  24  25
BRANCH  24  34
ATOM     34  O   UNL     1      -1.721  -2.735  -0.336  0.00  0.00    -0.384 OA
ATOM     35  H   UNL     1      -1.396  -3.458   0.427  0.00  0.00    +0.210 HD
ENDBRANCH  24  34
ENDBRANCH  23  24
ENDBRANCH  22  23
ENDBRANCH   4  22
TORSDOF 11
