REMARK  Name = ZINC12661803
REMARK  10 active torsions:
REMARK  status: ('A' for Active; 'I' for Inactive)
REMARK    1  A    between atoms: C_1  and  C_2
REMARK    2  A    between atoms: C_19  and  C_21
REMARK    3  A    between atoms: C_21  and  N_71
REMARK    4  A    between atoms: C_22  and  N_71
REMARK    5  A    between atoms: C_23  and  C_24
REMARK    6  A    between atoms: C_23  and  N_71
REMARK    7  A    between atoms: C_24  and  C_26
REMARK    8  A    between atoms: C_24  and  O_38
REMARK    9  A    between atoms: C_26  and  O_27
REMARK   10  A    between atoms: O_27  and  C_28
REMARK                            x       y       z     vdW  Elec       q    Type
REMARK                         _______ _______ _______ _____ _____    ______ ____
ROOT
ATOM      1  C   UNL     1       3.722  -2.454   0.823  0.00  0.00    -0.096 C 
ATOM      2  N   UNL     1       5.022  -2.978   0.355  0.00  0.00    +0.380 N 
ATOM      3  H   UNL     1       5.727  -2.819   1.084  0.00  0.00    -0.082 HD
ENDROOT
BRANCH   2   4
ATOM      4  C   UNL     1       4.918  -4.430   0.096  0.00  0.00    -0.064 C 
BRANCH   4  20
ATOM      5  C   UNL     1      10.314  -6.873  -1.707  0.00  0.00    +0.012 C 
ATOM      6  C   UNL     1       8.911  -7.227  -1.211  0.00  0.00    -0.022 C 
ATOM      7  C   UNL     1       8.717  -8.740  -1.283  0.00  0.00    +0.007 C 
ATOM      8  C   UNL     1       9.010  -9.226  -2.705  0.00  0.00    +0.005 C 
ATOM      9  C   UNL     1       8.011  -8.596  -3.680  0.00  0.00    +0.030 C 
ATOM     10  C   UNL     1       8.039  -7.093  -3.507  0.00  0.00    -0.073 C 
ATOM     11  C   UNL     1       8.203  -6.297  -4.535  0.00  0.00    +0.008 C 
ATOM     12  C   UNL     1       7.870  -6.539  -2.105  0.00  0.00    +0.021 C 
ATOM     13  C   UNL     1       6.479  -6.932  -1.601  0.00  0.00    +0.016 C 
ATOM     14  C   UNL     1       6.267  -6.546  -0.161  0.00  0.00    +0.042 C 
ATOM     15  C   UNL     1       7.377  -7.049   0.785  0.00  0.00    +0.181 C 
ATOM     16  C   UNL     1       8.760  -6.727   0.217  0.00  0.00    +0.052 C 
ATOM     17  O   UNL     1       7.191  -6.142   1.939  0.00  0.00    -0.461 OA
ATOM     18  C   UNL     1       6.980  -4.904   1.442  0.00  0.00    +0.309 C 
ATOM     19  O   UNL     1       7.264  -3.867   1.995  0.00  0.00    -0.251 OA
ATOM     20  C   UNL     1       6.326  -5.026   0.075  0.00  0.00    +0.088 C 
ENDBRANCH   4  20
ENDBRANCH   2   4
BRANCH   2  21
ATOM     21  C   UNL     1       5.437  -2.274  -0.877  0.00  0.00    -0.044 C 
BRANCH  21  22
ATOM     22  C   UNL     1       5.753  -0.818  -0.530  0.00  0.00    +0.135 C 
BRANCH  22  23
ATOM     23  O   UNL     1       6.872  -0.772   0.357  0.00  0.00    -0.390 OA
ATOM     24  H   UNL     1       7.679  -1.160  -0.007  0.00  0.00    +0.210 HD
ENDBRANCH  22  23
BRANCH  22  25
ATOM     25  C   UNL     1       6.085  -0.049  -1.810  0.00  0.00    +0.258 C 
BRANCH  25  26
ATOM     26  O   UNL     1       6.266   1.335  -1.502  0.00  0.00    -0.489 OA
BRANCH  26  27
ATOM     27  C   UNL     1       6.568   2.162  -2.535  0.00  0.00    +0.128 A 
ATOM     28  C   UNL     1       6.688   1.665  -3.803  0.00  0.00    +0.046 A 
ATOM     29  C   UNL     1       7.002   2.499  -4.872  0.00  0.00    +0.004 A 
ATOM     30  C   UNL     1       7.189   3.835  -4.689  0.00  0.00    +0.009 A 
ATOM     31  C   UNL     1       7.075   4.386  -3.401  0.00  0.00    -0.014 A 
ATOM     32  C   UNL     1       6.761   3.540  -2.308  0.00  0.00    +0.024 A 
ATOM     33  C   UNL     1       6.647   4.090  -1.022  0.00  0.00    +0.012 A 
ATOM     34  C   UNL     1       6.840   5.425  -0.840  0.00  0.00    +0.001 A 
ATOM     35  C   UNL     1       7.149   6.258  -1.914  0.00  0.00    +0.001 A 
ATOM     36  C   UNL     1       7.268   5.760  -3.175  0.00  0.00    +0.008 A 
ENDBRANCH  26  27
ENDBRANCH  25  26
ENDBRANCH  22  25
ENDBRANCH  21  22
ENDBRANCH   2  21
TORSDOF 8
