REMARK  Name = ZINC12372585
REMARK  8 active torsions:
REMARK  status: ('A' for Active; 'I' for Inactive)
REMARK    1  A    between atoms: C_1  and  C_2
REMARK    2  A    between atoms: C_3  and  C_26
REMARK    3  A    between atoms: N_4  and  C_18
REMARK    4  A    between atoms: C_5  and  N_17
REMARK    5  A    between atoms: C_6  and  S_7
REMARK    6  A    between atoms: S_7  and  C_10
REMARK    7  A    between atoms: C_18  and  C_19
REMARK    8  A    between atoms: C_19  and  C_20
REMARK                            x       y       z     vdW  Elec       q    Type
REMARK                         _______ _______ _______ _____ _____    ______ ____
ROOT
ATOM      1  C   UNL     1       3.608   0.666  -0.029  0.00  0.00    +0.047 C 
ATOM      2  C   UNL     1       2.101   0.663  -0.014  0.00  0.00    -0.003 A 
ATOM      3  C   UNL     1       1.306  -0.424  -0.013  0.00  0.00    +0.022 A 
ATOM      4  N   UNL     1       0.002  -0.004   0.002  0.00  0.00    -0.331 N 
ATOM      5  C   UNL     1      -0.016   1.361   0.009  0.00  0.00    +0.123 A 
ATOM      6  C   UNL     1       1.266   1.800  -0.000  0.00  0.00    +0.136 A 
ATOM      7  C   UNL     1       1.772  -1.858  -0.024  0.00  0.00    +0.064 C 
ENDROOT
BRANCH   6   8
ATOM      8  S   UNL     1       1.794   3.481   0.003  0.00  0.00    +0.029 S 
ATOM      9  O   UNL     1       3.098   3.499  -0.561  0.00  0.00    -0.164 OA
ATOM     10  O   UNL     1       0.721   4.244  -0.534  0.00  0.00    -0.164 OA
BRANCH   8  11
ATOM     11  C   UNL     1       1.966   3.970   1.687  0.00  0.00    +0.094 A 
ATOM     12  C   UNL     1       0.892   4.525   2.358  0.00  0.00    +0.030 A 
ATOM     13  C   UNL     1       1.025   4.904   3.680  0.00  0.00    +0.040 A 
ATOM     14  C   UNL     1       2.236   4.738   4.330  0.00  0.00    +0.124 A 
ATOM     15  C   UNL     1       3.312   4.187   3.655  0.00  0.00    +0.040 A 
ATOM     16  C   UNL     1       3.176   3.803   2.334  0.00  0.00    +0.030 A 
ATOM     17  F   UNL     1       2.368   5.113   5.621  0.00  0.00    -0.205 F 
ENDBRANCH   8  11
ENDBRANCH   6   8
BRANCH   5  18
ATOM     18  N   UNL     1      -1.157   2.164   0.019  0.00  0.00    -0.343 N 
ATOM     19  H   UNL     1      -2.037   1.757   0.022  0.00  0.00    +0.144 HD
ATOM     20  H   UNL     1      -1.069   3.130   0.024  0.00  0.00    +0.144 HD
ENDBRANCH   5  18
BRANCH   4  21
ATOM     21  C   UNL     1      -1.176  -0.875   0.008  0.00  0.00    +0.127 C 
BRANCH  21  22
ATOM     22  C   UNL     1      -1.600  -1.169  -1.432  0.00  0.00    +0.052 C 
BRANCH  22  23
ATOM     23  C   UNL     1      -2.812  -2.065  -1.426  0.00  0.00    -0.072 C 
ATOM     24  C   UNL     1      -3.978  -1.509  -1.511  0.00  0.00    -0.028 C 
ATOM     25  C   UNL     1      -5.273  -2.267  -1.508  0.00  0.00    +0.027 C 
ATOM     26  C   UNL     1      -5.020  -3.744  -1.817  0.00  0.00    +0.004 C 
ATOM     27  C   UNL     1      -3.890  -4.243  -0.907  0.00  0.00    +0.005 C 
ATOM     28  C   UNL     1      -2.592  -3.546  -1.327  0.00  0.00    +0.030 C 
ENDBRANCH  22  23
ENDBRANCH  21  22
ENDBRANCH   4  21
TORSDOF 6
