REMARK  Name = ZINC39638661
REMARK  10 active torsions:
REMARK  status: ('A' for Active; 'I' for Inactive)
REMARK    1  A    between atoms: C_1  and  C_2
REMARK    2  A    between atoms: C_2  and  C_3
REMARK    3  A    between atoms: C_3  and  C_5
REMARK    4  A    between atoms: C_3  and  C_11
REMARK    5  A    between atoms: C_15  and  C_24
REMARK    6  A    between atoms: N_26  and  C_27
REMARK    7  A    between atoms: C_27  and  C_28
REMARK    8  A    between atoms: C_33  and  O_34
REMARK    9  A    between atoms: O_34  and  C_35
REMARK   10  A    between atoms: C_35  and  C_36
REMARK                            x       y       z     vdW  Elec       q    Type
REMARK                         _______ _______ _______ _____ _____    ______ ____
ROOT
ATOM      1  C   UNL     1       0.838  -2.160   1.176  0.00  0.00    +0.223 C 
ATOM      2  O   UNL     1       0.403  -2.872   2.057  0.00  0.00    -0.275 OA
ATOM      3  N   UNL     1       1.528  -2.701   0.152  0.00  0.00    -0.300 N 
ATOM      4  C   UNL     1       2.136  -2.001  -1.003  0.00  0.00    +0.121 C 
ATOM      5  C   UNL     1       3.483  -2.723  -1.232  0.00  0.00    +0.100 C 
ATOM      6  C   UNL     1       3.287  -4.121  -0.621  0.00  0.00    -0.004 C 
ATOM      7  C   UNL     1       1.854  -4.130  -0.069  0.00  0.00    +0.115 C 
ATOM      8  C   UNL     1       4.284  -4.346   0.512  0.00  0.00    -0.010 C 
ATOM      9  C   UNL     1       4.108  -5.763   1.066  0.00  0.00    -0.082 C 
ATOM     10  N   UNL     1       4.327  -6.741  -0.007  0.00  0.00    +0.379 N 
ATOM     11  C   UNL     1       3.306  -6.577  -1.050  0.00  0.00    -0.082 C 
ATOM     12  C   UNL     1       3.448  -5.194  -1.693  0.00  0.00    -0.010 C 
ATOM     13  H   UNL     1       5.242  -6.598  -0.409  0.00  0.00    -0.086 HD
ATOM     14  H   UNL     1       4.271  -7.674   0.373  0.00  0.00    -0.086 HD
ENDROOT
BRANCH   5  15
ATOM     15  C   UNL     1       3.777  -2.829  -2.706  0.00  0.00    +0.218 C 
ATOM     16  O   UNL     1       2.866  -2.920  -3.502  0.00  0.00    -0.275 OA
ATOM     17  N   UNL     1       5.053  -2.823  -3.141  0.00  0.00    -0.311 N 
ATOM     18  H   UNL     1       5.781  -2.751  -2.505  0.00  0.00    +0.149 HD
BRANCH  17  19
ATOM     19  C   UNL     1       5.339  -2.926  -4.574  0.00  0.00    +0.143 C 
BRANCH  19  20
ATOM     20  C   UNL     1       6.830  -2.897  -4.792  0.00  0.00    +0.011 A 
ATOM     21  C   UNL     1       7.448  -1.724  -5.184  0.00  0.00    +0.009 A 
ATOM     22  C   UNL     1       8.815  -1.697  -5.384  0.00  0.00    +0.001 A 
ATOM     23  C   UNL     1       9.568  -2.841  -5.194  0.00  0.00    +0.004 A 
ATOM     24  C   UNL     1       8.955  -4.015  -4.802  0.00  0.00    +0.046 A 
ATOM     25  C   UNL     1       7.583  -4.044  -4.595  0.00  0.00    +0.125 A 
BRANCH  25  26
ATOM     26  O   UNL     1       6.978  -5.197  -4.204  0.00  0.00    -0.492 OA
BRANCH  26  27
ATOM     27  C   UNL     1       7.816  -6.339  -4.020  0.00  0.00    +0.225 C 
ATOM     28  C   UNL     1       6.964  -7.532  -3.584  0.00  0.00    +0.048 C 
ENDBRANCH  26  27
ENDBRANCH  25  26
ENDBRANCH  19  20
ENDBRANCH  17  19
ENDBRANCH   5  15
BRANCH   1  29
ATOM     29  C   UNL     1       0.606  -0.672   1.226  0.00  0.00    +0.105 C 
BRANCH  29  30
ATOM     30  C   UNL     1      -0.185  -0.328   2.462  0.00  0.00    -0.036 A 
ATOM     31  C   UNL     1      -1.441  -0.873   2.652  0.00  0.00    +0.004 A 
ATOM     32  C   UNL     1      -2.167  -0.557   3.786  0.00  0.00    +0.000 A 
ATOM     33  C   UNL     1      -1.636   0.303   4.729  0.00  0.00    +0.000 A 
ATOM     34  C   UNL     1      -0.379   0.847   4.539  0.00  0.00    +0.000 A 
ATOM     35  C   UNL     1       0.348   0.528   3.407  0.00  0.00    +0.004 A 
ENDBRANCH  29  30
BRANCH  29  37
ATOM     36  C   UNL     1      -0.300   1.289  -0.029  0.00  0.00    +0.005 C 
ATOM     37  C   UNL     1      -0.173  -0.235  -0.016  0.00  0.00    +0.014 C 
ENDBRANCH  29  37
ENDBRANCH   1  29
TORSDOF 8
