REMARK  Name = ZINC12655940
REMARK  5 active torsions:
REMARK  status: ('A' for Active; 'I' for Inactive)
REMARK    1  A    between atoms: C_1  and  C_2
REMARK    2  A    between atoms: C_6  and  C_24
REMARK    3  A    between atoms: C_7  and  C_11
REMARK    4  A    between atoms: N_14  and  N_15
REMARK    5  A    between atoms: C_19  and  C_23
REMARK                            x       y       z     vdW  Elec       q    Type
REMARK                         _______ _______ _______ _____ _____    ______ ____
ROOT
ATOM      1  C   UNL     1       1.000   5.936   0.303  0.00  0.00    +0.173 A 
ATOM      2  C   UNL     1       2.248   5.407   0.315  0.00  0.00    +0.080 A 
ATOM      3  C   UNL     1       2.399   3.970   0.013  0.00  0.00    +0.095 A 
ATOM      4  N   UNL     1       3.569   3.432  -0.237  0.00  0.00    -0.189 NA
ATOM      5  C   UNL     1       1.147   3.170   0.008  0.00  0.00    +0.044 A 
ATOM      6  C   UNL     1       1.176   1.782   0.000  0.00  0.00    +0.014 A 
ATOM      7  C   UNL     1      -0.013   1.076   0.008  0.00  0.00    +0.004 A 
ATOM      8  C   UNL     1      -1.221   1.750   0.017  0.00  0.00    -0.047 A 
ATOM      9  C   UNL     1      -1.256   3.132   0.029  0.00  0.00    +0.050 A 
ATOM     10  C   UNL     1      -0.074   3.857   0.019  0.00  0.00    +0.138 A 
ATOM     11  O   UNL     1      -0.096   5.208   0.013  0.00  0.00    -0.452 OA
ATOM     12  C   UNL     1      -2.510   0.971   0.021  0.00  0.00    +0.044 C 
ENDROOT
BRANCH   1  19
ATOM     13  C   UNL     1       1.869  13.076   2.076  0.00  0.00    +0.044 C 
ATOM     14  C   UNL     1       1.205  11.777   1.697  0.00  0.00    -0.047 A 
ATOM     15  C   UNL     1      -0.173  11.732   1.537  0.00  0.00    +0.004 A 
ATOM     16  C   UNL     1      -0.792  10.563   1.194  0.00  0.00    +0.012 A 
ATOM     17  C   UNL     1      -0.031   9.407   1.005  0.00  0.00    +0.024 A 
ATOM     18  C   UNL     1      -0.349   8.025   0.645  0.00  0.00    +0.006 A 
ATOM     19  C   UNL     1       0.837   7.360   0.619  0.00  0.00    +0.174 A 
ATOM     20  O   UNL     1       1.839   8.206   0.932  0.00  0.00    -0.451 OA
ATOM     21  C   UNL     1       1.366   9.447   1.167  0.00  0.00    +0.136 A 
ATOM     22  C   UNL     1       1.973  10.647   1.515  0.00  0.00    +0.050 A 
ATOM     23  C   UNL     1      -1.715   7.453   0.362  0.00  0.00    +0.048 C 
ENDBRANCH   1  19
BRANCH   4  24
ATOM     24  N   UNL     1       4.723   4.226  -0.222  0.00  0.00    -0.282 N 
ATOM     25  H   UNL     1       5.588   3.827  -0.406  0.00  0.00    +0.164 HD
ATOM     26  H   UNL     1       4.657   5.173  -0.026  0.00  0.00    +0.164 HD
ENDBRANCH   4  24
TORSDOF 2
