REMARK  Name = ZINC10180024
REMARK  7 active torsions:
REMARK  status: ('A' for Active; 'I' for Inactive)
REMARK    1  A    between atoms: C_1  and  C_2
REMARK    2  A    between atoms: C_8  and  N_10
REMARK    3  A    between atoms: C_14  and  C_16
REMARK    4  A    between atoms: C_16  and  N_17
REMARK    5  A    between atoms: N_17  and  C_18
REMARK    6  A    between atoms: C_23  and  C_24
REMARK    7  A    between atoms: N_26  and  C_27
REMARK                            x       y       z     vdW  Elec       q    Type
REMARK                         _______ _______ _______ _____ _____    ______ ____
ROOT
ATOM      1  N   UNL     1       0.009  -0.193   2.488  0.00  0.00    -0.296 N 
ATOM      2  C   UNL     1       0.699  -0.032   3.635  0.00  0.00    +0.306 C 
ATOM      3  O   UNL     1       1.886  -0.290   3.671  0.00  0.00    -0.252 OA
ATOM      4  N   UNL     1       0.073   0.416   4.741  0.00  0.00    -0.239 N 
ATOM      5  C   UNL     1       0.763   0.577   5.887  0.00  0.00    +0.237 C 
ATOM      6  O   UNL     1       1.947   0.319   5.923  0.00  0.00    -0.274 OA
ATOM      7  H   UNL     1      -0.938   0.013   2.459  0.00  0.00    +0.151 HD
ATOM      8  H   UNL     1      -0.875   0.622   4.712  0.00  0.00    +0.159 HD
ENDROOT
BRANCH   1  15
ATOM      9  C   UNL     1      -0.106   1.325   0.024  0.00  0.00    +0.009 C 
ATOM     10  C   UNL     1      -0.067  -0.204   0.044  0.00  0.00    +0.006 C 
ATOM     11  C   UNL     1       0.644  -0.713  -1.212  0.00  0.00    +0.005 C 
ATOM     12  C   UNL     1       0.683  -2.242  -1.193  0.00  0.00    +0.000 C 
ATOM     13  C   UNL     1       1.440  -2.717   0.049  0.00  0.00    +0.002 C 
ATOM     14  C   UNL     1       0.729  -2.209   1.305  0.00  0.00    +0.022 C 
ATOM     15  C   UNL     1       0.690  -0.679   1.286  0.00  0.00    +0.077 C 
ENDBRANCH   1  15
BRANCH   5  16
ATOM     16  C   UNL     1       0.062   1.077   7.124  0.00  0.00    +0.198 C 
BRANCH  16  17
ATOM     17  N   UNL     1       1.023   1.165   8.227  0.00  0.00    -0.335 N 
ATOM     18  H   UNL     1       1.949   0.916   8.085  0.00  0.00    +0.147 HD
BRANCH  17  19
ATOM     19  C   UNL     1       0.606   1.605   9.477  0.00  0.00    +0.040 A 
ATOM     20  C   UNL     1      -0.691   2.068   9.658  0.00  0.00    +0.024 A 
ATOM     21  C   UNL     1      -1.103   2.503  10.901  0.00  0.00    +0.002 A 
ATOM     22  C   UNL     1      -0.229   2.484  11.976  0.00  0.00    +0.001 A 
ATOM     23  C   UNL     1       1.062   2.029  11.816  0.00  0.00    +0.015 A 
ATOM     24  C   UNL     1       1.492   1.579  10.565  0.00  0.00    +0.057 A 
BRANCH  24  25
ATOM     25  C   UNL     1       2.870   1.085  10.389  0.00  0.00    +0.246 C 
ATOM     26  O   UNL     1       3.275   0.796   9.279  0.00  0.00    -0.270 OA
ATOM     27  N   UNL     1       3.681   0.954  11.457  0.00  0.00    -0.314 N 
ATOM     28  C   UNL     1       5.050   0.463  11.281  0.00  0.00    +0.128 C 
ATOM     29  H   UNL     1       3.358   1.184  12.342  0.00  0.00    +0.149 HD
ENDBRANCH  24  25
ENDBRANCH  17  19
ENDBRANCH  16  17
ENDBRANCH   5  16
TORSDOF 5
