REMARK  Name = ZINC12363833
REMARK  6 active torsions:
REMARK  status: ('A' for Active; 'I' for Inactive)
REMARK    1  A    between atoms: C_1  and  C_2
REMARK    2  A    between atoms: C_2  and  C_4
REMARK    3  A    between atoms: C_4  and  N_5
REMARK    4  A    between atoms: C_19  and  C_22
REMARK    5  A    between atoms: C_22  and  C_23
REMARK    6  A    between atoms: N_31  and  C_34
REMARK                            x       y       z     vdW  Elec       q    Type
REMARK                         _______ _______ _______ _____ _____    ______ ____
ROOT
ATOM      1  N   UNL     1      -1.379  -0.906  -1.778  0.00  0.00    -0.265 N 
ATOM      2  C   UNL     1      -2.196  -1.991  -1.451  0.00  0.00    +0.042 A 
ATOM      3  C   UNL     1      -1.948  -3.113  -0.664  0.00  0.00    +0.024 A 
ATOM      4  C   UNL     1      -2.929  -4.066  -0.484  0.00  0.00    +0.002 A 
ATOM      5  C   UNL     1      -4.167  -3.915  -1.084  0.00  0.00    +0.000 A 
ATOM      6  C   UNL     1      -4.422  -2.804  -1.867  0.00  0.00    +0.008 A 
ATOM      7  C   UNL     1      -3.445  -1.850  -2.050  0.00  0.00    +0.004 A 
ATOM      8  C   UNL     1      -3.387  -0.561  -2.817  0.00  0.00    +0.136 C 
ATOM      9  C   UNL     1      -2.007  -0.018  -2.572  0.00  0.00    +0.246 C 
ATOM     10  O   UNL     1      -1.548   1.017  -3.007  0.00  0.00    -0.273 OA
ATOM     11  C   UNL     1      -4.477   0.412  -2.415  0.00  0.00    +0.123 C 
ATOM     12  C   UNL     1      -4.371   1.350  -3.680  0.00  0.00    +0.108 C 
ATOM     13  C   UNL     1      -4.350   0.410  -4.809  0.00  0.00    +0.072 C 
ATOM     14  N   UNL     1      -3.618  -0.797  -4.269  0.00  0.00    -0.295 NA
ATOM     15  C   UNL     1      -5.072   2.531  -3.237  0.00  0.00    +0.232 C 
ATOM     16  O   UNL     1      -5.751   3.281  -3.904  0.00  0.00    -0.274 OA
ATOM     17  N   UNL     1      -4.801   2.619  -1.894  0.00  0.00    -0.210 N 
ATOM     18  C   UNL     1      -4.243   1.467  -1.378  0.00  0.00    +0.233 C 
ATOM     19  O   UNL     1      -3.678   1.331  -0.315  0.00  0.00    -0.274 OA
ATOM     20  H   UNL     1      -2.746  -0.946  -4.753  0.00  0.00    +0.124 HD
ENDROOT
BRANCH  17  21
ATOM     21  C   UNL     1      -5.072   3.756  -1.120  0.00  0.00    +0.044 A 
ATOM     22  C   UNL     1      -4.762   3.767   0.233  0.00  0.00    +0.024 A 
ATOM     23  C   UNL     1      -5.030   4.889   0.993  0.00  0.00    +0.002 A 
ATOM     24  C   UNL     1      -5.608   6.000   0.406  0.00  0.00    +0.000 A 
ATOM     25  C   UNL     1      -5.918   5.992  -0.941  0.00  0.00    +0.002 A 
ATOM     26  C   UNL     1      -5.647   4.875  -1.707  0.00  0.00    +0.024 A 
ENDBRANCH  17  21
BRANCH   1  27
ATOM     27  C   UNL     1      -0.000  -0.750  -1.307  0.00  0.00    +0.143 C 
BRANCH  27  29
ATOM     28  C   UNL     1      -0.018   1.503   0.010  0.00  0.00    +0.040 C 
ATOM     29  C   UNL     1       0.002  -0.004   0.002  0.00  0.00    -0.062 C 
ATOM     30  C   UNL     1       0.022  -0.665   1.133  0.00  0.00    +0.009 C 
ENDBRANCH  27  29
ENDBRANCH   1  27
BRANCH  13  31
ATOM     31  C   UNL     1      -5.775   0.055  -5.235  0.00  0.00    +0.054 C 
BRANCH  31  32
ATOM     32  C   UNL     1      -5.730  -0.811  -6.468  0.00  0.00    -0.046 A 
ATOM     33  C   UNL     1      -5.742  -0.229  -7.722  0.00  0.00    +0.004 A 
ATOM     34  C   UNL     1      -5.700  -1.023  -8.852  0.00  0.00    +0.000 A 
ATOM     35  C   UNL     1      -5.647  -2.399  -8.729  0.00  0.00    +0.000 A 
ATOM     36  C   UNL     1      -5.634  -2.981  -7.475  0.00  0.00    +0.000 A 
ATOM     37  C   UNL     1      -5.671  -2.187  -6.345  0.00  0.00    +0.004 A 
ENDBRANCH  31  32
ENDBRANCH  13  31
TORSDOF 5
