REMARK  Name = ZINC02283545
REMARK  7 active torsions:
REMARK  status: ('A' for Active; 'I' for Inactive)
REMARK    1  A    between atoms: C_1  and  C_2
REMARK    2  A    between atoms: C_2  and  C_3
REMARK    3  A    between atoms: C_2  and  C_4
REMARK    4  A    between atoms: C_2  and  C_5
REMARK    5  A    between atoms: C_14  and  N_20
REMARK    6  A    between atoms: C_16  and  S_18
REMARK    7  A    between atoms: S_18  and  C_19
REMARK                            x       y       z     vdW  Elec       q    Type
REMARK                         _______ _______ _______ _____ _____    ______ ____
ROOT
ATOM      1  C   UNL     1       1.182  -1.046  -0.573  0.00  0.00    -0.000 C 
ATOM      2  C   UNL     1       1.176  -2.559  -0.814  0.00  0.00    +0.009 C 
ATOM      3  C   UNL     1       1.505  -2.853  -2.276  0.00  0.00    +0.037 C 
ATOM      4  C   UNL     1       2.798  -2.133  -2.650  0.00  0.00    -0.025 A 
ATOM      5  C   UNL     1       3.255  -1.107  -1.898  0.00  0.00    -0.004 A 
ATOM      6  S   UNL     1       4.756  -0.581  -2.687  0.00  0.00    -0.073 S 
ATOM      7  C   UNL     1       4.772  -1.734  -4.021  0.00  0.00    +0.115 A 
ATOM      8  C   UNL     1       3.597  -2.499  -3.809  0.00  0.00    +0.051 A 
ATOM      9  C   UNL     1       3.325  -3.538  -4.745  0.00  0.00    +0.139 A 
ATOM     10  N   UNL     1       4.209  -3.682  -5.728  0.00  0.00    -0.206 NA
ATOM     11  C   UNL     1       5.290  -2.929  -5.867  0.00  0.00    +0.191 A 
ATOM     12  N   UNL     1       5.601  -1.940  -5.024  0.00  0.00    -0.215 NA
ATOM     13  C   UNL     1       2.627  -0.537  -0.664  0.00  0.00    +0.046 C 
ENDROOT
BRANCH   9  14
ATOM     14  N   UNL     1       2.205  -4.350  -4.638  0.00  0.00    -0.254 N 
ATOM     15  C   UNL     1       2.047  -5.394  -5.476  0.00  0.00    +0.302 C 
ATOM     16  O   UNL     1       2.885  -5.624  -6.325  0.00  0.00    -0.253 OA
ATOM     17  N   UNL     1       0.959  -6.183  -5.372  0.00  0.00    -0.313 N 
ATOM     18  H   UNL     1       1.536  -4.167  -3.960  0.00  0.00    +0.158 HD
ATOM     19  H   UNL     1       0.290  -5.999  -4.694  0.00  0.00    +0.146 HD
ATOM     20  H   UNL     1       0.845  -6.934  -5.975  0.00  0.00    +0.146 HD
ENDBRANCH   9  14
BRANCH   1  22
ATOM     21  C   UNL     1       0.633   0.766   1.057  0.00  0.00    +0.011 C 
ATOM     22  C   UNL     1       0.618  -0.745   0.817  0.00  0.00    -0.035 C 
ATOM     23  C   UNL     1       1.476  -1.439   1.877  0.00  0.00    +0.011 C 
ATOM     24  C   UNL     1      -0.820  -1.262   0.907  0.00  0.00    +0.011 C 
ENDBRANCH   1  22
BRANCH  11  25
ATOM     25  S   UNL     1       6.366  -3.244  -7.226  0.00  0.00    -0.089 S 
ATOM     26  C   UNL     1       7.622  -1.974  -6.934  0.00  0.00    +0.093 C 
ENDBRANCH  11  25
TORSDOF 3
