REMARK  Name = ZINC39325276
REMARK  8 active torsions:
REMARK  status: ('A' for Active; 'I' for Inactive)
REMARK    1  A    between atoms: C_1  and  C_2
REMARK    2  A    between atoms: C_9  and  C_14
REMARK    3  A    between atoms: C_14  and  N_15
REMARK    4  A    between atoms: N_15  and  C_16
REMARK    5  A    between atoms: N_15  and  S_24
REMARK    6  A    between atoms: C_16  and  C_17
REMARK    7  A    between atoms: S_24  and  C_27
REMARK    8  A    between atoms: C_28  and  C_36
REMARK                            x       y       z     vdW  Elec       q    Type
REMARK                         _______ _______ _______ _____ _____    ______ ____
ROOT
ATOM      1  N   UNL     1       1.223  -6.531   3.692  0.00  0.00    -0.171 NA
ENDROOT
BRANCH   1   2
ATOM      2  S   UNL     1       0.276  -7.412   4.728  0.00  0.00    +0.064 S 
ATOM      3  O   UNL     1       0.782  -8.739   4.711  0.00  0.00    -0.153 OA
ATOM      4  O   UNL     1       0.168  -6.652   5.924  0.00  0.00    -0.153 OA
BRANCH   2   5
ATOM      5  C   UNL     1      -1.339  -7.479   4.027  0.00  0.00    +0.136 A 
ATOM      6  C   UNL     1      -1.693  -8.527   3.246  0.00  0.00    -0.022 A 
ATOM      7  C   UNL     1      -2.963  -8.614   2.675  0.00  0.00    +0.007 A 
ATOM      8  C   UNL     1      -3.896  -7.655   2.876  0.00  0.00    +0.031 A 
ATOM      9  C   UNL     1      -3.595  -6.525   3.684  0.00  0.00    +0.102 A 
ATOM     10  C   UNL     1      -2.269  -6.437   4.286  0.00  0.00    +0.126 A 
ATOM     11  N   UNL     1      -2.101  -5.340   5.026  0.00  0.00    -0.189 NA
ATOM     12  S   UNL     1      -3.497  -4.543   4.945  0.00  0.00    +0.117 S 
ATOM     13  N   UNL     1      -4.380  -5.491   3.991  0.00  0.00    -0.191 NA
ATOM     14  C   UNL     1      -0.693  -9.625   2.988  0.00  0.00    +0.046 C 
ENDBRANCH   2   5
ENDBRANCH   1   2
BRANCH   1  15
ATOM     15  C   UNL     1       1.458  -5.107   3.946  0.00  0.00    +0.126 C 
BRANCH  15  24
ATOM     16  C   UNL     1       4.160   0.508   7.435  0.00  0.00    +0.044 C 
ATOM     17  C   UNL     1       3.853  -0.959   7.279  0.00  0.00    -0.050 A 
ATOM     18  C   UNL     1       3.795  -1.769   8.413  0.00  0.00    +0.005 A 
ATOM     19  C   UNL     1       3.523  -3.099   8.351  0.00  0.00    +0.024 A 
ATOM     20  C   UNL     1       3.286  -3.722   7.112  0.00  0.00    +0.040 A 
ATOM     21  N   UNL     1       3.021  -5.027   7.064  0.00  0.00    -0.284 N 
ATOM     22  C   UNL     1       2.789  -5.676   5.934  0.00  0.00    +0.225 C 
ATOM     23  O   UNL     1       2.552  -6.869   5.952  0.00  0.00    -0.275 OA
ATOM     24  C   UNL     1       2.820  -4.928   4.620  0.00  0.00    +0.114 C 
ATOM     25  C   UNL     1       3.121  -3.443   4.670  0.00  0.00    -0.003 C 
ATOM     26  C   UNL     1       3.342  -2.891   5.897  0.00  0.00    -0.007 A 
ATOM     27  C   UNL     1       3.634  -1.464   6.037  0.00  0.00    +0.012 A 
ATOM     28  H   UNL     1       2.996  -5.526   7.896  0.00  0.00    +0.155 HD
ENDBRANCH  15  24
ENDBRANCH   1  15
BRANCH   1  29
ATOM     29  C   UNL     1       1.825  -7.176   2.523  0.00  0.00    +0.144 C 
BRANCH  29  30
ATOM     30  C   UNL     1       3.208  -7.661   2.873  0.00  0.00    -0.031 A 
ATOM     31  C   UNL     1       4.298  -6.830   2.694  0.00  0.00    +0.008 A 
ATOM     32  C   UNL     1       5.566  -7.274   3.015  0.00  0.00    +0.038 A 
ATOM     33  C   UNL     1       5.745  -8.553   3.517  0.00  0.00    +0.123 A 
ATOM     34  C   UNL     1       4.653  -9.384   3.695  0.00  0.00    +0.038 A 
ATOM     35  C   UNL     1       3.384  -8.936   3.378  0.00  0.00    +0.008 A 
ATOM     36  F   UNL     1       6.985  -8.988   3.830  0.00  0.00    -0.205 F 
ENDBRANCH  29  30
ENDBRANCH   1  29
TORSDOF 6
