REMARK  Name = ZINC40933421
REMARK  8 active torsions:
REMARK  status: ('A' for Active; 'I' for Inactive)
REMARK    1  A    between atoms: C_1  and  C_2
REMARK    2  A    between atoms: C_2  and  C_3
REMARK    3  A    between atoms: C_3  and  N_4
REMARK    4  A    between atoms: C_5  and  C_19
REMARK    5  A    between atoms: C_6  and  N_18
REMARK    6  A    between atoms: N_9  and  C_10
REMARK    7  A    between atoms: C_19  and  C_20
REMARK    8  A    between atoms: C_19  and  C_21
REMARK                            x       y       z     vdW  Elec       q    Type
REMARK                         _______ _______ _______ _____ _____    ______ ____
ROOT
ATOM      1  N   UNL     1       0.557  -2.729   1.167  0.00  0.00    -0.279 N 
ATOM      2  C   UNL     1       1.728  -3.261   0.684  0.00  0.00    +0.065 A 
ATOM      3  C   UNL     1       1.645  -4.607   0.760  0.00  0.00    +0.113 A 
ATOM      4  C   UNL     1       0.380  -4.939   1.310  0.00  0.00    +0.293 A 
ATOM      5  O   UNL     1      -0.038  -6.062   1.523  0.00  0.00    -0.264 OA
ATOM      6  N   UNL     1      -0.275  -3.786   1.559  0.00  0.00    -0.214 N 
ENDROOT
BRANCH   6   7
ATOM      7  C   UNL     1      -1.556  -3.668   2.109  0.00  0.00    +0.086 A 
ATOM      8  C   UNL     1      -2.675  -3.753   1.290  0.00  0.00    +0.031 A 
ATOM      9  C   UNL     1      -3.938  -3.637   1.835  0.00  0.00    +0.022 A 
ATOM     10  C   UNL     1      -4.091  -3.434   3.195  0.00  0.00    +0.042 A 
ATOM     11  C   UNL     1      -2.979  -3.348   4.014  0.00  0.00    +0.042 A 
ATOM     12  C   UNL     1      -1.712  -3.470   3.475  0.00  0.00    +0.068 A 
ATOM     13 CL   UNL     1      -0.317  -3.369   4.504  0.00  0.00    -0.081 Cl
ATOM     14 CL   UNL     1      -5.682  -3.287   3.876  0.00  0.00    -0.083 Cl
ENDBRANCH   6   7
BRANCH   3  15
ATOM     15  N   UNL     1       2.642  -5.522   0.363  0.00  0.00    -0.352 N 
ATOM     16  H   UNL     1       3.479  -5.199  -0.005  0.00  0.00    +0.143 HD
ATOM     17  H   UNL     1       2.490  -6.476   0.457  0.00  0.00    +0.143 HD
ENDBRANCH   3  15
BRANCH   2  18
ATOM     18  C   UNL     1       2.903  -2.478   0.159  0.00  0.00    +0.033 C 
ATOM     19  C   UNL     1       2.429  -1.519  -0.935  0.00  0.00    +0.014 C 
ATOM     20  C   UNL     1       3.534  -1.678   1.300  0.00  0.00    +0.014 C 
ENDBRANCH   2  18
BRANCH   1  21
ATOM     21  C   UNL     1       0.236  -1.302   1.261  0.00  0.00    +0.142 C 
BRANCH  21  23
ATOM     22  C   UNL     1      -0.762   0.643   0.053  0.00  0.00    +0.005 C 
ATOM     23  C   UNL     1      -0.531  -0.869   0.010  0.00  0.00    +0.020 C 
ENDBRANCH  21  23
ENDBRANCH   1  21
TORSDOF 5
