REMARK  Name = ZINC35457774
REMARK  10 active torsions:
REMARK  status: ('A' for Active; 'I' for Inactive)
REMARK    1  A    between atoms: C_1  and  C_2
REMARK    2  A    between atoms: N_8  and  C_9
REMARK    3  A    between atoms: C_9  and  C_10
REMARK    4  A    between atoms: C_10  and  C_11
REMARK    5  A    between atoms: C_11  and  N_12
REMARK    6  A    between atoms: C_13  and  C_15
REMARK    7  A    between atoms: C_15  and  C_16
REMARK    8  A    between atoms: C_16  and  C_17
REMARK    9  A    between atoms: C_24  and  C_28
REMARK   10  A    between atoms: N_26  and  C_27
REMARK                            x       y       z     vdW  Elec       q    Type
REMARK                         _______ _______ _______ _____ _____    ______ ____
ROOT
ATOM      1  C   UNL     1       8.341   0.629   7.070  0.00  0.00    +0.216 C 
ATOM      2  O   UNL     1       7.753   0.065   7.968  0.00  0.00    -0.276 OA
ATOM      3  N   UNL     1       9.674   0.816   7.151  0.00  0.00    -0.297 N 
ATOM      4  C   UNL     1      10.405   1.502   6.075  0.00  0.00    +0.114 C 
ATOM      5  C   UNL     1      10.997   2.809   6.618  0.00  0.00    +0.074 C 
ATOM      6  C   UNL     1      11.640   2.533   7.952  0.00  0.00    +0.046 A 
ATOM      7  C   UNL     1      11.387   1.437   8.709  0.00  0.00    +0.023 A 
ATOM      8  C   UNL     1      12.178   1.569   9.861  0.00  0.00    +0.152 A 
ATOM      9  N   UNL     1      12.847   2.703   9.733  0.00  0.00    -0.166 NA
ATOM     10  N   UNL     1      12.541   3.274   8.620  0.00  0.00    -0.270 N 
ATOM     11  C   UNL     1      13.095   4.546   8.149  0.00  0.00    +0.172 C 
ATOM     12  C   UNL     1      10.434   0.343   8.323  0.00  0.00    +0.147 C 
ENDROOT
BRANCH   8  13
ATOM     13  C   UNL     1      12.250   0.625  10.996  0.00  0.00    +0.267 C 
ATOM     14  O   UNL     1      11.668  -0.440  10.938  0.00  0.00    -0.268 OA
ATOM     15  N   UNL     1      12.960   0.946  12.095  0.00  0.00    -0.296 N 
ATOM     16  C   UNL     1      13.539   2.288  12.248  0.00  0.00    +0.108 C 
ATOM     17  C   UNL     1      13.082   2.872  13.588  0.00  0.00    +0.019 C 
ATOM     18  C   UNL     1      13.444   1.900  14.713  0.00  0.00    +0.003 C 
ATOM     19  C   UNL     1      12.720   0.570  14.494  0.00  0.00    +0.019 C 
ATOM     20  C   UNL     1      13.167  -0.038  13.166  0.00  0.00    +0.108 C 
ENDBRANCH   8  13
BRANCH   1  21
ATOM     21  C   UNL     1       7.583   1.120   5.864  0.00  0.00    +0.105 C 
BRANCH  21  22
ATOM     22  C   UNL     1       6.099   0.783   6.022  0.00  0.00    +0.105 C 
BRANCH  22  24
ATOM     23  N   UNL     1       4.009   1.087   4.735  0.00  0.00    -0.315 N 
ATOM     24  C   UNL     1       5.341   1.274   4.816  0.00  0.00    +0.213 C 
ATOM     25  O   UNL     1       5.929   1.838   3.918  0.00  0.00    -0.276 OA
ATOM     26  H   UNL     1       3.538   0.636   5.454  0.00  0.00    +0.149 HD
BRANCH  23  27
ATOM     27  C   UNL     1       3.272   1.564   3.562  0.00  0.00    +0.102 C 
BRANCH  27  28
ATOM     28  C   UNL     1       1.788   1.228   3.721  0.00  0.00    +0.000 C 
BRANCH  28  29
ATOM     29  C   UNL     1       1.018   1.726   2.497  0.00  0.00    -0.077 C 
BRANCH  29  36
ATOM     30  C   UNL     1      -0.913   3.494   1.482  0.00  0.00    -0.013 C 
ATOM     31  C   UNL     1      -1.161   1.985   1.532  0.00  0.00    -0.072 C 
ATOM     32  C   UNL     1      -2.656   1.721   1.730  0.00  0.00    -0.016 C 
ATOM     33  C   UNL     1      -2.899   0.210   1.779  0.00  0.00    -0.003 C 
ATOM     34  C   UNL     1      -2.050  -0.398   2.899  0.00  0.00    -0.019 C 
ATOM     35  C   UNL     1      -0.578  -0.055   2.658  0.00  0.00    -0.078 C 
ATOM     36  N   UNL     1      -0.407   1.403   2.649  0.00  0.00    +0.381 N 
ATOM     37  H   UNL     1      -0.746   1.786   3.519  0.00  0.00    -0.081 HD
ENDBRANCH  29  36
ENDBRANCH  28  29
ENDBRANCH  27  28
ENDBRANCH  23  27
ENDBRANCH  22  24
ENDBRANCH  21  22
ENDBRANCH   1  21
TORSDOF 8
