REMARK  Name = ZINC14250121
REMARK  5 active torsions:
REMARK  status: ('A' for Active; 'I' for Inactive)
REMARK    1  A    between atoms: C_1  and  C_2
REMARK    2  A    between atoms: C_9  and  N_14
REMARK    3  A    between atoms: C_10  and  C_11
REMARK    4  A    between atoms: C_15  and  C_17
REMARK    5  A    between atoms: C_22  and  C_23
REMARK                            x       y       z     vdW  Elec       q    Type
REMARK                         _______ _______ _______ _____ _____    ______ ____
ROOT
ATOM      1  C   UNL     1      -7.677  -2.500   0.121  0.00  0.00    +0.008 C 
ATOM      2  C   UNL     1      -6.688  -1.367   0.406  0.00  0.00    -0.009 C 
ATOM      3  C   UNL     1      -7.062  -0.135  -0.423  0.00  0.00    +0.008 C 
ATOM      4  C   UNL     1      -6.239   1.070   0.036  0.00  0.00    +0.037 C 
ATOM      5  C   UNL     1      -4.764   0.687   0.028  0.00  0.00    -0.023 A 
ATOM      6  C   UNL     1      -4.381  -0.608   0.020  0.00  0.00    -0.004 A 
ATOM      7  S   UNL     1      -2.611  -0.557   0.012  0.00  0.00    -0.077 S 
ATOM      8  C   UNL     1      -2.381   1.160   0.020  0.00  0.00    +0.085 A 
ATOM      9  C   UNL     1      -3.678   1.653   0.034  0.00  0.00    +0.068 A 
ATOM     10  C   UNL     1      -5.271  -1.813   0.019  0.00  0.00    +0.046 C 
ENDROOT
BRANCH   9  11
ATOM     11  C   UNL     1      -3.944   3.095   0.051  0.00  0.00    +0.244 C 
ATOM     12  O   UNL     1      -4.062   3.704  -0.996  0.00  0.00    -0.270 OA
ATOM     13  N   UNL     1      -4.057   3.746   1.226  0.00  0.00    -0.325 N 
ATOM     14  H   UNL     1      -3.963   3.260   2.060  0.00  0.00    +0.145 HD
ATOM     15  H   UNL     1      -4.233   4.700   1.237  0.00  0.00    +0.145 HD
ENDBRANCH   9  11
BRANCH   8  16
ATOM     16  N   UNL     1      -1.191   1.869   0.018  0.00  0.00    -0.275 N 
ATOM     17  C   UNL     1      -0.014   1.211   0.009  0.00  0.00    +0.249 C 
ATOM     18  O   UNL     1       0.002  -0.004   0.002  0.00  0.00    -0.270 OA
ATOM     19  H   UNL     1      -1.204   2.839   0.023  0.00  0.00    +0.156 HD
BRANCH  17  20
ATOM     20  C   UNL     1       1.255   1.968   0.001  0.00  0.00    +0.049 A 
ATOM     21  C   UNL     1       1.240   3.364   0.003  0.00  0.00    +0.013 A 
ATOM     22  C   UNL     1       2.429   4.064   0.000  0.00  0.00    +0.001 A 
ATOM     23  C   UNL     1       3.635   3.385  -0.014  0.00  0.00    +0.001 A 
ATOM     24  C   UNL     1       3.657   2.002  -0.022  0.00  0.00    +0.013 A 
ATOM     25  C   UNL     1       2.475   1.289  -0.015  0.00  0.00    +0.067 A 
BRANCH  25  26
ATOM     26  C   UNL     1       2.501  -0.217  -0.024  0.00  0.00    +0.418 C 
ATOM     27  F   UNL     1       3.828  -0.660  -0.038  0.00  0.00    -0.166 F 
ATOM     28  F   UNL     1       1.861  -0.702   1.122  0.00  0.00    -0.166 F 
ATOM     29  F   UNL     1       1.839  -0.689  -1.162  0.00  0.00    -0.166 F 
ENDBRANCH  25  26
ENDBRANCH  17  20
ENDBRANCH   8  16
TORSDOF 4
