REMARK  Name = ZINC20449343
REMARK  5 active torsions:
REMARK  status: ('A' for Active; 'I' for Inactive)
REMARK    1  A    between atoms: C_1  and  N_2
REMARK    2  A    between atoms: C_4  and  C_11
REMARK    3  A    between atoms: N_12  and  N_13
REMARK    4  A    between atoms: C_14  and  C_16
REMARK    5  A    between atoms: C_16  and  N_17
REMARK                            x       y       z     vdW  Elec       q    Type
REMARK                         _______ _______ _______ _____ _____    ______ ____
ROOT
ATOM      1  N   UNL     1       3.488  -6.596  -2.782  0.00  0.00    -0.206 N 
ATOM      2  C   UNL     1       2.824  -5.521  -2.313  0.00  0.00    +0.252 C 
ATOM      3  O   UNL     1       1.881  -5.074  -2.930  0.00  0.00    -0.272 OA
ATOM      4  H   UNL     1       4.343  -7.002  -2.222  0.00  0.00    +0.177 HD
ENDROOT
BRANCH   1   6
ATOM      5  C   UNL     1       3.656  -8.295  -4.380  0.00  0.00    +0.140 C 
ATOM      6  N   UNL     1       3.090  -7.196  -3.984  0.00  0.00    -0.188 NA
BRANCH   5  10
ATOM      7  C   UNL     1       5.883  -9.930  -0.210  0.00  0.00    +0.149 C 
ATOM      8  N   UNL     1       5.559  -9.766  -1.629  0.00  0.00    -0.349 N 
ATOM      9  C   UNL     1       4.594  -8.938  -2.118  0.00  0.00    +0.096 A 
ATOM     10  C   UNL     1       4.557  -9.027  -3.475  0.00  0.00    +0.020 A 
ATOM     11  C   UNL     1       5.591 -10.003  -3.861  0.00  0.00    +0.008 A 
ATOM     12  C   UNL     1       6.189 -10.427  -2.662  0.00  0.00    +0.049 A 
ATOM     13  C   UNL     1       7.220 -11.361  -2.707  0.00  0.00    +0.026 A 
ATOM     14  C   UNL     1       7.647 -11.855  -3.920  0.00  0.00    +0.002 A 
ATOM     15  C   UNL     1       7.059 -11.431  -5.103  0.00  0.00    +0.001 A 
ATOM     16  C   UNL     1       6.038 -10.507  -5.080  0.00  0.00    +0.010 A 
ENDBRANCH   5  10
ENDBRANCH   1   6
BRANCH   2  17
ATOM     17  C   UNL     1       3.253  -4.876  -1.020  0.00  0.00    +0.223 C 
BRANCH  17  18
ATOM     18  N   UNL     1       2.379  -3.737  -0.730  0.00  0.00    -0.290 N 
ATOM     19  C   UNL     1       1.258  -3.953   0.001  0.00  0.00    +0.203 A 
ATOM     20  N   UNL     1       0.411  -2.996   0.313  0.00  0.00    -0.230 NA
ATOM     21  C   UNL     1       0.688  -1.770  -0.119  0.00  0.00    +0.116 A 
ATOM     22  C   UNL     1       1.829  -1.444  -0.885  0.00  0.00    +0.076 A 
ATOM     23  C   UNL     1       2.728  -2.517  -1.203  0.00  0.00    +0.263 A 
ATOM     24  O   UNL     1       3.741  -2.342  -1.859  0.00  0.00    -0.267 OA
ATOM     25  C   UNL     1       1.968  -0.051  -1.269  0.00  0.00    -0.023 A 
ATOM     26  C   UNL     1       0.992   0.792  -0.856  0.00  0.00    -0.004 A 
ATOM     27  S   UNL     1      -0.144  -0.224   0.055  0.00  0.00    -0.073 S 
ATOM     28  C   UNL     1       0.896   2.264  -1.113  0.00  0.00    +0.043 C 
ATOM     29  C   UNL     1       2.262   2.762  -1.606  0.00  0.00    +0.005 C 
ATOM     30  C   UNL     1       2.761   1.818  -2.704  0.00  0.00    +0.005 C 
ATOM     31  C   UNL     1       3.141   0.468  -2.095  0.00  0.00    +0.037 C 
ENDBRANCH  17  18
ENDBRANCH   2  17
TORSDOF 4
