REMARK  Name = ZINC04478251
REMARK  7 active torsions:
REMARK  status: ('A' for Active; 'I' for Inactive)
REMARK    1  A    between atoms: C_1  and  C_2
REMARK    2  A    between atoms: C_4  and  N_9
REMARK    3  A    between atoms: C_10  and  C_22
REMARK    4  A    between atoms: C_10  and  O_26
REMARK    5  A    between atoms: C_12  and  C_14
REMARK    6  A    between atoms: C_19  and  O_20
REMARK    7  A    between atoms: O_20  and  C_21
REMARK                            x       y       z     vdW  Elec       q    Type
REMARK                         _______ _______ _______ _____ _____    ______ ____
ROOT
ATOM      1  N   UNL     1       5.088   3.891  -0.026  0.00  0.00    -0.166 N 
ATOM      2  C   UNL     1       5.997   2.734  -0.042  0.00  0.00    +0.255 C 
ATOM      3  C   UNL     1       5.042   1.524  -0.033  0.00  0.00    +0.124 C 
ATOM      4  C   UNL     1       3.664   2.147  -0.022  0.00  0.00    +0.075 C 
ATOM      5  N   UNL     1       3.772   3.431  -0.016  0.00  0.00    -0.179 NA
ENDROOT
BRANCH   1   9
ATOM      6  C   UNL     1       3.958   8.681   0.014  0.00  0.00    +0.066 C 
ATOM      7  C   UNL     1       4.953   7.550  -0.003  0.00  0.00    +0.045 A 
ATOM      8  C   UNL     1       4.520   6.239  -0.006  0.00  0.00    +0.068 A 
ATOM      9  C   UNL     1       5.476   5.221  -0.022  0.00  0.00    +0.149 A 
ATOM     10  N   UNL     1       6.765   5.547  -0.026  0.00  0.00    -0.198 NA
ATOM     11  C   UNL     1       7.139   6.818  -0.028  0.00  0.00    +0.215 A 
ATOM     12  N   UNL     1       6.254   7.803  -0.014  0.00  0.00    -0.220 NA
ATOM     13  N   UNL     1       8.489   7.124  -0.039  0.00  0.00    -0.327 N 
ATOM     14  H   UNL     1       8.776   8.050  -0.036  0.00  0.00    +0.145 HD
ATOM     15  H   UNL     1       9.148   6.412  -0.050  0.00  0.00    +0.145 HD
ENDBRANCH   1   9
BRANCH   4  16
ATOM     16  C   UNL     1       2.393   1.401  -0.014  0.00  0.00    +0.040 A 
ATOM     17  C   UNL     1       2.399   0.004  -0.021  0.00  0.00    +0.013 A 
ATOM     18  C   UNL     1       1.206  -0.688  -0.013  0.00  0.00    +0.001 A 
ATOM     19  C   UNL     1       0.002  -0.004   0.002  0.00  0.00    +0.004 A 
ATOM     20  C   UNL     1      -0.017   1.378   0.010  0.00  0.00    +0.046 A 
ATOM     21  C   UNL     1       1.172   2.089   0.002  0.00  0.00    +0.129 A 
BRANCH  21  22
ATOM     22  O   UNL     1       1.155   3.447   0.010  0.00  0.00    -0.494 OA
ATOM     23  C   UNL     1      -0.127   4.079   0.026  0.00  0.00    +0.277 C 
ENDBRANCH  21  22
ENDBRANCH   4  16
BRANCH   2  24
ATOM     24  C   UNL     1       6.879   2.726   1.208  0.00  0.00    +0.438 C 
ATOM     25  F   UNL     1       6.071   2.687   2.350  0.00  0.00    -0.166 F 
ATOM     26  F   UNL     1       7.709   1.600   1.185  0.00  0.00    -0.166 F 
ATOM     27  F   UNL     1       7.664   3.884   1.232  0.00  0.00    -0.166 F 
ENDBRANCH   2  24
BRANCH   2  28
ATOM     28  O   UNL     1       6.798   2.740  -1.225  0.00  0.00    -0.363 OA
ATOM     29  H   UNL     1       7.369   3.516  -1.309  0.00  0.00    +0.212 HD
ENDBRANCH   2  28
TORSDOF 5
