REMARK  Name = ZINC09726955
REMARK  9 active torsions:
REMARK  status: ('A' for Active; 'I' for Inactive)
REMARK    1  A    between atoms: C_1  and  O_2
REMARK    2  A    between atoms: O_2  and  C_3
REMARK    3  A    between atoms: C_3  and  C_5
REMARK    4  A    between atoms: C_5  and  N_6
REMARK    5  A    between atoms: C_10  and  S_30
REMARK    6  A    between atoms: N_15  and  C_16
REMARK    7  A    between atoms: C_16  and  C_18
REMARK    8  A    between atoms: C_21  and  C_24
REMARK    9  A    between atoms: S_30  and  N_33
REMARK                            x       y       z     vdW  Elec       q    Type
REMARK                         _______ _______ _______ _____ _____    ______ ____
ROOT
ATOM      1  N   UNL     1      -7.395   9.084  -0.040  0.00  0.00    -0.310 N 
ATOM      2  C   UNL     1      -8.678   9.300  -0.508  0.00  0.00    +0.058 A 
ATOM      3  C   UNL     1      -9.274  10.514  -0.884  0.00  0.00    +0.029 A 
ATOM      4  C   UNL     1     -10.574  10.550  -1.331  0.00  0.00    +0.030 A 
ATOM      5  C   UNL     1     -11.333   9.395  -1.425  0.00  0.00    +0.106 A 
ATOM      6  C   UNL     1     -10.770   8.185  -1.061  0.00  0.00    +0.045 A 
ATOM      7  C   UNL     1      -9.470   8.148  -0.614  0.00  0.00    +0.041 A 
ATOM      8  S   UNL     1      -8.384   6.855  -0.068  0.00  0.00    -0.052 S 
ATOM      9  C   UNL     1      -6.988   7.825   0.278  0.00  0.00    +0.167 A 
ATOM     10  N   UNL     1      -5.805   7.433   0.737  0.00  0.00    -0.152 NA
ENDROOT
BRANCH   5  11
ATOM     11  S   UNL     1     -12.996   9.467  -2.002  0.00  0.00    +0.056 S 
ATOM     12  O   UNL     1     -13.101  10.643  -2.792  0.00  0.00    -0.153 OA
ATOM     13  O   UNL     1     -13.305   8.177  -2.511  0.00  0.00    -0.153 OA
BRANCH  11  14
ATOM     14  N   UNL     1     -13.964   9.697  -0.678  0.00  0.00    -0.204 NA
ATOM     15  H   UNL     1     -14.800  10.180  -0.768  0.00  0.00    +0.144 HD
ATOM     16  H   UNL     1     -13.694   9.350   0.186  0.00  0.00    +0.144 HD
ENDBRANCH  11  14
ENDBRANCH   5  11
BRANCH  10  17
ATOM     17  C   UNL     1      -5.584   6.140   0.997  0.00  0.00    +0.269 C 
ATOM     18  O   UNL     1      -6.468   5.321   0.812  0.00  0.00    -0.268 OA
BRANCH  17  19
ATOM     19  C   UNL     1      -4.266   5.703   1.508  0.00  0.00    +0.039 A 
ATOM     20  C   UNL     1      -4.035   4.353   1.780  0.00  0.00    +0.014 A 
ATOM     21  C   UNL     1      -2.808   3.947   2.255  0.00  0.00    +0.009 A 
ATOM     22  C   UNL     1      -1.796   4.884   2.465  0.00  0.00    -0.018 A 
ATOM     23  C   UNL     1      -2.028   6.233   2.200  0.00  0.00    +0.009 A 
ATOM     24  C   UNL     1      -3.253   6.640   1.719  0.00  0.00    +0.014 A 
BRANCH  22  25
ATOM     25  C   UNL     1      -0.475   4.446   2.977  0.00  0.00    -0.018 A 
ATOM     26  C   UNL     1      -0.240   3.098   3.245  0.00  0.00    +0.008 A 
ATOM     27  C   UNL     1       0.989   2.697   3.726  0.00  0.00    +0.001 A 
ATOM     28  C   UNL     1       1.991   3.628   3.933  0.00  0.00    +0.000 A 
ATOM     29  C   UNL     1       1.766   4.966   3.665  0.00  0.00    +0.001 A 
ATOM     30  C   UNL     1       0.538   5.379   3.189  0.00  0.00    +0.008 A 
ENDBRANCH  22  25
ENDBRANCH  17  19
ENDBRANCH  10  17
BRANCH   1  31
ATOM     31  C   UNL     1      -6.472  10.211   0.114  0.00  0.00    +0.244 C 
BRANCH  31  32
ATOM     32  C   UNL     1      -5.693  10.052   1.394  0.00  0.00    +0.327 C 
ATOM     33  O   UNL     1      -6.000   9.191   2.184  0.00  0.00    -0.249 OA
BRANCH  32  35
ATOM     34  C   UNL     1      -3.955  10.656   2.908  0.00  0.00    +0.280 C 
ATOM     35  O   UNL     1      -4.659  10.867   1.656  0.00  0.00    -0.467 OA
ENDBRANCH  32  35
ENDBRANCH  31  32
ENDBRANCH   1  31
TORSDOF 8
