REMARK  Name = ZINC65001944
REMARK  6 active torsions:
REMARK  status: ('A' for Active; 'I' for Inactive)
REMARK    1  A    between atoms: C_1  and  C_2
REMARK    2  A    between atoms: C_2  and  C_3
REMARK    3  A    between atoms: C_2  and  C_4
REMARK    4  A    between atoms: C_2  and  C_5
REMARK    5  A    between atoms: C_18  and  C_20
REMARK    6  A    between atoms: C_24  and  N_27
REMARK                            x       y       z     vdW  Elec       q    Type
REMARK                         _______ _______ _______ _____ _____    ______ ____
ROOT
ATOM      1  C   UNL     1       0.718  -0.497  -1.257  0.00  0.00    -0.000 C 
ATOM      2  C   UNL     1       0.748  -2.029  -1.264  0.00  0.00    +0.009 C 
ATOM      3  C   UNL     1       1.234  -2.532  -2.624  0.00  0.00    +0.037 C 
ATOM      4  C   UNL     1       2.558  -1.850  -2.958  0.00  0.00    -0.023 A 
ATOM      5  C   UNL     1       2.926  -0.713  -2.323  0.00  0.00    -0.004 A 
ATOM      6  S   UNL     1       4.503  -0.283  -3.015  0.00  0.00    -0.073 S 
ATOM      7  C   UNL     1       4.666  -1.625  -4.150  0.00  0.00    +0.116 A 
ATOM      8  C   UNL     1       3.480  -2.369  -3.953  0.00  0.00    +0.075 A 
ATOM      9  C   UNL     1       3.307  -3.551  -4.748  0.00  0.00    +0.260 A 
ATOM     10  O   UNL     1       2.319  -4.258  -4.651  0.00  0.00    -0.267 OA
ATOM     11  N   UNL     1       4.310  -3.833  -5.613  0.00  0.00    -0.306 N 
ATOM     12  H   UNL     1       4.234  -4.623  -6.170  0.00  0.00    +0.170 HD
ATOM     13  C   UNL     1       5.424  -3.054  -5.736  0.00  0.00    +0.146 A 
ATOM     14  N   UNL     1       5.613  -1.956  -5.017  0.00  0.00    -0.222 NA
ATOM     15  C   UNL     1       2.162   0.026  -1.267  0.00  0.00    +0.046 C 
ENDROOT
BRANCH  13  16
ATOM     16  C   UNL     1       6.460  -3.450  -6.709  0.00  0.00    +0.067 A 
ATOM     17  C   UNL     1       6.291  -4.597  -7.487  0.00  0.00    +0.030 A 
ATOM     18  C   UNL     1       7.263  -4.962  -8.395  0.00  0.00    +0.021 A 
ATOM     19  C   UNL     1       8.408  -4.194  -8.538  0.00  0.00    +0.052 A 
ATOM     20  C   UNL     1       8.586  -3.057  -7.775  0.00  0.00    +0.174 A 
ATOM     21  C   UNL     1       7.617  -2.673  -6.862  0.00  0.00    +0.220 A 
ATOM     22  O   UNL     1       7.789  -1.553  -6.115  0.00  0.00    -0.285 OA
ATOM     23 BR   UNL     1       7.034  -6.516  -9.447  0.00  0.00    -0.050 Br
BRANCH  20  24
ATOM     24  N   UNL     1       9.813  -2.244  -7.936  0.00  0.00    +0.060 N 
ATOM     25  O   UNL     1      10.657  -2.575  -8.735  0.00  0.00    -0.126 OA
ATOM     26  O   UNL     1       9.970  -1.248  -7.268  0.00  0.00    -0.126 OA
ENDBRANCH  20  24
ENDBRANCH  13  16
BRANCH   1  28
ATOM     27  C   UNL     1      -0.019   1.526   0.010  0.00  0.00    +0.011 C 
ATOM     28  C   UNL     1       0.002  -0.004   0.002  0.00  0.00    -0.035 C 
ATOM     29  C   UNL     1       0.742  -0.511   1.242  0.00  0.00    +0.011 C 
ATOM     30  C   UNL     1      -1.433  -0.534   0.013  0.00  0.00    +0.011 C 
ENDBRANCH   1  28
TORSDOF 3
