REMARK  Name = ZINC20368568
REMARK  4 active torsions:
REMARK  status: ('A' for Active; 'I' for Inactive)
REMARK    1  A    between atoms: C_3  and  O_8
REMARK    2  A    between atoms: O_8  and  C_9
REMARK    3  A    between atoms: C_12  and  N_17
REMARK    4  A    between atoms: C_14  and  C_15
REMARK                            x       y       z     vdW  Elec       q    Type
REMARK                         _______ _______ _______ _____ _____    ______ ____
ROOT
ATOM      1  C   UNL     1       1.187   1.797  -0.002  0.00  0.00    +0.139 A 
ATOM      2  C   UNL     1      -0.012   1.102   0.041  0.00  0.00    +0.049 A 
ATOM      3  C   UNL     1      -1.210   1.788   0.048  0.00  0.00    +0.036 A 
ATOM      4  C   UNL     1      -1.227   3.174   0.022  0.00  0.00    +0.127 A 
ATOM      5  C   UNL     1      -0.048   3.883  -0.022  0.00  0.00    +0.047 A 
ATOM      6  C   UNL     1       1.175   3.202  -0.034  0.00  0.00    +0.059 A 
ENDROOT
BRANCH   4   7
ATOM      7  N   UNL     1      -2.520   3.895   0.035  0.00  0.00    +0.056 N 
ATOM      8  O   UNL     1      -2.538   5.112   0.007  0.00  0.00    -0.126 OA
ATOM      9  O   UNL     1      -3.565   3.271   0.073  0.00  0.00    -0.126 OA
ENDBRANCH   4   7
BRANCH   6  10
ATOM     10  C   UNL     1       2.437   3.950  -0.080  0.00  0.00    +0.262 C 
ATOM     11  O   UNL     1       2.423   5.163  -0.107  0.00  0.00    -0.296 OA
ENDBRANCH   6  10
BRANCH   1  12
ATOM     12  O   UNL     1       2.364   1.125  -0.014  0.00  0.00    -0.455 OA
BRANCH  12  15
ATOM     13  C   UNL     1       3.139   1.292   3.538  0.00  0.00    +0.005 A 
ATOM     14  C   UNL     1       2.458   1.434   2.343  0.00  0.00    +0.046 A 
ATOM     15  C   UNL     1       3.034   0.991   1.161  0.00  0.00    +0.130 A 
ATOM     16  C   UNL     1       4.297   0.417   1.180  0.00  0.00    +0.061 A 
ATOM     17  C   UNL     1       4.976   0.282   2.376  0.00  0.00    +0.021 A 
ATOM     18  C   UNL     1       4.396   0.720   3.554  0.00  0.00    +0.015 A 
ATOM     19 BR   UNL     1       6.697  -0.501   2.403  0.00  0.00    -0.050 Br
ENDBRANCH  12  15
ENDBRANCH   1  12
TORSDOF 4
