REMARK  Name = ZINC08414991
REMARK  7 active torsions:
REMARK  status: ('A' for Active; 'I' for Inactive)
REMARK    1  A    between atoms: C_1  and  C_2
REMARK    2  A    between atoms: C_3  and  C_29
REMARK    3  A    between atoms: C_4  and  C_21
REMARK    4  A    between atoms: C_10  and  C_15
REMARK    5  A    between atoms: C_26  and  O_27
REMARK    6  A    between atoms: O_27  and  C_28
REMARK    7  A    between atoms: N_31  and  C_32
REMARK                            x       y       z     vdW  Elec       q    Type
REMARK                         _______ _______ _______ _____ _____    ______ ____
ROOT
ATOM      1  C   UNL     1      -1.119   2.459  -3.912  0.00  0.00    +0.061 C 
ATOM      2  C   UNL     1      -0.724   2.201  -2.481  0.00  0.00    +0.014 C 
ATOM      3  C   UNL     1      -1.533   2.593  -1.483  0.00  0.00    +0.043 C 
ATOM      4  C   UNL     1      -1.167   2.361  -0.046  0.00  0.00    +0.094 C 
ATOM      5  C   UNL     1      -0.091   1.312   0.075  0.00  0.00    +0.024 C 
ATOM      6  C   UNL     1       0.663   0.971  -0.991  0.00  0.00    +0.016 C 
ATOM      7  N   UNL     1       0.458   1.568  -2.206  0.00  0.00    -0.321 N 
ATOM      8  C   UNL     1       1.744  -0.075  -0.877  0.00  0.00    +0.059 C 
ATOM      9  C   UNL     1       2.322  -0.064   0.540  0.00  0.00    +0.032 C 
ATOM     10  C   UNL     1       1.183  -0.328   1.531  0.00  0.00    +0.088 C 
ATOM     11  C   UNL     1       0.109   0.706   1.328  0.00  0.00    +0.162 C 
ATOM     12  O   UNL     1      -0.600   1.022   2.264  0.00  0.00    -0.292 OA
ATOM     13  H   UNL     1       1.254   1.537  -2.964  0.00  0.00    +0.152 HD
ENDROOT
BRANCH   9  14
ATOM     14  C   UNL     1       3.366  -1.143   0.670  0.00  0.00    -0.044 A 
ATOM     15  C   UNL     1       3.026  -2.464   0.447  0.00  0.00    +0.004 A 
ATOM     16  C   UNL     1       3.984  -3.454   0.562  0.00  0.00    +0.000 A 
ATOM     17  C   UNL     1       5.281  -3.123   0.909  0.00  0.00    +0.000 A 
ATOM     18  C   UNL     1       5.620  -1.802   1.136  0.00  0.00    +0.000 A 
ATOM     19  C   UNL     1       4.662  -0.812   1.017  0.00  0.00    +0.004 A 
ENDBRANCH   9  14
BRANCH   4  20
ATOM     20  C   UNL     1      -0.670   3.652   0.553  0.00  0.00    +0.006 A 
ATOM     21  C   UNL     1       0.461   4.260   0.044  0.00  0.00    +0.008 A 
ATOM     22  C   UNL     1       0.914   5.447   0.590  0.00  0.00    +0.001 A 
ATOM     23  C   UNL     1       0.244   6.021   1.655  0.00  0.00    +0.004 A 
ATOM     24  C   UNL     1      -0.884   5.414   2.171  0.00  0.00    +0.046 A 
ATOM     25  C   UNL     1      -1.344   4.226   1.621  0.00  0.00    +0.124 A 
BRANCH  25  26
ATOM     26  O   UNL     1      -2.454   3.627   2.127  0.00  0.00    -0.495 OA
ATOM     27  C   UNL     1      -3.097   4.275   3.226  0.00  0.00    +0.277 C 
ENDBRANCH  25  26
ENDBRANCH   4  20
BRANCH   3  28
ATOM     28  C   UNL     1      -2.755   3.239  -1.794  0.00  0.00    +0.247 C 
ATOM     29  O   UNL     1      -3.062   3.434  -2.956  0.00  0.00    -0.270 OA
ATOM     30  N   UNL     1      -3.577   3.638  -0.803  0.00  0.00    -0.277 N 
ATOM     31  H   UNL     1      -3.341   3.388   0.242  0.00  0.00    +0.155 HD
BRANCH  30  32
ATOM     32  C   UNL     1      -4.732   4.372  -1.104  0.00  0.00    +0.105 A 
ATOM     33  C   UNL     1      -4.677   5.759  -1.178  0.00  0.00    +0.147 A 
ATOM     34  C   UNL     1      -5.819   6.479  -1.480  0.00  0.00    +0.040 A 
ATOM     35  C   UNL     1      -7.016   5.822  -1.699  0.00  0.00    +0.006 A 
ATOM     36  C   UNL     1      -7.076   4.443  -1.620  0.00  0.00    +0.040 A 
ATOM     37  C   UNL     1      -5.937   3.715  -1.324  0.00  0.00    +0.147 A 
ATOM     38  F   UNL     1      -5.997   2.367  -1.248  0.00  0.00    -0.203 F 
ATOM     39  F   UNL     1      -3.509   6.402  -0.960  0.00  0.00    -0.203 F 
ENDBRANCH  30  32
ENDBRANCH   3  28
TORSDOF 5
