REMARK  Name = ZINC20368446
REMARK  10 active torsions:
REMARK  status: ('A' for Active; 'I' for Inactive)
REMARK    1  A    between atoms: C_1  and  C_2
REMARK    2  A    between atoms: C_5  and  C_8
REMARK    3  A    between atoms: C_15  and  N_38
REMARK    4  A    between atoms: C_16  and  C_36
REMARK    5  A    between atoms: C_17  and  C_19
REMARK    6  A    between atoms: C_22  and  O_27
REMARK    7  A    between atoms: C_23  and  O_25
REMARK    8  A    between atoms: O_25  and  C_26
REMARK    9  A    between atoms: O_27  and  C_28
REMARK   10  A    between atoms: C_28  and  C_29
REMARK                            x       y       z     vdW  Elec       q    Type
REMARK                         _______ _______ _______ _____ _____    ______ ____
ROOT
ATOM      1  C   UNL     1       0.061  -4.256  -0.021  0.00  0.00    +0.100 A 
ATOM      2  C   UNL     1       0.720  -5.075   0.900  0.00  0.00    +0.054 A 
ATOM      3  C   UNL     1       0.494  -6.374   0.548  0.00  0.00    +0.223 A 
ATOM      4  N   UNL     1      -0.279  -6.372  -0.557  0.00  0.00    -0.246 N 
ATOM      5  H   UNL     1      -0.599  -7.155  -1.031  0.00  0.00    +0.192 HD
ATOM      6  N   UNL     1      -0.546  -5.036  -0.896  0.00  0.00    -0.171 NA
ATOM      7  O   UNL     1       0.999  -7.421   1.249  0.00  0.00    -0.423 OA
ATOM      8  C   UNL     1       1.510  -7.166   2.470  0.00  0.00    +0.200 C 
ATOM      9  C   UNL     1       1.788  -5.925   2.926  0.00  0.00    +0.098 C 
ATOM     10  C   UNL     1       1.553  -4.688   2.095  0.00  0.00    +0.102 C 
ENDROOT
BRANCH   1  15
ATOM     11  C   UNL     1      -0.018   1.503   0.010  0.00  0.00    +0.044 C 
ATOM     12  C   UNL     1       0.002  -0.004   0.002  0.00  0.00    -0.050 A 
ATOM     13  C   UNL     1       0.006  -0.686  -1.201  0.00  0.00    +0.004 A 
ATOM     14  C   UNL     1       0.025  -2.067  -1.214  0.00  0.00    +0.010 A 
ATOM     15  C   UNL     1       0.041  -2.772  -0.013  0.00  0.00    +0.003 A 
ATOM     16  C   UNL     1       0.037  -2.080   1.196  0.00  0.00    +0.010 A 
ATOM     17  C   UNL     1       0.023  -0.700   1.198  0.00  0.00    +0.004 A 
ENDBRANCH   1  15
BRANCH  10  18
ATOM     18  C   UNL     1       2.873  -4.126   1.633  0.00  0.00    -0.031 A 
ATOM     19  C   UNL     1       3.724  -4.903   0.869  0.00  0.00    +0.008 A 
ATOM     20  C   UNL     1       4.936  -4.393   0.443  0.00  0.00    +0.050 A 
ATOM     21  C   UNL     1       5.301  -3.100   0.783  0.00  0.00    +0.162 A 
ATOM     22  C   UNL     1       4.445  -2.318   1.552  0.00  0.00    +0.162 A 
ATOM     23  C   UNL     1       3.229  -2.834   1.971  0.00  0.00    +0.054 A 
BRANCH  22  24
ATOM     24  O   UNL     1       4.799  -1.048   1.888  0.00  0.00    -0.491 OA
ATOM     25  C   UNL     1       3.870  -0.304   2.680  0.00  0.00    +0.277 C 
ENDBRANCH  22  24
BRANCH  21  26
ATOM     26  O   UNL     1       6.493  -2.596   0.365  0.00  0.00    -0.484 OA
BRANCH  26  27
ATOM     27  C   UNL     1       7.321  -3.456  -0.421  0.00  0.00    +0.267 C 
BRANCH  27  28
ATOM     28  C   UNL     1       8.591  -2.732  -0.788  0.00  0.00    +0.025 A 
ATOM     29  C   UNL     1       8.797  -1.435  -0.357  0.00  0.00    +0.010 A 
ATOM     30  C   UNL     1       9.962  -0.771  -0.694  0.00  0.00    +0.001 A 
ATOM     31  C   UNL     1      10.922  -1.403  -1.462  0.00  0.00    +0.003 A 
ATOM     32  C   UNL     1      10.718  -2.700  -1.894  0.00  0.00    +0.039 A 
ATOM     33  C   UNL     1       9.554  -3.368  -1.553  0.00  0.00    +0.130 A 
ATOM     34  F   UNL     1       9.356  -4.638  -1.971  0.00  0.00    -0.205 F 
ENDBRANCH  27  28
ENDBRANCH  26  27
ENDBRANCH  21  26
ENDBRANCH  10  18
BRANCH   8  35
ATOM     35  N   UNL     1       1.763  -8.231   3.300  0.00  0.00    -0.328 N 
ATOM     36  H   UNL     1       1.573  -9.134   3.001  0.00  0.00    +0.145 HD
ATOM     37  H   UNL     1       2.130  -8.079   4.185  0.00  0.00    +0.145 HD
ENDBRANCH   8  35
BRANCH   9  38
ATOM     38  C   UNL     1       2.325  -5.777   4.245  0.00  0.00    +0.101 C 
ATOM     39  N   UNL     1       2.750  -5.661   5.292  0.00  0.00    -0.191 NA
ENDBRANCH   9  38
TORSDOF 8
