REMARK  Name = ZINC41008689
REMARK  9 active torsions:
REMARK  status: ('A' for Active; 'I' for Inactive)
REMARK    1  A    between atoms: C_1  and  C_2
REMARK    2  A    between atoms: C_4  and  C_31
REMARK    3  A    between atoms: C_6  and  O_8
REMARK    4  A    between atoms: O_8  and  C_9
REMARK    5  A    between atoms: C_9  and  C_11
REMARK    6  A    between atoms: C_9  and  C_12
REMARK    7  A    between atoms: C_17  and  S_20
REMARK    8  A    between atoms: S_20  and  C_23
REMARK    9  A    between atoms: C_23  and  C_24
REMARK                            x       y       z     vdW  Elec       q    Type
REMARK                         _______ _______ _______ _____ _____    ______ ____
ROOT
ATOM      1  C   UNL     1       0.977  -2.768   4.570  0.00  0.00    +0.259 C 
ATOM      2  O   UNL     1       1.426  -3.859   4.290  0.00  0.00    -0.271 OA
ATOM      3  N   UNL     1       1.211  -2.235   5.786  0.00  0.00    -0.260 N 
ATOM      4  C   UNL     1       1.966  -2.935   6.717  0.00  0.00    +0.186 A 
ATOM      5  N   UNL     1       2.295  -2.583   7.948  0.00  0.00    -0.188 NA
ATOM      6  C   UNL     1       3.027  -3.421   8.648  0.00  0.00    +0.280 A 
ATOM      7  N   UNL     1       3.385  -4.550   8.086  0.00  0.00    -0.170 NA
ATOM      8  S   UNL     1       2.687  -4.445   6.565  0.00  0.00    +0.051 S 
ATOM      9  H   UNL     1       0.852  -1.362   6.010  0.00  0.00    +0.157 HD
ENDROOT
BRANCH   6  10
ATOM     10  S   UNL     1       3.514  -3.038  10.297  0.00  0.00    +0.036 S 
ATOM     11  O   UNL     1       4.711  -3.775  10.502  0.00  0.00    -0.166 OA
ATOM     12  O   UNL     1       3.518  -1.618  10.353  0.00  0.00    -0.166 OA
BRANCH  10  13
ATOM     13  C   UNL     1       2.186  -3.701  11.341  0.00  0.00    +0.210 C 
BRANCH  13  14
ATOM     14  C   UNL     1       2.501  -3.426  12.789  0.00  0.00    -0.026 A 
ATOM     15  C   UNL     1       3.229  -4.344  13.523  0.00  0.00    +0.006 A 
ATOM     16  C   UNL     1       3.518  -4.093  14.851  0.00  0.00    +0.020 A 
ATOM     17  C   UNL     1       3.079  -2.923  15.446  0.00  0.00    +0.041 A 
ATOM     18  C   UNL     1       2.351  -2.005  14.710  0.00  0.00    +0.020 A 
ATOM     19  C   UNL     1       2.067  -2.255  13.380  0.00  0.00    +0.006 A 
ATOM     20 CL   UNL     1       3.442  -2.607  17.114  0.00  0.00    -0.084 Cl
ENDBRANCH  13  14
ENDBRANCH  10  13
ENDBRANCH   6  10
BRANCH   1  21
ATOM     21  C   UNL     1       0.157  -2.008   3.560  0.00  0.00    +0.256 C 
ATOM     22  C   UNL     1      -1.241  -1.752   4.126  0.00  0.00    +0.062 C 
BRANCH  21  23
ATOM     23  O   UNL     1       0.051  -2.775   2.359  0.00  0.00    -0.480 OA
BRANCH  23  29
ATOM     24  C   UNL     1      -0.902   1.454   0.118  0.00  0.00    +0.044 C 
ATOM     25  C   UNL     1      -0.649  -0.030   0.076  0.00  0.00    -0.047 A 
ATOM     26  C   UNL     1      -0.652  -0.698  -1.135  0.00  0.00    +0.007 A 
ATOM     27  C   UNL     1      -0.420  -2.060  -1.177  0.00  0.00    -0.047 A 
ATOM     28  C   UNL     1      -0.184  -2.758  -0.009  0.00  0.00    +0.049 A 
ATOM     29  C   UNL     1      -0.180  -2.091   1.208  0.00  0.00    +0.122 A 
ATOM     30  C   UNL     1      -0.408  -0.723   1.247  0.00  0.00    +0.049 A 
ATOM     31  C   UNL     1      -0.424  -2.784  -2.499  0.00  0.00    +0.044 C 
ENDBRANCH  23  29
ENDBRANCH  21  23
ENDBRANCH   1  21
TORSDOF 6
