REMARK  Name = ZINC10876135
REMARK  11 active torsions:
REMARK  status: ('A' for Active; 'I' for Inactive)
REMARK    1  A    between atoms: C_1  and  C_2
REMARK    2  A    between atoms: C_3  and  C_31
REMARK    3  A    between atoms: N_9  and  C_28
REMARK    4  A    between atoms: C_10  and  S_12
REMARK    5  A    between atoms: S_12  and  C_13
REMARK    6  A    between atoms: C_13  and  C_15
REMARK    7  A    between atoms: C_13  and  C_16
REMARK    8  A    between atoms: C_20  and  C_27
REMARK    9  A    between atoms: C_23  and  C_26
REMARK   10  A    between atoms: C_28  and  C_29
REMARK   11  A    between atoms: C_28  and  C_30
REMARK                            x       y       z     vdW  Elec       q    Type
REMARK                         _______ _______ _______ _____ _____    ______ ____
ROOT
ATOM      1  C   UNL     1       3.751   0.746   0.071  0.00  0.00    +0.045 C 
ATOM      2  C   UNL     1       2.257   0.917  -0.022  0.00  0.00    -0.026 A 
ATOM      3  C   UNL     1       1.722   2.138  -0.174  0.00  0.00    -0.008 A 
ATOM      4  S   UNL     1      -0.031   1.818  -0.230  0.00  0.00    -0.073 S 
ATOM      5  C   UNL     1       0.005   0.053  -0.046  0.00  0.00    +0.117 A 
ATOM      6  C   UNL     1       1.379  -0.238   0.053  0.00  0.00    +0.075 A 
ATOM      7  C   UNL     1       1.712  -1.620   0.212  0.00  0.00    +0.263 A 
ATOM      8  O   UNL     1       2.877  -1.967   0.306  0.00  0.00    -0.267 OA
ATOM      9  N   UNL     1       0.724  -2.532   0.255  0.00  0.00    -0.285 N 
ATOM     10  C   UNL     1      -0.586  -2.162   0.151  0.00  0.00    +0.174 A 
ATOM     11  N   UNL     1      -0.921  -0.896   0.004  0.00  0.00    -0.216 NA
ATOM     12  C   UNL     1       2.433   3.463  -0.275  0.00  0.00    +0.052 C 
ENDROOT
BRANCH   9  13
ATOM     13  C   UNL     1       1.060  -3.949   0.417  0.00  0.00    +0.087 C 
ATOM     14  C   UNL     1       1.940  -4.400  -0.750  0.00  0.00    +0.031 C 
ATOM     15  C   UNL     1       1.815  -4.147   1.733  0.00  0.00    +0.031 C 
ENDBRANCH   9  13
BRANCH  10  16
ATOM     16  S   UNL     1      -1.845  -3.393   0.214  0.00  0.00    -0.075 S 
BRANCH  16  17
ATOM     17  C   UNL     1      -3.313  -2.350   0.034  0.00  0.00    +0.137 C 
ATOM     18  C   UNL     1      -3.307  -1.696  -1.349  0.00  0.00    +0.029 C 
BRANCH  17  19
ATOM     19  C   UNL     1      -4.551  -3.197   0.183  0.00  0.00    +0.229 C 
ATOM     20  O   UNL     1      -4.493  -4.394   0.001  0.00  0.00    -0.274 OA
ATOM     21  N   UNL     1      -5.724  -2.622   0.518  0.00  0.00    -0.300 N 
ATOM     22  C   UNL     1      -6.914  -3.445   0.772  0.00  0.00    +0.111 C 
ATOM     23  C   UNL     1      -7.479  -3.074   2.153  0.00  0.00    +0.004 C 
ATOM     24  C   UNL     1      -7.734  -1.566   2.205  0.00  0.00    +0.009 C 
ATOM     25  C   UNL     1      -6.414  -0.817   2.008  0.00  0.00    +0.004 C 
ATOM     26  C   UNL     1      -5.837  -1.162   0.631  0.00  0.00    +0.111 C 
ATOM     27  C   UNL     1      -6.665   0.690   2.093  0.00  0.00    +0.009 C 
ATOM     28  C   UNL     1      -6.473  -3.460   3.239  0.00  0.00    +0.009 C 
ENDBRANCH  17  19
ENDBRANCH  16  17
ENDBRANCH  10  16
TORSDOF 4
