REMARK  Name = ZINC02099545
REMARK  5 active torsions:
REMARK  status: ('A' for Active; 'I' for Inactive)
REMARK    1  A    between atoms: C_1  and  C_2
REMARK    2  A    between atoms: C_3  and  C_30
REMARK    3  A    between atoms: C_9  and  O_29
REMARK    4  A    between atoms: C_10  and  C_13
REMARK    5  A    between atoms: C_13  and  N_62
REMARK                            x       y       z     vdW  Elec       q    Type
REMARK                         _______ _______ _______ _____ _____    ______ ____
ROOT
ATOM      1  C   UNL     1      -1.057   7.431   0.054  0.00  0.00    +0.087 C 
ATOM      2  C   UNL     1      -1.159   5.928   0.046  0.00  0.00    +0.116 A 
ATOM      3  C   UNL     1      -2.395   5.355   0.055  0.00  0.00    +0.092 A 
ATOM      4  C   UNL     1      -2.493   3.884   0.047  0.00  0.00    +0.202 A 
ATOM      5  O   UNL     1      -3.570   3.315   0.055  0.00  0.00    -0.286 OA
ATOM      6  C   UNL     1      -1.223   3.135   0.031  0.00  0.00    +0.065 A 
ATOM      7  C   UNL     1      -1.206   1.739   0.017  0.00  0.00    +0.019 A 
ATOM      8  C   UNL     1      -0.013   1.076   0.008  0.00  0.00    +0.046 A 
ATOM      9  C   UNL     1       1.186   1.786   0.000  0.00  0.00    +0.122 A 
ATOM     10  C   UNL     1       1.186   3.170   0.008  0.00  0.00    +0.020 A 
ATOM     11  C   UNL     1      -0.019   3.861   0.023  0.00  0.00    +0.144 A 
ATOM     12  O   UNL     1      -0.036   5.208   0.031  0.00  0.00    -0.459 OA
ENDROOT
BRANCH   3  13
ATOM     13  C   UNL     1      -3.612   6.191   0.072  0.00  0.00    +0.116 A 
ATOM     14  N   UNL     1      -3.712   7.503   0.086  0.00  0.00    -0.239 NA
ATOM     15  C   UNL     1      -4.901   8.137   0.098  0.00  0.00    +0.079 A 
ATOM     16  C   UNL     1      -5.148   9.531   0.110  0.00  0.00    +0.029 A 
ATOM     17  C   UNL     1      -6.419  10.014   0.126  0.00  0.00    +0.002 A 
ATOM     18  C   UNL     1      -7.520   9.168   0.132  0.00  0.00    +0.001 A 
ATOM     19  C   UNL     1      -7.323   7.799   0.120  0.00  0.00    +0.017 A 
ATOM     20  C   UNL     1      -6.043   7.302   0.104  0.00  0.00    +0.040 A 
ATOM     21  S   UNL     1      -5.324   5.678   0.086  0.00  0.00    -0.067 S 
ENDBRANCH   3  13
BRANCH   9  22
ATOM     22  O   UNL     1       2.366   1.114  -0.014  0.00  0.00    -0.506 OA
ATOM     23  H   UNL     1       2.699   0.923  -0.902  0.00  0.00    +0.292 HD
ENDBRANCH   9  22
BRANCH  10  24
ATOM     24  C   UNL     1       2.490   3.926  -0.000  0.00  0.00    -0.036 C 
BRANCH  24  38
ATOM     25  C   UNL     1       4.272   4.695  -1.444  0.00  0.00    -0.073 C 
ATOM     26  C   UNL     1       4.721   4.900  -2.883  0.00  0.00    -0.007 C 
ATOM     27  C   UNL     1       3.745   5.812  -3.631  0.00  0.00    +0.011 C 
ATOM     28  C   UNL     1       2.354   5.174  -3.542  0.00  0.00    +0.020 C 
ATOM     29  C   UNL     1       1.962   5.093  -2.057  0.00  0.00    -0.069 C 
ATOM     30  C   UNL     1       2.422   3.759  -4.072  0.00  0.00    +0.023 A 
ATOM     31  C   UNL     1       1.294   3.242  -4.627  0.00  0.00    +0.022 A 
ATOM     32  C   UNL     1       1.267   1.918  -5.078  0.00  0.00    +0.007 A 
ATOM     33  C   UNL     1       2.383   1.148  -4.928  0.00  0.00    +0.070 A 
ATOM     34  C   UNL     1       3.528   1.711  -4.349  0.00  0.00    +0.251 A 
ATOM     35  O   UNL     1       4.511   1.015  -4.153  0.00  0.00    -0.268 OA
ATOM     36  N   UNL     1       3.555   3.022  -4.004  0.00  0.00    -0.312 N 
ATOM     37  C   UNL     1       4.853   3.582  -3.627  0.00  0.00    +0.126 C 
ATOM     38  N   UNL     1       2.899   4.153  -1.401  0.00  0.00    +0.383 N 
ATOM     39  H   UNL     1       2.878   3.257  -1.903  0.00  0.00    -0.081 HD
ENDBRANCH  24  38
ENDBRANCH  10  24
TORSDOF 4
