REMARK  Name = ZINC04287946
REMARK  5 active torsions:
REMARK  status: ('A' for Active; 'I' for Inactive)
REMARK    1  A    between atoms: C_1  and  C_2
REMARK    2  A    between atoms: C_2  and  C_4
REMARK    3  A    between atoms: C_2  and  N_11
REMARK    4  A    between atoms: C_12  and  C_14
REMARK    5  A    between atoms: C_14  and  N_15
REMARK                            x       y       z     vdW  Elec       q    Type
REMARK                         _______ _______ _______ _____ _____    ______ ____
ROOT
ATOM      1  C   UNL     1       0.712  -1.094  -3.598  0.00  0.00    +0.213 C 
ENDROOT
BRANCH   1   2
ATOM      2  N   UNL     1      -0.240  -1.150  -4.711  0.00  0.00    -0.215 N 
ATOM      3  C   UNL     1      -0.989  -2.231  -5.015  0.00  0.00    +0.247 C 
ATOM      4  O   UNL     1      -1.003  -3.299  -4.442  0.00  0.00    -0.273 OA
ATOM      5  C   UNL     1      -1.806  -1.828  -6.220  0.00  0.00    +0.113 C 
ATOM      6  C   UNL     1      -1.550  -2.727  -7.395  0.00  0.00    +0.035 C 
ATOM      7  C   UNL     1      -1.588  -1.966  -8.737  0.00  0.00    +0.003 C 
ATOM      8  C   UNL     1      -2.735  -0.938  -8.806  0.00  0.00    +0.000 C 
ATOM      9  C   UNL     1      -4.016  -1.465  -8.221  0.00  0.00    +0.000 C 
ATOM     10  C   UNL     1      -4.097  -1.021  -6.747  0.00  0.00    +0.003 C 
ATOM     11  C   UNL     1      -3.306  -1.868  -5.864  0.00  0.00    +0.035 C 
ATOM     12  N   UNL     1      -1.395  -0.445  -6.486  0.00  0.00    -0.285 N 
ATOM     13  C   UNL     1      -0.478  -0.134  -5.549  0.00  0.00    +0.310 C 
ATOM     14  O   UNL     1       0.074   0.947  -5.476  0.00  0.00    -0.252 OA
ATOM     15  H   UNL     1      -1.722   0.133  -7.193  0.00  0.00    +0.151 HD
ENDBRANCH   1   2
BRANCH   1  17
ATOM     16  N   UNL     1       0.688  -0.476  -1.203  0.00  0.00    -0.307 N 
ATOM     17  C   UNL     1       0.006  -0.608  -2.358  0.00  0.00    +0.231 C 
ATOM     18  O   UNL     1      -1.175  -0.336  -2.400  0.00  0.00    -0.274 OA
ATOM     19  H   UNL     1       1.632  -0.695  -1.170  0.00  0.00    +0.149 HD
BRANCH  16  21
ATOM     20  C   UNL     1      -0.019   1.526   0.010  0.00  0.00    +0.033 C 
ATOM     21  C   UNL     1       0.002  -0.004   0.002  0.00  0.00    +0.100 C 
BRANCH  21  22
ATOM     22  C   UNL     1       0.731  -0.503   1.223  0.00  0.00    -0.027 A 
ATOM     23  C   UNL     1       2.113  -0.514   1.246  0.00  0.00    +0.007 A 
ATOM     24  C   UNL     1       2.782  -0.971   2.366  0.00  0.00    +0.020 A 
ATOM     25  C   UNL     1       2.068  -1.419   3.463  0.00  0.00    +0.041 A 
ATOM     26  C   UNL     1       0.685  -1.409   3.439  0.00  0.00    +0.020 A 
ATOM     27  C   UNL     1       0.017  -0.945   2.321  0.00  0.00    +0.007 A 
ATOM     28 CL   UNL     1       2.908  -1.995   4.869  0.00  0.00    -0.084 Cl
ENDBRANCH  21  22
ENDBRANCH  16  21
ENDBRANCH   1  17
TORSDOF 4
