REMARK  Name = ZINC66344561
REMARK  5 active torsions:
REMARK  status: ('A' for Active; 'I' for Inactive)
REMARK    1  A    between atoms: C_6  and  N_7
REMARK    2  A    between atoms: C_10  and  C_13
REMARK    3  A    between atoms: C_13  and  N_14
REMARK    4  A    between atoms: N_17  and  C_18
REMARK    5  A    between atoms: C_23  and  C_26
REMARK                            x       y       z     vdW  Elec       q    Type
REMARK                         _______ _______ _______ _____ _____    ______ ____
ROOT
ATOM      1  N   UNL     1      -4.549  -4.005  -0.911  0.00  0.00    -0.299 N 
ATOM      2  C   UNL     1      -5.034  -5.025  -1.646  0.00  0.00    +0.300 C 
ATOM      3  O   UNL     1      -4.280  -5.705  -2.315  0.00  0.00    -0.253 OA
ATOM      4  N   UNL     1      -6.355  -5.292  -1.639  0.00  0.00    -0.297 N 
ATOM      5  H   UNL     1      -5.150  -3.462  -0.377  0.00  0.00    +0.150 HD
ATOM      6  H   UNL     1      -6.957  -4.749  -1.105  0.00  0.00    +0.151 HD
ENDROOT
BRANCH   4   7
ATOM      7  C   UNL     1      -6.883  -6.400  -2.438  0.00  0.00    +0.075 C 
ATOM      8  C   UNL     1      -7.136  -5.923  -3.869  0.00  0.00    +0.022 C 
ATOM      9  C   UNL     1      -7.687  -7.081  -4.703  0.00  0.00    +0.002 C 
ATOM     10  C   UNL     1      -9.000  -7.571  -4.090  0.00  0.00    +0.012 C 
ATOM     11  C   UNL     1      -8.747  -8.049  -2.659  0.00  0.00    +0.095 C 
ATOM     12  C   UNL     1      -8.196  -6.891  -1.824  0.00  0.00    +0.034 C 
BRANCH  11  13
ATOM     13  C   UNL     1     -10.060  -8.540  -2.045  0.00  0.00    +0.393 C 
ATOM     14  F   UNL     1     -10.564  -9.599  -2.808  0.00  0.00    -0.170 F 
ATOM     15  F   UNL     1      -9.829  -8.977  -0.737  0.00  0.00    -0.170 F 
ATOM     16  F   UNL     1     -10.988  -7.493  -2.030  0.00  0.00    -0.170 F 
ENDBRANCH  11  13
ENDBRANCH   4   7
BRANCH   1  17
ATOM     17  C   UNL     1      -3.112  -3.715  -0.918  0.00  0.00    +0.110 C 
BRANCH  17  21
ATOM     18  N   UNL     1      -1.198  -0.721   0.010  0.00  0.00    -0.330 N 
ATOM     19  C   UNL     1      -2.550  -0.132   0.020  0.00  0.00    +0.105 C 
ATOM     20  C   UNL     1      -3.463  -1.226  -0.587  0.00  0.00    +0.025 C 
ATOM     21  C   UNL     1      -2.829  -2.518  -0.008  0.00  0.00    +0.025 C 
ATOM     22  C   UNL     1      -1.322  -2.186   0.004  0.00  0.00    +0.110 C 
BRANCH  18  28
ATOM     23  C   UNL     1      -0.017   1.385   0.010  0.00  0.00    +0.026 A 
ATOM     24  C   UNL     1       1.171   2.090   0.002  0.00  0.00    +0.040 A 
ATOM     25  C   UNL     1       2.379   1.414  -0.013  0.00  0.00    +0.124 A 
ATOM     26  C   UNL     1       2.400   0.030  -0.021  0.00  0.00    +0.040 A 
ATOM     27  C   UNL     1       1.215  -0.680  -0.014  0.00  0.00    +0.026 A 
ATOM     28  C   UNL     1       0.002  -0.004   0.002  0.00  0.00    +0.030 A 
ATOM     29  F   UNL     1       3.539   2.107  -0.020  0.00  0.00    -0.205 F 
ENDBRANCH  18  28
ENDBRANCH  17  21
ENDBRANCH   1  17
TORSDOF 5
