REMARK  Name = ZINC05228873
REMARK  8 active torsions:
REMARK  status: ('A' for Active; 'I' for Inactive)
REMARK    1  A    between atoms: C_1  and  C_2
REMARK    2  A    between atoms: C_2  and  C_4
REMARK    3  A    between atoms: C_4  and  C_31
REMARK    4  A    between atoms: C_9  and  C_30
REMARK    5  A    between atoms: C_19  and  C_29
REMARK    6  A    between atoms: C_22  and  O_25
REMARK    7  A    between atoms: O_25  and  C_26
REMARK    8  A    between atoms: C_26  and  C_28
REMARK                            x       y       z     vdW  Elec       q    Type
REMARK                         _______ _______ _______ _____ _____    ______ ____
ROOT
ATOM      1  C   UNL     1       1.629   3.308  -0.778  0.00  0.00    +0.032 C 
ATOM      2  C   UNL     1       3.169   3.253  -0.964  0.00  0.00    +0.015 C 
ATOM      3  C   UNL     1       3.597   1.792  -0.662  0.00  0.00    +0.005 C 
ATOM      4  C   UNL     1       2.267   1.024  -0.633  0.00  0.00    -0.000 C 
ATOM      5  C   UNL     1       1.321   2.038   0.037  0.00  0.00    -0.017 C 
ATOM      6  C   UNL     1      -0.110   1.574   0.039  0.00  0.00    +0.008 C 
ATOM      7  C   UNL     1      -0.192   0.038   0.086  0.00  0.00    +0.005 C 
ATOM      8  C   UNL     1       0.995  -0.532   0.851  0.00  0.00    +0.003 C 
ATOM      9  C   UNL     1       2.276  -0.318   0.031  0.00  0.00    +0.000 C 
ATOM     10  C   UNL     1       3.457  -0.570   0.967  0.00  0.00    +0.031 C 
ATOM     11  C   UNL     1       3.321  -1.986   1.469  0.00  0.00    -0.027 C 
ATOM     12  C   UNL     1       2.188  -2.615   1.531  0.00  0.00    -0.064 C 
ATOM     13  C   UNL     1       0.853  -2.016   1.154  0.00  0.00    -0.008 C 
ATOM     14  C   UNL     1       0.286  -2.798  -0.025  0.00  0.00    +0.015 C 
ATOM     15  C   UNL     1       1.161  -4.016  -0.318  0.00  0.00    +0.046 C 
ATOM     16  C   UNL     1       1.393  -4.865   0.927  0.00  0.00    +0.180 C 
ATOM     17  C   UNL     1       2.170  -4.066   1.981  0.00  0.00    +0.075 C 
ATOM     18  C   UNL     1      -0.098  -2.164   2.347  0.00  0.00    +0.016 C 
ATOM     19  C   UNL     1       1.764   2.349   1.479  0.00  0.00    +0.012 C 
ATOM     20  C   UNL     1       1.239   4.548   0.026  0.00  0.00    +0.019 C 
ENDROOT
BRANCH   1  22
ATOM     21  C   UNL     1       1.102   4.486  -3.041  0.00  0.00    +0.086 C 
ATOM     22  C   UNL     1       0.950   3.306  -2.116  0.00  0.00    +0.137 C 
ATOM     23  O   UNL     1       0.281   2.358  -2.451  0.00  0.00    -0.297 OA
ENDBRANCH   1  22
BRANCH  16  24
ATOM     24  O   UNL     1       0.118  -5.292   1.477  0.00  0.00    -0.461 OA
BRANCH  24  25
ATOM     25  C   UNL     1       0.097  -6.466   2.127  0.00  0.00    +0.304 C 
ATOM     26  O   UNL     1       1.110  -7.117   2.232  0.00  0.00    -0.251 OA
ATOM     27  C   UNL     1      -1.190  -6.973   2.724  0.00  0.00    +0.136 C 
ENDBRANCH  24  25
ENDBRANCH  16  24
TORSDOF 3
