REMARK  Name = ZINC59472694
REMARK  7 active torsions:
REMARK  status: ('A' for Active; 'I' for Inactive)
REMARK    1  A    between atoms: C_1  and  C_2
REMARK    2  A    between atoms: C_3  and  C_21
REMARK    3  A    between atoms: C_5  and  N_10
REMARK    4  A    between atoms: C_6  and  C_7
REMARK    5  A    between atoms: C_11  and  C_12
REMARK    6  A    between atoms: C_15  and  N_18
REMARK    7  A    between atoms: C_21  and  C_22
REMARK                            x       y       z     vdW  Elec       q    Type
REMARK                         _______ _______ _______ _____ _____    ______ ____
ROOT
ATOM      1  C   UNL     1      -0.018   1.503   0.010  0.00  0.00    +0.045 C 
ATOM      2  C   UNL     1       0.002  -0.004   0.002  0.00  0.00    -0.026 A 
ATOM      3  C   UNL     1       0.005  -0.679  -1.167  0.00  0.00    -0.000 A 
ATOM      4  S   UNL     1       0.031  -2.383  -0.641  0.00  0.00    -0.073 S 
ATOM      5  C   UNL     1       0.036  -2.114   1.123  0.00  0.00    +0.114 A 
ATOM      6  C   UNL     1       0.024  -0.713   1.201  0.00  0.00    +0.072 A 
ENDROOT
BRANCH   6   7
ATOM      7  C   UNL     1       0.028  -0.022   2.495  0.00  0.00    +0.244 C 
ATOM      8  O   UNL     1      -1.025   0.251   3.042  0.00  0.00    -0.270 OA
ATOM      9  N   UNL     1       1.196   0.311   3.077  0.00  0.00    -0.325 N 
ATOM     10  H   UNL     1       2.035   0.094   2.641  0.00  0.00    +0.145 HD
ATOM     11  H   UNL     1       1.199   0.768   3.933  0.00  0.00    +0.145 HD
ENDBRANCH   6   7
BRANCH   5  12
ATOM     12  N   UNL     1       0.054  -3.022   2.123  0.00  0.00    -0.247 NA
ATOM     13  C   UNL     1       0.070  -4.299   1.846  0.00  0.00    +0.120 C 
BRANCH  13  14
ATOM     14  C   UNL     1       0.089  -5.287   2.935  0.00  0.00    -0.007 A 
ATOM     15  C   UNL     1       0.084  -4.865   4.269  0.00  0.00    +0.011 A 
ATOM     16  C   UNL     1       0.102  -5.798   5.284  0.00  0.00    +0.033 A 
ATOM     17  C   UNL     1       0.125  -7.149   4.986  0.00  0.00    +0.126 A 
ATOM     18  C   UNL     1       0.131  -7.576   3.669  0.00  0.00    +0.033 A 
ATOM     19  C   UNL     1       0.106  -6.655   2.643  0.00  0.00    +0.011 A 
BRANCH  17  20
ATOM     20  N   UNL     1       0.145  -8.144   6.082  0.00  0.00    +0.056 N 
ATOM     21  O   UNL     1       0.141  -7.776   7.233  0.00  0.00    -0.126 OA
ATOM     22  O   UNL     1       0.166  -9.326   5.825  0.00  0.00    -0.126 OA
ENDBRANCH  17  20
ENDBRANCH  13  14
ENDBRANCH   5  12
BRANCH   3  23
ATOM     23  C   UNL     1      -0.010  -0.129  -2.570  0.00  0.00    +0.077 C 
BRANCH  23  24
ATOM     24  C   UNL     1       1.406   0.075  -3.045  0.00  0.00    -0.043 A 
ATOM     25  C   UNL     1       2.044   1.280  -2.821  0.00  0.00    +0.004 A 
ATOM     26  C   UNL     1       3.342   1.467  -3.256  0.00  0.00    +0.000 A 
ATOM     27  C   UNL     1       4.003   0.447  -3.916  0.00  0.00    +0.000 A 
ATOM     28  C   UNL     1       3.365  -0.759  -4.140  0.00  0.00    +0.000 A 
ATOM     29  C   UNL     1       2.068  -0.947  -3.700  0.00  0.00    +0.004 A 
ENDBRANCH  23  24
ENDBRANCH   3  23
TORSDOF 6
