REMARK  Name = ZINC16481167
REMARK  6 active torsions:
REMARK  status: ('A' for Active; 'I' for Inactive)
REMARK    1  A    between atoms: C_1  and  C_2
REMARK    2  A    between atoms: C_2  and  C_4
REMARK    3  A    between atoms: C_2  and  N_47
REMARK    4  A    between atoms: N_6  and  C_7
REMARK    5  A    between atoms: N_17  and  C_20
REMARK    6  A    between atoms: C_25  and  O_26
REMARK                            x       y       z     vdW  Elec       q    Type
REMARK                         _______ _______ _______ _____ _____    ______ ____
ROOT
ATOM      1  C   UNL     1      -2.409  -2.829  -1.118  0.00  0.00    -0.059 C 
ATOM      2  C   UNL     1      -2.086  -4.324  -1.067  0.00  0.00    +0.086 C 
ATOM      3  N   UNL     1      -3.338  -5.092  -1.044  0.00  0.00    -0.331 N 
ATOM      4  C   UNL     1      -4.154  -4.730   0.123  0.00  0.00    +0.086 C 
ATOM      5  C   UNL     1      -4.477  -3.235   0.072  0.00  0.00    -0.059 C 
ATOM      6  N   UNL     1      -3.210  -2.473   0.072  0.00  0.00    +0.389 N 
ATOM      7  H   UNL     1      -2.678  -2.712   0.916  0.00  0.00    -0.081 HD
ENDROOT
BRANCH   3   8
ATOM      8  C   UNL     1      -3.083  -6.468  -1.070  0.00  0.00    +0.072 A 
ATOM      9  C   UNL     1      -1.789  -6.939  -0.906  0.00  0.00    +0.027 A 
ATOM     10  C   UNL     1      -1.540  -8.298  -0.927  0.00  0.00    +0.002 A 
ATOM     11  C   UNL     1      -2.577  -9.191  -1.121  0.00  0.00    +0.004 A 
ATOM     12  C   UNL     1      -3.869  -8.729  -1.291  0.00  0.00    +0.047 A 
ATOM     13  C   UNL     1      -4.128  -7.369  -1.266  0.00  0.00    +0.138 A 
BRANCH  13  14
ATOM     14  O   UNL     1      -5.398  -6.913  -1.434  0.00  0.00    -0.505 OA
ATOM     15  H   UNL     1      -5.662  -6.814  -2.359  0.00  0.00    +0.292 HD
ENDBRANCH  13  14
ENDBRANCH   3   8
BRANCH   6  17
ATOM     16  C   UNL     1      -4.587  -0.687  -0.940  0.00  0.00    -0.004 C 
ATOM     17  C   UNL     1      -3.493  -1.022   0.076  0.00  0.00    +0.017 C 
BRANCH  17  18
ATOM     18  C   UNL     1      -3.948  -0.621   1.455  0.00  0.00    +0.203 C 
ATOM     19  O   UNL     1      -4.123  -1.468   2.306  0.00  0.00    -0.277 OA
ATOM     20  N   UNL     1      -4.162   0.678   1.744  0.00  0.00    -0.286 N 
ATOM     21  H   UNL     1      -4.079   1.349   1.048  0.00  0.00    +0.155 HD
BRANCH  20  22
ATOM     22  C   UNL     1      -4.503   1.059   3.047  0.00  0.00    +0.047 A 
ATOM     23  C   UNL     1      -5.240   0.200   3.852  0.00  0.00    +0.025 A 
ATOM     24  C   UNL     1      -5.570   0.576   5.139  0.00  0.00    +0.017 A 
ATOM     25  C   UNL     1      -5.173   1.809   5.625  0.00  0.00    +0.019 A 
ATOM     26  C   UNL     1      -4.444   2.669   4.824  0.00  0.00    +0.032 A 
ATOM     27  C   UNL     1      -4.110   2.299   3.535  0.00  0.00    +0.040 A 
ATOM     28 BR   UNL     1      -3.112   3.474   2.440  0.00  0.00    -0.048 Br
ATOM     29 BR   UNL     1      -5.628   2.320   7.388  0.00  0.00    -0.050 Br
ENDBRANCH  20  22
ENDBRANCH  17  18
ENDBRANCH   6  17
TORSDOF 5
