REMARK  Name = ZINC08767697
REMARK  11 active torsions:
REMARK  status: ('A' for Active; 'I' for Inactive)
REMARK    1  A    between atoms: C_1  and  C_2
REMARK    2  A    between atoms: C_13  and  O_15
REMARK    3  A    between atoms: O_15  and  C_16
REMARK    4  A    between atoms: C_16  and  C_18
REMARK    5  A    between atoms: C_18  and  C_19
REMARK    6  A    between atoms: C_19  and  C_20
REMARK    7  A    between atoms: N_22  and  C_23
REMARK    8  A    between atoms: C_23  and  C_24
REMARK    9  A    between atoms: C_24  and  C_25
REMARK   10  A    between atoms: C_28  and  O_31
REMARK   11  A    between atoms: C_40  and  C_41
REMARK                            x       y       z     vdW  Elec       q    Type
REMARK                         _______ _______ _______ _____ _____    ______ ____
ROOT
ATOM      1  C   UNL     1      -0.013   1.086   0.008  0.00  0.00    +0.015 C 
ATOM      2  C   UNL     1      -0.727   1.578   1.264  0.00  0.00    +0.008 C 
ATOM      3  C   UNL     1      -0.746   3.087   1.304  0.00  0.00    +0.011 C 
ATOM      4  C   UNL     1       0.681   3.597   1.563  0.00  0.00    +0.005 C 
ATOM      5  C   UNL     1       1.219   3.051   2.881  0.00  0.00    +0.002 C 
ATOM      6  C   UNL     1       1.252   1.516   2.875  0.00  0.00    -0.003 C 
ATOM      7  C   UNL     1      -0.131   1.021   2.570  0.00  0.00    +0.002 C 
ATOM      8  C   UNL     1      -0.358  -0.485   2.397  0.00  0.00    +0.008 C 
ATOM      9  C   UNL     1      -1.798  -0.536   1.807  0.00  0.00    +0.045 C 
ATOM     10  C   UNL     1      -2.108   0.892   1.287  0.00  0.00    +0.183 C 
ATOM     11  C   UNL     1       2.339   0.974   1.962  0.00  0.00    +0.008 C 
ATOM     12  C   UNL     1       3.713   1.445   2.481  0.00  0.00    +0.032 C 
ATOM     13  C   UNL     1       3.664   2.966   2.445  0.00  0.00    -0.060 C 
ATOM     14  C   UNL     1       4.568   3.608   1.708  0.00  0.00    +0.046 C 
ATOM     15  C   UNL     1       4.484   5.067   1.581  0.00  0.00    +0.156 C 
ATOM     16  O   UNL     1       5.452   5.742   1.294  0.00  0.00    -0.293 OA
ATOM     17  C   UNL     1       3.124   5.690   1.827  0.00  0.00    +0.080 C 
ATOM     18  C   UNL     1       2.579   5.153   3.145  0.00  0.00    +0.019 C 
ATOM     19  C   UNL     1       2.579   3.641   3.219  0.00  0.00    -0.007 C 
ATOM     20  C   UNL     1       2.839   3.320   4.699  0.00  0.00    +0.016 C 
ENDROOT
BRANCH  10  21
ATOM     21  O   UNL     1      -2.655   0.841  -0.054  0.00  0.00    -0.461 OA
BRANCH  21  22
ATOM     22  C   UNL     1      -3.991   0.874  -0.169  0.00  0.00    +0.308 C 
ATOM     23  O   UNL     1      -4.681   0.942   0.821  0.00  0.00    -0.251 OA
BRANCH  22  24
ATOM     24  C   UNL     1      -4.632   0.824  -1.532  0.00  0.00    +0.130 C 
BRANCH  24  25
ATOM     25  C   UNL     1      -6.154   0.875  -1.383  0.00  0.00    +0.107 C 
BRANCH  25  26
ATOM     26  C   UNL     1      -6.794   0.826  -2.746  0.00  0.00    +0.214 C 
ATOM     27  O   UNL     1      -6.102   0.757  -3.739  0.00  0.00    -0.276 OA
ATOM     28  N   UNL     1      -8.137   0.858  -2.861  0.00  0.00    -0.315 N 
ATOM     29  H   UNL     1      -8.691   0.913  -2.067  0.00  0.00    +0.149 HD
BRANCH  28  30
ATOM     30  C   UNL     1      -8.759   0.810  -4.186  0.00  0.00    +0.109 C 
BRANCH  30  31
ATOM     31  C   UNL     1     -10.281   0.861  -4.037  0.00  0.00    +0.054 C 
BRANCH  31  32
ATOM     32  C   UNL     1     -10.922   0.812  -5.400  0.00  0.00    -0.046 A 
ATOM     33  C   UNL     1     -11.186   1.986  -6.082  0.00  0.00    +0.007 A 
ATOM     34  C   UNL     1     -11.768   1.943  -7.334  0.00  0.00    +0.045 A 
ATOM     35  C   UNL     1     -12.097   0.721  -7.903  0.00  0.00    +0.117 A 
ATOM     36  C   UNL     1     -11.836  -0.455  -7.215  0.00  0.00    +0.045 A 
ATOM     37  C   UNL     1     -11.249  -0.407  -5.965  0.00  0.00    +0.007 A 
BRANCH  35  38
ATOM     38  O   UNL     1     -12.675   0.677  -9.132  0.00  0.00    -0.507 OA
ATOM     39  H   UNL     1     -13.641   0.705  -9.114  0.00  0.00    +0.292 HD
ENDBRANCH  35  38
ENDBRANCH  31  32
ENDBRANCH  30  31
ENDBRANCH  28  30
ENDBRANCH  25  26
ENDBRANCH  24  25
ENDBRANCH  22  24
ENDBRANCH  21  22
ENDBRANCH  10  21
TORSDOF 9
