REMARK  Name = ZINC00755079
REMARK  12 active torsions:
REMARK  status: ('A' for Active; 'I' for Inactive)
REMARK    1  A    between atoms: C_1  and  N_2
REMARK    2  A    between atoms: N_2  and  C_3
REMARK    3  A    between atoms: N_2  and  C_4
REMARK    4  A    between atoms: C_4  and  C_5
REMARK    5  A    between atoms: C_6  and  O_27
REMARK    6  A    between atoms: C_11  and  C_14
REMARK    7  A    between atoms: C_14  and  C_16
REMARK    8  A    between atoms: C_14  and  O_26
REMARK    9  A    between atoms: C_18  and  O_24
REMARK   10  A    between atoms: C_21  and  O_22
REMARK   11  A    between atoms: O_22  and  C_23
REMARK   12  A    between atoms: O_24  and  C_25
REMARK                            x       y       z     vdW  Elec       q    Type
REMARK                         _______ _______ _______ _____ _____    ______ ____
ROOT
ATOM      1  C   UNL     1      -1.522  -2.194   0.069  0.00  0.00    -0.011 A 
ATOM      2  C   UNL     1      -1.448  -2.986  -1.062  0.00  0.00    +0.119 A 
ATOM      3  C   UNL     1      -1.296  -4.364  -0.941  0.00  0.00    +0.049 A 
ATOM      4  C   UNL     1      -1.219  -4.956   0.300  0.00  0.00    +0.050 A 
ATOM      5  C   UNL     1      -1.292  -4.177   1.448  0.00  0.00    +0.136 A 
ATOM      6  C   UNL     1      -1.438  -2.785   1.329  0.00  0.00    +0.031 A 
ATOM      7  C   UNL     1      -1.474  -2.275   2.705  0.00  0.00    +0.031 A 
ATOM      8  C   UNL     1      -1.346  -3.344   3.503  0.00  0.00    +0.202 A 
ATOM      9  O   UNL     1      -1.246  -4.463   2.766  0.00  0.00    -0.463 OA
ENDROOT
BRANCH   2  10
ATOM     10  O   UNL     1      -1.523  -2.417  -2.294  0.00  0.00    -0.507 OA
ATOM     11  H   UNL     1      -0.666  -2.156  -2.660  0.00  0.00    +0.292 HD
ENDBRANCH   2  10
BRANCH   1  12
ATOM     12  C   UNL     1      -1.686  -0.702  -0.059  0.00  0.00    -0.039 C 
BRANCH  12  14
ATOM     13  C   UNL     1      -0.556   1.349  -0.580  0.00  0.00    -0.096 C 
ATOM     14  N   UNL     1      -0.379  -0.087  -0.325  0.00  0.00    +0.379 N 
ATOM     15  C   UNL     1       0.496  -0.273   0.840  0.00  0.00    -0.096 C 
ATOM     16  H   UNL     1       0.040  -0.522  -1.133  0.00  0.00    -0.082 HD
ENDBRANCH  12  14
ENDBRANCH   1  12
BRANCH   7  17
ATOM     17  C   UNL     1      -1.623  -0.838   3.133  0.00  0.00    +0.182 C 
BRANCH  17  18
ATOM     18  C   UNL     1      -2.990  -0.633   3.736  0.00  0.00    +0.030 A 
ATOM     19  C   UNL     1      -3.155  -0.682   5.106  0.00  0.00    +0.055 A 
ATOM     20  C   UNL     1      -4.412  -0.494   5.661  0.00  0.00    +0.121 A 
ATOM     21  C   UNL     1      -5.503  -0.255   4.839  0.00  0.00    +0.049 A 
ATOM     22  C   UNL     1      -5.338  -0.206   3.469  0.00  0.00    +0.049 A 
ATOM     23  C   UNL     1      -4.080  -0.390   2.914  0.00  0.00    +0.126 A 
BRANCH  23  24
ATOM     24  O   UNL     1      -3.917  -0.336   1.566  0.00  0.00    -0.495 OA
ATOM     25  C   UNL     1      -5.060   0.024   0.788  0.00  0.00    +0.277 C 
ENDBRANCH  23  24
BRANCH  20  26
ATOM     26  O   UNL     1      -4.574  -0.542   7.010  0.00  0.00    -0.495 OA
ATOM     27  C   UNL     1      -5.896  -0.339   7.512  0.00  0.00    +0.277 C 
ENDBRANCH  20  26
ENDBRANCH  17  18
BRANCH  17  28
ATOM     28  O   UNL     1      -0.623  -0.524   4.104  0.00  0.00    -0.382 OA
ATOM     29  H   UNL     1      -0.666  -1.066   4.903  0.00  0.00    +0.211 HD
ENDBRANCH  17  28
ENDBRANCH   7  17
TORSDOF 8
