REMARK  Name = ZINC13573536
REMARK  5 active torsions:
REMARK  status: ('A' for Active; 'I' for Inactive)
REMARK    1  A    between atoms: C_1  and  C_2
REMARK    2  A    between atoms: C_8  and  C_13
REMARK    3  A    between atoms: C_9  and  C_12
REMARK    4  A    between atoms: C_24  and  S_25
REMARK    5  A    between atoms: S_25  and  C_26
REMARK                            x       y       z     vdW  Elec       q    Type
REMARK                         _______ _______ _______ _____ _____    ______ ____
ROOT
ATOM      1  C   UNL     1       0.059  -2.907   3.634  0.00  0.00    +0.026 C 
ATOM      2  C   UNL     1      -0.845  -3.575   4.438  0.00  0.00    +0.079 C 
ATOM      3  C   UNL     1      -0.881  -3.375   5.914  0.00  0.00    +0.137 C 
ATOM      4  N   UNL     1      -0.589  -2.241   6.494  0.00  0.00    -0.284 NA
ATOM      5  N   UNL     1      -1.263  -4.533   6.621  0.00  0.00    -0.211 N 
ATOM      6  C   UNL     1      -2.001  -5.494   5.958  0.00  0.00    +0.183 C 
ATOM      7  N   UNL     1      -2.312  -5.498   4.681  0.00  0.00    -0.152 NA
ATOM      8  C   UNL     1      -1.836  -4.524   3.880  0.00  0.00    +0.273 C 
ATOM      9  O   UNL     1      -2.209  -4.428   2.721  0.00  0.00    -0.268 OA
ATOM     10  S   UNL     1      -2.353  -6.601   7.154  0.00  0.00    +0.048 S 
ATOM     11  N   UNL     1      -1.498  -5.917   8.423  0.00  0.00    -0.185 NA
ATOM     12  C   UNL     1      -0.993  -4.824   7.919  0.00  0.00    +0.175 C 
ATOM     13  H   UNL     1      -0.332  -1.474   5.958  0.00  0.00    +0.188 HD
ENDROOT
BRANCH   1  21
ATOM     14  C   UNL     1      -0.018   1.503   0.010  0.00  0.00    +0.044 C 
ATOM     15  C   UNL     1       0.002  -0.004   0.002  0.00  0.00    -0.050 A 
ATOM     16  C   UNL     1       0.006  -0.688  -1.205  0.00  0.00    +0.005 A 
ATOM     17  C   UNL     1       0.024  -2.066  -1.230  0.00  0.00    +0.026 A 
ATOM     18  C   UNL     1       0.040  -2.783  -0.038  0.00  0.00    +0.047 A 
ATOM     19  C   UNL     1       0.036  -2.088   1.181  0.00  0.00    +0.007 A 
ATOM     20  C   UNL     1       0.023  -0.697   1.193  0.00  0.00    +0.014 A 
ATOM     21  C   UNL     1       0.055  -3.121   2.236  0.00  0.00    +0.004 A 
ATOM     22  C   UNL     1       0.068  -4.339   1.584  0.00  0.00    +0.021 A 
ATOM     23  N   UNL     1       0.059  -4.134   0.247  0.00  0.00    -0.358 N 
ATOM     24  H   UNL     1       0.065  -4.838  -0.420  0.00  0.00    +0.166 HD
ATOM     25  C   UNL     1       0.090  -5.687   2.257  0.00  0.00    +0.064 C 
ENDBRANCH   1  21
BRANCH  12  26
ATOM     26  S   UNL     1       0.011  -3.756   8.896  0.00  0.00    -0.093 S 
ATOM     27  C   UNL     1       0.069  -4.569  10.517  0.00  0.00    +0.093 C 
ENDBRANCH  12  26
TORSDOF 2
