REMARK  Name = ZINC43423387
REMARK  6 active torsions:
REMARK  status: ('A' for Active; 'I' for Inactive)
REMARK    1  A    between atoms: C_1  and  C_2
REMARK    2  A    between atoms: C_2  and  C_3
REMARK    3  A    between atoms: C_3  and  C_5
REMARK    4  A    between atoms: C_3  and  N_25
REMARK    5  A    between atoms: C_5  and  C_7
REMARK    6  A    between atoms: C_5  and  N_14
REMARK                            x       y       z     vdW  Elec       q    Type
REMARK                         _______ _______ _______ _____ _____    ______ ____
ROOT
ATOM      1  C   UNL     1       0.550  -2.024   1.367  0.00  0.00    +0.073 C 
ENDROOT
BRANCH   1   2
ATOM      2  N   UNL     1      -0.877  -2.342   1.500  0.00  0.00    -0.289 NA
ATOM      3  C   UNL     1      -1.595  -1.267   2.218  0.00  0.00    +0.113 C 
ATOM      4  C   UNL     1      -3.091  -1.556   2.308  0.00  0.00    +0.175 C 
ATOM      5  O   UNL     1      -3.644  -1.887   1.022  0.00  0.00    -0.374 OA
ATOM      6  C   UNL     1      -2.956  -2.983   0.445  0.00  0.00    +0.135 C 
ATOM      7  C   UNL     1      -1.498  -2.508   0.194  0.00  0.00    +0.086 C 
ATOM      8  C   UNL     1      -0.928  -3.594  -0.711  0.00  0.00    +0.021 C 
ATOM      9  C   UNL     1      -2.138  -4.144  -1.506  0.00  0.00    +0.004 C 
ATOM     10  C   UNL     1      -3.402  -3.417  -0.954  0.00  0.00    +0.033 C 
ENDBRANCH   1   2
BRANCH   1  11
ATOM     11  C   UNL     1       1.300  -2.572   2.554  0.00  0.00    -0.032 A 
ATOM     12  C   UNL     1       0.682  -2.642   3.789  0.00  0.00    +0.006 A 
ATOM     13  C   UNL     1       1.369  -3.144   4.878  0.00  0.00    +0.020 A 
ATOM     14  C   UNL     1       2.675  -3.577   4.732  0.00  0.00    +0.041 A 
ATOM     15  C   UNL     1       3.292  -3.507   3.496  0.00  0.00    +0.020 A 
ATOM     16  C   UNL     1       2.603  -3.009   2.406  0.00  0.00    +0.006 A 
ATOM     17 CL   UNL     1       3.538  -4.208   6.100  0.00  0.00    -0.084 Cl
ENDBRANCH   1  11
BRANCH   1  18
ATOM     18  C   UNL     1       0.731  -0.506   1.306  0.00  0.00    -0.053 C 
BRANCH  18  19
ATOM     19  N   UNL     1       2.164  -0.182   1.320  0.00  0.00    +0.381 N 
ATOM     20  H   UNL     1       2.284   0.819   1.280  0.00  0.00    -0.090 HD
ATOM     21  H   UNL     1       2.581  -0.537   2.168  0.00  0.00    -0.090 HD
ATOM     22  H   UNL     1       2.613  -0.607   0.522  0.00  0.00    -0.090 HD
ENDBRANCH  18  19
BRANCH  18  24
ATOM     23  C   UNL     1       0.279   1.550  -0.040  0.00  0.00    +0.002 C 
ATOM     24  C   UNL     1       0.100   0.032   0.020  0.00  0.00    -0.018 C 
ENDBRANCH  18  24
ENDBRANCH   1  18
TORSDOF 5
