REMARK  Name = ZINC20325073
REMARK  8 active torsions:
REMARK  status: ('A' for Active; 'I' for Inactive)
REMARK    1  A    between atoms: C_1  and  C_2
REMARK    2  A    between atoms: C_2  and  C_3
REMARK    3  A    between atoms: C_2  and  C_4
REMARK    4  A    between atoms: C_2  and  N_28
REMARK    5  A    between atoms: C_4  and  N_5
REMARK    6  A    between atoms: N_5  and  C_6
REMARK    7  A    between atoms: N_17  and  C_20
REMARK    8  A    between atoms: C_20  and  C_21
REMARK                            x       y       z     vdW  Elec       q    Type
REMARK                         _______ _______ _______ _____ _____    ______ ____
ROOT
ATOM      1  C   UNL     1      -1.070  -6.455  -4.955  0.00  0.00    -0.067 C 
ATOM      2  C   UNL     1      -1.893  -5.170  -5.090  0.00  0.00    -0.011 C 
ATOM      3  C   UNL     1      -1.371  -4.114  -4.116  0.00  0.00    +0.035 C 
ATOM      4  C   UNL     1      -1.319  -4.718  -2.716  0.00  0.00    -0.023 A 
ATOM      5  C   UNL     1      -1.334  -6.056  -2.541  0.00  0.00    -0.006 A 
ATOM      6  S   UNL     1      -1.262  -6.291  -0.785  0.00  0.00    -0.073 S 
ATOM      7  C   UNL     1      -1.213  -4.587  -0.291  0.00  0.00    +0.116 A 
ATOM      8  C   UNL     1      -1.254  -3.893  -1.510  0.00  0.00    +0.076 A 
ATOM      9  C   UNL     1      -1.232  -2.463  -1.411  0.00  0.00    +0.262 A 
ATOM     10  O   UNL     1      -1.269  -1.771  -2.414  0.00  0.00    -0.267 OA
ATOM     11  N   UNL     1      -1.166  -1.897  -0.191  0.00  0.00    -0.298 N 
ATOM     12  C   UNL     1      -1.130  -2.652   0.937  0.00  0.00    +0.203 A 
ATOM     13  N   UNL     1      -1.154  -3.957   0.878  0.00  0.00    -0.230 NA
ATOM     14  C   UNL     1      -1.397  -7.109  -3.605  0.00  0.00    +0.027 C 
ENDROOT
BRANCH   1  15
ATOM     15  N   UNL     1      -1.410  -7.376  -6.047  0.00  0.00    +0.382 N 
ATOM     16  H   UNL     1      -1.626  -6.786  -6.951  0.00  0.00    -0.085 HD
ATOM     17  H   UNL     1      -2.304  -7.948  -5.761  0.00  0.00    -0.085 HD
BRANCH  15  18
ATOM     18  C   UNL     1      -0.302  -8.301  -6.320  0.00  0.00    -0.060 C 
BRANCH  18  20
ATOM     19  C   UNL     1       0.509 -10.108  -7.843  0.00  0.00    +0.025 C 
ATOM     20  C   UNL     1      -0.693  -9.242  -7.461  0.00  0.00    +0.001 C 
ATOM     21  C   UNL     1      -1.846 -10.141  -7.009  0.00  0.00    +0.025 C 
BRANCH  20  22
ATOM     22  N   UNL     1      -1.117  -8.451  -8.625  0.00  0.00    -0.295 NA
ATOM     23  C   UNL     1      -1.662  -9.318  -9.680  0.00  0.00    +0.113 C 
ATOM     24  C   UNL     1      -2.145  -8.450 -10.846  0.00  0.00    +0.175 C 
ATOM     25  O   UNL     1      -1.061  -7.643 -11.314  0.00  0.00    -0.377 OA
ATOM     26  C   UNL     1      -0.506  -6.787 -10.312  0.00  0.00    +0.175 C 
ATOM     27  C   UNL     1      -0.007  -7.637  -9.140  0.00  0.00    +0.113 C 
ENDBRANCH  20  22
ENDBRANCH  18  20
ENDBRANCH  15  18
ENDBRANCH   1  15
BRANCH  11  28
ATOM     28  C   UNL     1      -1.138  -0.436  -0.078  0.00  0.00    +0.129 C 
BRANCH  28  29
ATOM     29  C   UNL     1       0.313   0.049  -0.100  0.00  0.00    +0.009 C 
ATOM     30  C   UNL     1       0.339   1.579  -0.108  0.00  0.00    +0.005 C 
ATOM     31  C   UNL     1       1.789   2.064  -0.130  0.00  0.00    +0.000 C 
ATOM     32  C   UNL     1       2.518   1.548   1.112  0.00  0.00    +0.000 C 
ATOM     33  C   UNL     1       2.493   0.018   1.120  0.00  0.00    +0.000 C 
ATOM     34  C   UNL     1       1.042  -0.467   1.142  0.00  0.00    +0.005 C 
ENDBRANCH  28  29
ENDBRANCH  11  28
TORSDOF 6
