REMARK  Name = ZINC53627409
REMARK  11 active torsions:
REMARK  status: ('A' for Active; 'I' for Inactive)
REMARK    1  A    between atoms: C_1  and  C_2
REMARK    2  A    between atoms: C_13  and  C_15
REMARK    3  A    between atoms: C_15  and  C_16
REMARK    4  A    between atoms: C_16  and  C_17
REMARK    5  A    between atoms: N_19  and  C_20
REMARK    6  A    between atoms: C_20  and  C_21
REMARK    7  A    between atoms: C_21  and  C_22
REMARK    8  A    between atoms: C_29  and  C_30
REMARK    9  A    between atoms: C_30  and  C_31
REMARK   10  A    between atoms: C_30  and  C_32
REMARK   11  A    between atoms: C_30  and  C_33
REMARK                            x       y       z     vdW  Elec       q    Type
REMARK                         _______ _______ _______ _____ _____    ______ ____
ROOT
ATOM      1  C   UNL     1      -0.019   1.526   0.010  0.00  0.00    +0.013 C 
ATOM      2  C   UNL     1       0.002  -0.004   0.002  0.00  0.00    +0.033 C 
ATOM      3  C   UNL     1      -1.414  -0.524   0.009  0.00  0.00    -0.001 A 
ATOM      4  C   UNL     1      -2.347   0.130  -0.755  0.00  0.00    +0.019 A 
ATOM      5  C   UNL     1      -3.665  -0.318  -0.786  0.00  0.00    +0.024 A 
ATOM      6  C   UNL     1      -4.044  -1.443  -0.035  0.00  0.00    +0.139 A 
ATOM      7  C   UNL     1      -3.092  -2.094   0.735  0.00  0.00    +0.093 A 
ATOM      8  C   UNL     1      -1.782  -1.634   0.758  0.00  0.00    +0.139 A 
ATOM      9  O   UNL     1      -0.887  -2.296   1.544  0.00  0.00    -0.425 OA
ATOM     10  C   UNL     1       0.415  -1.979   1.408  0.00  0.00    +0.316 C 
ATOM     11  O   UNL     1       1.277  -2.826   1.418  0.00  0.00    -0.250 OA
ATOM     12  C   UNL     1       0.747  -0.510   1.241  0.00  0.00    +0.106 C 
ATOM     13  O   UNL     1      -5.359  -1.647  -0.255  0.00  0.00    -0.463 OA
ATOM     14  C   UNL     1      -5.853  -0.723  -1.098  0.00  0.00    +0.200 A 
ATOM     15  C   UNL     1      -4.886   0.127  -1.470  0.00  0.00    +0.003 A 
ENDROOT
BRANCH  15  16
ATOM     16  C   UNL     1      -5.023   1.302  -2.403  0.00  0.00    -0.009 C 
ATOM     17  C   UNL     1      -6.471   1.401  -2.889  0.00  0.00    +0.015 C 
ATOM     18  C   UNL     1      -4.644   2.587  -1.664  0.00  0.00    +0.015 C 
ATOM     19  C   UNL     1      -4.094   1.111  -3.604  0.00  0.00    +0.015 C 
ENDBRANCH  15  16
BRANCH  12  20
ATOM     20  C   UNL     1       0.289   0.270   2.476  0.00  0.00    +0.024 C 
BRANCH  20  21
ATOM     21  C   UNL     1       1.125  -0.154   3.685  0.00  0.00    +0.096 C 
BRANCH  21  22
ATOM     22  C   UNL     1       0.675   0.614   4.901  0.00  0.00    +0.213 C 
ATOM     23  O   UNL     1      -0.226   1.421   4.809  0.00  0.00    -0.276 OA
ATOM     24  N   UNL     1       1.273   0.404   6.090  0.00  0.00    -0.315 N 
ATOM     25  H   UNL     1       1.994  -0.241   6.164  0.00  0.00    +0.149 HD
BRANCH  24  26
ATOM     26  C   UNL     1       0.835   1.151   7.272  0.00  0.00    +0.110 C 
BRANCH  26  27
ATOM     27  C   UNL     1       1.671   0.727   8.482  0.00  0.00    +0.073 C 
BRANCH  27  28
ATOM     28  C   UNL     1       1.221   1.495   9.698  0.00  0.00    +0.035 A 
ATOM     29  N   UNL     1       0.315   1.079  10.636  0.00  0.00    -0.350 N 
ATOM     30  C   UNL     1       0.205   2.067  11.550  0.00  0.00    +0.171 A 
ATOM     31  N   UNL     1       0.995   3.047  11.205  0.00  0.00    -0.352 N 
ATOM     32  C   UNL     1       1.636   2.720  10.073  0.00  0.00    +0.105 A 
ATOM     33  H   UNL     1      -0.159   0.233  10.643  0.00  0.00    +0.166 HD
ATOM     34  H   UNL     1       1.105   3.878  11.692  0.00  0.00    +0.166 HD
ENDBRANCH  27  28
ENDBRANCH  26  27
ENDBRANCH  24  26
ENDBRANCH  21  22
ENDBRANCH  20  21
ENDBRANCH  12  20
TORSDOF 7
