REMARK  Name = ZINC45669739
REMARK  12 active torsions:
REMARK  status: ('A' for Active; 'I' for Inactive)
REMARK    1  A    between atoms: C_1  and  C_2
REMARK    2  A    between atoms: C_5  and  S_28
REMARK    3  A    between atoms: C_7  and  C_8
REMARK    4  A    between atoms: C_8  and  O_10
REMARK    5  A    between atoms: O_10  and  C_11
REMARK    6  A    between atoms: C_11  and  C_13
REMARK    7  A    between atoms: C_11  and  C_14
REMARK    8  A    between atoms: N_16  and  C_17
REMARK    9  A    between atoms: C_17  and  C_19
REMARK   10  A    between atoms: C_17  and  C_20
REMARK   11  A    between atoms: S_28  and  N_31
REMARK   12  A    between atoms: N_31  and  C_32
REMARK                            x       y       z     vdW  Elec       q    Type
REMARK                         _______ _______ _______ _____ _____    ______ ____
ROOT
ATOM      1  C   UNL     1       0.242   0.020   2.480  0.00  0.00    +0.340 C 
ATOM      2  O   UNL     1       0.134   1.230   2.502  0.00  0.00    -0.245 OA
ENDROOT
BRANCH   1   9
ATOM      3  C   UNL     1      -0.510   1.452   0.082  0.00  0.00    +0.044 C 
ATOM      4  C   UNL     1      -0.234  -0.028   0.036  0.00  0.00    -0.036 A 
ATOM      5  C   UNL     1      -0.333  -0.714  -1.157  0.00  0.00    +0.006 A 
ATOM      6  C   UNL     1      -0.079  -2.073  -1.200  0.00  0.00    +0.029 A 
ATOM      7  C   UNL     1       0.275  -2.755  -0.049  0.00  0.00    +0.106 A 
ATOM      8  C   UNL     1       0.378  -2.081   1.150  0.00  0.00    +0.043 A 
ATOM      9  C   UNL     1       0.128  -0.708   1.200  0.00  0.00    +0.064 A 
BRANCH   7  10
ATOM     10  S   UNL     1       0.595  -4.486  -0.116  0.00  0.00    +0.059 S 
ATOM     11  O   UNL     1       0.375  -4.990   1.195  0.00  0.00    -0.153 OA
ATOM     12  O   UNL     1      -0.100  -4.984  -1.250  0.00  0.00    -0.153 OA
BRANCH  10  13
ATOM     13  N   UNL     1       2.210  -4.674  -0.430  0.00  0.00    -0.187 NA
ATOM     14  H   UNL     1       2.498  -5.080  -1.262  0.00  0.00    +0.148 HD
BRANCH  13  15
ATOM     15  C   UNL     1       3.204  -4.227   0.549  0.00  0.00    +0.077 C 
ATOM     16  C   UNL     1       4.528  -3.681   0.013  0.00  0.00    +0.022 C 
ATOM     17  C   UNL     1       4.483  -5.054   0.685  0.00  0.00    +0.022 C 
ENDBRANCH  13  15
ENDBRANCH  10  13
ENDBRANCH   7  10
ENDBRANCH   1   9
BRANCH   1  18
ATOM     18  O   UNL     1       0.465  -0.657   3.623  0.00  0.00    -0.449 OA
BRANCH  18  19
ATOM     19  C   UNL     1       0.563   0.112   4.824  0.00  0.00    +0.259 C 
ATOM     20  C   UNL     1      -0.824   0.256   5.453  0.00  0.00    +0.062 C 
BRANCH  19  21
ATOM     21  C   UNL     1       1.483  -0.586   5.793  0.00  0.00    +0.254 C 
ATOM     22  O   UNL     1       2.003  -1.637   5.485  0.00  0.00    -0.272 OA
ATOM     23  N   UNL     1       1.728  -0.041   7.001  0.00  0.00    -0.306 N 
ATOM     24  H   UNL     1       1.312   0.800   7.247  0.00  0.00    +0.149 HD
BRANCH  23  25
ATOM     25  C   UNL     1       2.623  -0.718   7.942  0.00  0.00    +0.102 C 
ATOM     26  C   UNL     1       1.833  -1.761   8.736  0.00  0.00    +0.033 C 
BRANCH  25  27
ATOM     27  C   UNL     1       3.214   0.293   8.891  0.00  0.00    -0.009 A 
ATOM     28  C   UNL     1       2.542   1.473   9.149  0.00  0.00    +0.008 A 
ATOM     29  C   UNL     1       3.083   2.401  10.018  0.00  0.00    +0.020 A 
ATOM     30  C   UNL     1       4.298   2.149  10.631  0.00  0.00    +0.042 A 
ATOM     31  C   UNL     1       4.970   0.968  10.374  0.00  0.00    +0.040 A 
ATOM     32  C   UNL     1       4.426   0.038   9.507  0.00  0.00    +0.047 A 
ATOM     33 CL   UNL     1       5.266  -1.447   9.188  0.00  0.00    -0.083 Cl
ATOM     34 CL   UNL     1       4.978   3.315  11.723  0.00  0.00    -0.083 Cl
ENDBRANCH  25  27
ENDBRANCH  23  25
ENDBRANCH  19  21
ENDBRANCH  18  19
ENDBRANCH   1  18
TORSDOF 9
