REMARK  Name = ZINC14682285
REMARK  8 active torsions:
REMARK  status: ('A' for Active; 'I' for Inactive)
REMARK    1  A    between atoms: C_1  and  C_2
REMARK    2  A    between atoms: C_2  and  C_34
REMARK    3  A    between atoms: C_13  and  C_15
REMARK    4  A    between atoms: C_15  and  S_16
REMARK    5  A    between atoms: S_16  and  C_17
REMARK    6  A    between atoms: C_20  and  C_29
REMARK    7  A    between atoms: N_21  and  C_22
REMARK    8  A    between atoms: C_22  and  C_23
REMARK                            x       y       z     vdW  Elec       q    Type
REMARK                         _______ _______ _______ _____ _____    ______ ____
ROOT
ATOM      1  S   UNL     1      -4.365  -0.325  -0.561  0.00  0.00    -0.077 S 
ENDROOT
BRANCH   1   2
ATOM      2  C   UNL     1      -4.205  -1.917  -1.298  0.00  0.00    +0.193 A 
ATOM      3  N   UNL     1      -3.081  -2.549  -1.551  0.00  0.00    -0.122 NA
ATOM      4  N   UNL     1      -3.326  -3.690  -2.089  0.00  0.00    -0.128 NA
ATOM      5  C   UNL     1      -4.624  -3.854  -2.221  0.00  0.00    +0.172 A 
ATOM      6  N   UNL     1      -5.226  -2.723  -1.718  0.00  0.00    -0.297 N 
BRANCH   5   7
ATOM      7  C   UNL     1      -5.303  -5.026  -2.798  0.00  0.00    +0.056 A 
ATOM      8  C   UNL     1      -4.780  -6.043  -3.555  0.00  0.00    +0.019 A 
ATOM      9  C   UNL     1      -5.620  -7.044  -3.988  0.00  0.00    +0.008 A 
ATOM     10  C   UNL     1      -6.936  -6.995  -3.654  0.00  0.00    +0.046 A 
ATOM     11  S   UNL     1      -7.022  -5.497  -2.688  0.00  0.00    -0.094 S 
ENDBRANCH   5   7
BRANCH   6  12
ATOM     12  C   UNL     1      -6.662  -2.441  -1.649  0.00  0.00    +0.161 C 
BRANCH  12  13
ATOM     13  C   UNL     1      -7.099  -1.743  -2.911  0.00  0.00    -0.028 A 
ATOM     14  C   UNL     1      -7.072  -0.363  -2.983  0.00  0.00    +0.005 A 
ATOM     15  C   UNL     1      -7.468   0.277  -4.142  0.00  0.00    +0.000 A 
ATOM     16  C   UNL     1      -7.901  -0.463  -5.227  0.00  0.00    +0.000 A 
ATOM     17  C   UNL     1      -7.933  -1.843  -5.153  0.00  0.00    +0.000 A 
ATOM     18  C   UNL     1      -7.532  -2.483  -3.996  0.00  0.00    +0.005 A 
ENDBRANCH  12  13
ENDBRANCH   6  12
ENDBRANCH   1   2
BRANCH   1  19
ATOM     19  C   UNL     1      -2.620   0.077  -0.299  0.00  0.00    +0.173 C 
BRANCH  19  32
ATOM     20  C   UNL     1       0.455   1.752  -1.208  0.00  0.00    +0.042 C 
ATOM     21  C   UNL     1      -0.066   1.291   0.155  0.00  0.00    +0.113 C 
ATOM     22  C   UNL     1       0.968   1.578   1.214  0.00  0.00    +0.241 C 
ATOM     23  O   UNL     1       1.814   0.746   1.466  0.00  0.00    -0.273 OA
ATOM     24  N   UNL     1       0.964   2.747   1.882  0.00  0.00    -0.282 N 
ATOM     25  C   UNL     1      -0.030   3.702   1.645  0.00  0.00    +0.055 A 
ATOM     26  C   UNL     1       0.113   5.003   2.102  0.00  0.00    +0.025 A 
ATOM     27  C   UNL     1      -0.887   5.929   1.866  0.00  0.00    +0.002 A 
ATOM     28  C   UNL     1      -2.029   5.564   1.177  0.00  0.00    +0.002 A 
ATOM     29  C   UNL     1      -2.179   4.269   0.715  0.00  0.00    +0.025 A 
ATOM     30  C   UNL     1      -1.182   3.338   0.946  0.00  0.00    +0.059 A 
ATOM     31  N   UNL     1      -1.301   2.019   0.482  0.00  0.00    -0.255 N 
ATOM     32  C   UNL     1      -2.509   1.437   0.341  0.00  0.00    +0.231 C 
ATOM     33  O   UNL     1      -3.506   2.008   0.730  0.00  0.00    -0.274 OA
ATOM     34  C   UNL     1      -0.351  -0.212   0.113  0.00  0.00    +0.042 C 
ATOM     35  H   UNL     1       1.658   2.929   2.535  0.00  0.00    +0.155 HD
ENDBRANCH  19  32
ENDBRANCH   1  19
TORSDOF 6
