REMARK  Name = ZINC02603925
REMARK  5 active torsions:
REMARK  status: ('A' for Active; 'I' for Inactive)
REMARK    1  A    between atoms: N_13  and  C_14
REMARK    2  A    between atoms: C_14  and  C_15
REMARK    3  A    between atoms: C_15  and  C_17
REMARK    4  A    between atoms: C_15  and  O_28
REMARK    5  A    between atoms: C_17  and  N_52
REMARK                            x       y       z     vdW  Elec       q    Type
REMARK                         _______ _______ _______ _____ _____    ______ ____
ROOT
ATOM      1  C   UNL     1       0.167   0.007   0.029  0.00  0.00    +0.118 C 
ENDROOT
BRANCH   1   2
ATOM      2  O   UNL     1       0.894  -0.370   1.200  0.00  0.00    -0.392 OA
ATOM      3  H   UNL     1       0.459  -0.126   2.028  0.00  0.00    +0.210 HD
ENDBRANCH   1   2
BRANCH   1   4
ATOM      4  C   UNL     1      -1.203  -0.674   0.037  0.00  0.00    +0.151 C 
BRANCH   4  17
ATOM      5  C   UNL     1      -0.570  -5.119   2.761  0.00  0.00    +0.001 A 
ATOM      6  C   UNL     1      -0.714  -3.829   3.248  0.00  0.00    +0.002 A 
ATOM      7  C   UNL     1      -0.873  -2.767   2.385  0.00  0.00    +0.026 A 
ATOM      8  C   UNL     1      -0.888  -2.983   1.010  0.00  0.00    +0.050 A 
ATOM      9  C   UNL     1      -0.742  -4.289   0.519  0.00  0.00    +0.008 A 
ATOM     10  C   UNL     1      -0.584  -5.353   1.403  0.00  0.00    +0.010 A 
ATOM     11  C   UNL     1      -0.799  -4.191  -0.951  0.00  0.00    +0.009 A 
ATOM     12  C   UNL     1      -0.715  -5.130  -1.977  0.00  0.00    +0.026 A 
ATOM     13  C   UNL     1      -0.806  -4.719  -3.290  0.00  0.00    +0.019 A 
ATOM     14  C   UNL     1      -0.981  -3.376  -3.591  0.00  0.00    +0.017 A 
ATOM     15  C   UNL     1      -1.065  -2.438  -2.585  0.00  0.00    +0.027 A 
ATOM     16  C   UNL     1      -0.982  -2.834  -1.254  0.00  0.00    +0.050 A 
ATOM     17  N   UNL     1      -1.027  -2.125  -0.066  0.00  0.00    -0.337 N 
ATOM     18 BR   UNL     1      -0.693  -5.990  -4.686  0.00  0.00    -0.050 Br
ENDBRANCH   4  17
ENDBRANCH   1   4
BRANCH   1  19
ATOM     19  C   UNL     1      -0.019   1.526   0.010  0.00  0.00    -0.045 C 
BRANCH  19  30
ATOM     20  C   UNL     1       1.197   3.577   0.434  0.00  0.00    -0.059 C 
ATOM     21  C   UNL     1       2.595   4.198   0.474  0.00  0.00    +0.088 C 
ATOM     22  N   UNL     1       3.204   4.114  -0.861  0.00  0.00    -0.313 N 
ATOM     23  C   UNL     1       3.304   2.717  -1.304  0.00  0.00    +0.088 C 
ATOM     24  C   UNL     1       1.905   2.096  -1.345  0.00  0.00    -0.059 C 
ATOM     25  C   UNL     1       4.445   4.732  -0.880  0.00  0.00    +0.160 A 
ATOM     26  N   UNL     1       5.615   4.229  -1.224  0.00  0.00    -0.233 NA
ATOM     27  C   UNL     1       6.711   4.964  -1.188  0.00  0.00    +0.120 A 
ATOM     28  C   UNL     1       6.612   6.251  -0.778  0.00  0.00    +0.068 A 
ATOM     29  S   UNL     1       4.859   6.363  -0.451  0.00  0.00    -0.061 S 
ATOM     30  N   UNL     1       1.314   2.167   0.008  0.00  0.00    +0.383 N 
ATOM     31  H   UNL     1       1.925   1.669   0.666  0.00  0.00    -0.082 HD
ENDBRANCH  19  30
ENDBRANCH   1  19
TORSDOF 5
