REMARK  Name = ZINC66133664
REMARK  10 active torsions:
REMARK  status: ('A' for Active; 'I' for Inactive)
REMARK    1  A    between atoms: C_1  and  C_2
REMARK    2  A    between atoms: C_2  and  C_3
REMARK    3  A    between atoms: C_3  and  C_5
REMARK    4  A    between atoms: C_3  and  N_6
REMARK    5  A    between atoms: C_16  and  C_17
REMARK    6  A    between atoms: C_16  and  C_18
REMARK    7  A    between atoms: C_22  and  O_24
REMARK    8  A    between atoms: O_24  and  C_25
REMARK    9  A    between atoms: C_25  and  C_26
REMARK   10  A    between atoms: C_26  and  C_28
REMARK                            x       y       z     vdW  Elec       q    Type
REMARK                         _______ _______ _______ _____ _____    ______ ____
ROOT
ATOM      1  N   UNL     1       0.092  -0.073   2.953  0.00  0.00    -0.270 N 
ATOM      2  C   UNL     1      -1.060  -0.494   3.513  0.00  0.00    +0.250 C 
ATOM      3  O   UNL     1      -1.948  -0.952   2.820  0.00  0.00    -0.270 OA
ATOM      4  C   UNL     1      -1.232  -0.396   4.973  0.00  0.00    +0.058 A 
ATOM      5  C   UNL     1      -2.462  -0.638   5.581  0.00  0.00    +0.015 A 
ATOM      6  C   UNL     1      -2.578  -0.525   6.951  0.00  0.00    +0.001 A 
ATOM      7  C   UNL     1      -1.482  -0.173   7.723  0.00  0.00    +0.002 A 
ATOM      8  C   UNL     1      -0.256   0.067   7.134  0.00  0.00    +0.024 A 
ATOM      9  C   UNL     1      -0.121  -0.047   5.761  0.00  0.00    +0.041 A 
ATOM     10  N   UNL     1       1.098   0.161   5.125  0.00  0.00    -0.319 N 
ATOM     11  C   UNL     1       1.101   0.636   3.740  0.00  0.00    +0.125 C 
ATOM     12  C   UNL     1       2.482   0.398   3.125  0.00  0.00    +0.059 C 
ATOM     13  H   UNL     1       1.932  -0.009   5.590  0.00  0.00    +0.148 HD
ENDROOT
BRANCH  11  14
ATOM     14  C   UNL     1       0.800   2.113   3.723  0.00  0.00    -0.003 A 
ATOM     15  C   UNL     1       0.361   2.715   2.559  0.00  0.00    +0.007 A 
ATOM     16  C   UNL     1       0.084   4.069   2.540  0.00  0.00    +0.004 A 
ATOM     17  C   UNL     1       0.246   4.824   3.686  0.00  0.00    +0.045 A 
ATOM     18  C   UNL     1       0.686   4.223   4.856  0.00  0.00    +0.121 A 
ATOM     19  C   UNL     1       0.958   2.862   4.873  0.00  0.00    +0.053 A 
BRANCH  18  20
ATOM     20  O   UNL     1       0.846   4.963   5.984  0.00  0.00    -0.488 OA
BRANCH  20  21
ATOM     21  C   UNL     1       0.541   6.356   5.894  0.00  0.00    +0.259 C 
BRANCH  21  22
ATOM     22  C   UNL     1       0.776   7.009   7.232  0.00  0.00    -0.043 C 
ATOM     23  C   UNL     1       1.196   6.293   8.245  0.00  0.00    +0.011 C 
ATOM     24  C   UNL     1       0.527   8.486   7.404  0.00  0.00    +0.042 C 
ENDBRANCH  21  22
ENDBRANCH  20  21
ENDBRANCH  18  20
ENDBRANCH  11  14
BRANCH   1  25
ATOM     25  C   UNL     1       0.340  -0.335   1.533  0.00  0.00    +0.075 C 
ATOM     26  C   UNL     1       1.015  -1.699   1.376  0.00  0.00    +0.028 C 
BRANCH  25  28
ATOM     27  C   UNL     1      -1.779   0.927   1.133  0.00  0.00    +0.006 C 
ATOM     28  C   UNL     1      -0.989  -0.333   0.775  0.00  0.00    +0.019 C 
ENDBRANCH  25  28
ENDBRANCH   1  25
TORSDOF 6
