REMARK  Name = ZINC19903102
REMARK  6 active torsions:
REMARK  status: ('A' for Active; 'I' for Inactive)
REMARK    1  A    between atoms: C_1  and  C_2
REMARK    2  A    between atoms: C_2  and  C_3
REMARK    3  A    between atoms: C_3  and  C_4
REMARK    4  A    between atoms: C_4  and  C_6
REMARK    5  A    between atoms: C_4  and  N_7
REMARK    6  A    between atoms: N_7  and  C_8
REMARK                            x       y       z     vdW  Elec       q    Type
REMARK                         _______ _______ _______ _____ _____    ______ ____
ROOT
ATOM      1  C   UNL     1      -0.702  -4.001  -1.219  0.00  0.00    +0.049 C 
ATOM      2  C   UNL     1      -0.178  -4.522  -2.537  0.00  0.00    -0.031 A 
ATOM      3  C   UNL     1      -0.667  -4.476  -3.823  0.00  0.00    +0.005 A 
ATOM      4  C   UNL     1       0.050  -5.055  -4.855  0.00  0.00    +0.015 A 
ATOM      5  C   UNL     1       1.256  -5.679  -4.590  0.00  0.00    +0.020 A 
ATOM      6  C   UNL     1       1.748  -5.726  -3.301  0.00  0.00    +0.038 A 
ATOM      7  C   UNL     1       1.032  -5.146  -2.257  0.00  0.00    +0.036 A 
ATOM      8  N   UNL     1       1.313  -5.063  -0.893  0.00  0.00    -0.286 N 
ATOM      9  C   UNL     1       0.351  -4.412  -0.212  0.00  0.00    +0.208 C 
ATOM     10  O   UNL     1       0.331  -4.194   0.981  0.00  0.00    -0.277 OA
ATOM     11 BR   UNL     1       2.236  -6.471  -6.001  0.00  0.00    -0.050 Br
ATOM     12  H   UNL     1       2.109  -5.434  -0.482  0.00  0.00    +0.155 HD
ENDROOT
BRANCH   1  13
ATOM     13  N   UNL     1      -0.833  -2.538  -1.259  0.00  0.00    +0.391 N 
ATOM     14  H   UNL     1      -1.434  -2.275  -2.025  0.00  0.00    -0.084 HD
ATOM     15  H   UNL     1       0.078  -2.123  -1.388  0.00  0.00    -0.084 HD
BRANCH  13  16
ATOM     16  C   UNL     1      -1.413  -2.063   0.004  0.00  0.00    -0.074 C 
ATOM     17  C   UNL     1      -2.841  -2.594   0.141  0.00  0.00    -0.014 C 
BRANCH  16  18
ATOM     18  C   UNL     1      -1.433  -0.534   0.013  0.00  0.00    -0.016 C 
BRANCH  18  20
ATOM     19  C   UNL     1      -0.019   1.526   0.010  0.00  0.00    +0.004 C 
ATOM     20  C   UNL     1       0.002  -0.004   0.002  0.00  0.00    -0.005 C 
ENDBRANCH  18  20
ENDBRANCH  16  18
ENDBRANCH  13  16
ENDBRANCH   1  13
TORSDOF 4
