REMARK  Name = ZINC03404995
REMARK  9 active torsions:
REMARK  status: ('A' for Active; 'I' for Inactive)
REMARK    1  A    between atoms: C_2  and  C_3
REMARK    2  A    between atoms: C_2  and  N_56
REMARK    3  A    between atoms: C_3  and  C_5
REMARK    4  A    between atoms: C_3  and  C_7
REMARK    5  A    between atoms: C_7  and  C_9
REMARK    6  A    between atoms: C_9  and  S_10
REMARK    7  A    between atoms: S_10  and  C_11
REMARK    8  A    between atoms: N_25  and  C_26
REMARK    9  A    between atoms: C_31  and  C_32
REMARK                            x       y       z     vdW  Elec       q    Type
REMARK                         _______ _______ _______ _____ _____    ______ ____
ROOT
ATOM      1  C   UNL     1       4.862   4.977   2.679  0.00  0.00    +0.178 A 
ATOM      2  N   UNL     1       4.279   4.142   3.516  0.00  0.00    -0.215 NA
ATOM      3  C   UNL     1       3.348   3.295   3.093  0.00  0.00    +0.117 A 
ATOM      4  C   UNL     1       2.941   3.241   1.751  0.00  0.00    +0.076 A 
ATOM      5  C   UNL     1       1.905   2.253   1.430  0.00  0.00    -0.023 A 
ATOM      6  C   UNL     1       1.439   1.509   2.453  0.00  0.00    -0.004 A 
ATOM      7  S   UNL     1       2.350   2.054   3.875  0.00  0.00    -0.073 S 
ATOM      8  C   UNL     1       0.382   0.449   2.412  0.00  0.00    +0.043 C 
ATOM      9  C   UNL     1       0.684  -0.523   1.264  0.00  0.00    +0.005 C 
ATOM     10  C   UNL     1       0.002  -0.004   0.002  0.00  0.00    +0.001 C 
ATOM     11  C   UNL     1      -0.019   1.523   0.010  0.00  0.00    +0.005 C 
ATOM     12  C   UNL     1       1.401   2.078  -0.000  0.00  0.00    +0.037 C 
ATOM     13  C   UNL     1       3.589   4.157   0.863  0.00  0.00    +0.268 A 
ATOM     14  O   UNL     1       3.299   4.182  -0.320  0.00  0.00    -0.267 OA
ATOM     15  N   UNL     1       4.524   4.992   1.355  0.00  0.00    -0.255 N 
ENDROOT
BRANCH  15  16
ATOM     16  C   UNL     1       5.162   5.893   0.492  0.00  0.00    +0.064 A 
ATOM     17  C   UNL     1       4.626   7.158   0.286  0.00  0.00    +0.027 A 
ATOM     18  C   UNL     1       5.260   8.046  -0.560  0.00  0.00    +0.002 A 
ATOM     19  C   UNL     1       6.422   7.673  -1.210  0.00  0.00    +0.001 A 
ATOM     20  C   UNL     1       6.956   6.413  -1.012  0.00  0.00    +0.014 A 
ATOM     21  C   UNL     1       6.329   5.522  -0.162  0.00  0.00    +0.079 A 
BRANCH  21  22
ATOM     22  C   UNL     1       6.911   4.149   0.054  0.00  0.00    +0.419 C 
ATOM     23  F   UNL     1       8.077   4.012  -0.707  0.00  0.00    -0.166 F 
ATOM     24  F   UNL     1       7.216   3.980   1.409  0.00  0.00    -0.166 F 
ATOM     25  F   UNL     1       5.981   3.181  -0.339  0.00  0.00    -0.166 F 
ENDBRANCH  21  22
ENDBRANCH  15  16
BRANCH   1  26
ATOM     26  S   UNL     1       6.092   6.089   3.275  0.00  0.00    -0.080 S 
BRANCH  26  27
ATOM     27  C   UNL     1       6.112   5.627   5.025  0.00  0.00    +0.153 C 
BRANCH  27  28
ATOM     28  C   UNL     1       7.122   6.473   5.756  0.00  0.00    +0.166 C 
ATOM     29  O   UNL     1       7.762   7.303   5.157  0.00  0.00    -0.295 OA
BRANCH  28  30
ATOM     30  C   UNL     1       7.333   6.283   7.236  0.00  0.00    +0.200 C 
BRANCH  30  32
ATOM     31  C   UNL     1       7.017   8.140   8.803  0.00  0.00    +0.028 C 
ATOM     32  C   UNL     1       7.754   7.591   7.855  0.00  0.00    +0.003 C 
BRANCH  32  35
ATOM     33  H   UNL     1       9.458   7.816   6.732  0.00  0.00    +0.120 HD
ATOM     34  H   UNL     1       9.187   9.062   7.827  0.00  0.00    +0.120 HD
ATOM     35  N   UNL     1       9.066   8.083   7.620  0.00  0.00    -0.419 NA
ATOM     36  H   UNL     1       9.674   7.615   8.303  0.00  0.00    +0.120 HD
ENDBRANCH  32  35
ENDBRANCH  30  32
BRANCH  30  37
ATOM     37  C   UNL     1       8.383   5.276   7.457  0.00  0.00    +0.079 C 
ATOM     38  N   UNL     1       9.194   4.498   7.628  0.00  0.00    -0.195 NA
ENDBRANCH  30  37
ENDBRANCH  28  30
ENDBRANCH  27  28
ENDBRANCH  26  27
ENDBRANCH   1  26
TORSDOF 9
