REMARK  Name = ZINC41848735
REMARK  5 active torsions:
REMARK  status: ('A' for Active; 'I' for Inactive)
REMARK    1  A    between atoms: C_8  and  C_11
REMARK    2  A    between atoms: C_11  and  N_12
REMARK    3  A    between atoms: C_13  and  C_15
REMARK    4  A    between atoms: N_17  and  C_18
REMARK    5  A    between atoms: C_23  and  N_24
REMARK                            x       y       z     vdW  Elec       q    Type
REMARK                         _______ _______ _______ _____ _____    ______ ____
ROOT
ATOM      1  C   UNL     1       7.529  -4.035  -0.077  0.00  0.00    +0.303 C 
ATOM      2  O   UNL     1       7.902  -3.191  -0.865  0.00  0.00    -0.265 OA
ATOM      3  N   UNL     1       8.409  -4.922   0.428  0.00  0.00    -0.276 N 
ATOM      4  H   UNL     1       8.130  -5.544   1.117  0.00  0.00    +0.155 HD
ENDROOT
BRANCH   3   5
ATOM      5  C   UNL     1       9.727  -4.944  -0.042  0.00  0.00    +0.055 A 
ATOM      6  C   UNL     1      10.021  -4.471  -1.313  0.00  0.00    +0.025 A 
ATOM      7  C   UNL     1      11.323  -4.494  -1.775  0.00  0.00    +0.002 A 
ATOM      8  C   UNL     1      12.337  -4.988  -0.974  0.00  0.00    +0.002 A 
ATOM      9  C   UNL     1      12.054  -5.462   0.293  0.00  0.00    +0.025 A 
ATOM     10  C   UNL     1      10.751  -5.437   0.768  0.00  0.00    +0.051 A 
BRANCH  10  11
ATOM     11  N   UNL     1      10.463  -5.910   2.052  0.00  0.00    -0.328 N 
ATOM     12  C   UNL     1      10.116  -7.297   2.397  0.00  0.00    +0.105 C 
ATOM     13  C   UNL     1       9.859  -7.340   3.917  0.00  0.00    +0.020 C 
ATOM     14  C   UNL     1       9.523  -5.864   4.255  0.00  0.00    +0.020 C 
ATOM     15  C   UNL     1      10.464  -5.103   3.285  0.00  0.00    +0.105 C 
ENDBRANCH  10  11
ENDBRANCH   3   5
BRANCH   1  17
ATOM     16  N   UNL     1       5.214  -3.204  -0.171  0.00  0.00    -0.304 N 
ATOM     17  C   UNL     1       6.094  -4.091   0.334  0.00  0.00    +0.299 C 
ATOM     18  O   UNL     1       5.721  -4.935   1.122  0.00  0.00    -0.265 OA
ATOM     19  H   UNL     1       5.512  -2.530  -0.801  0.00  0.00    +0.149 HD
BRANCH  16  20
ATOM     20  C   UNL     1       3.806  -3.260   0.232  0.00  0.00    +0.149 C 
BRANCH  20  28
ATOM     21  C   UNL     1      -0.042   1.343  -0.022  0.00  0.00    +0.000 A 
ATOM     22  C   UNL     1       1.145   2.051  -0.020  0.00  0.00    +0.004 A 
ATOM     23  C   UNL     1       2.354   1.385  -0.026  0.00  0.00    +0.046 A 
ATOM     24  C   UNL     1       2.388  -0.007  -0.034  0.00  0.00    +0.124 A 
ATOM     25  C   UNL     1       1.188  -0.707  -0.044  0.00  0.00    -0.002 A 
ATOM     26  C   UNL     1      -0.017  -0.041  -0.034  0.00  0.00    +0.007 A 
ATOM     27  C   UNL     1       1.535  -2.183  -0.076  0.00  0.00    +0.085 C 
ATOM     28  C   UNL     1       3.028  -2.152  -0.481  0.00  0.00    +0.195 C 
ATOM     29  O   UNL     1       3.453  -0.854  -0.029  0.00  0.00    -0.487 OA
ENDBRANCH  20  28
ENDBRANCH  16  20
ENDBRANCH   1  17
TORSDOF 5
