REMARK  Name = ZINC34955679
REMARK  4 active torsions:
REMARK  status: ('A' for Active; 'I' for Inactive)
REMARK    1  A    between atoms: C_1  and  C_2
REMARK    2  A    between atoms: C_7  and  C_22
REMARK    3  A    between atoms: N_9  and  S_10
REMARK    4  A    between atoms: S_10  and  C_13
REMARK                            x       y       z     vdW  Elec       q    Type
REMARK                         _______ _______ _______ _____ _____    ______ ____
ROOT
ATOM      1  S   UNL     1       0.067  -0.820   2.764  0.00  0.00    +0.061 S 
ATOM      2  O   UNL     1      -1.174  -1.490   2.596  0.00  0.00    -0.153 OA
ATOM      3  O   UNL     1       1.229  -1.478   3.249  0.00  0.00    -0.153 OA
ENDROOT
BRANCH   1   4
ATOM      4  C   UNL     1      -0.234   0.534   3.850  0.00  0.00    +0.106 A 
ATOM      5  C   UNL     1       0.766   0.983   4.693  0.00  0.00    +0.030 A 
ATOM      6  C   UNL     1       0.533   2.042   5.545  0.00  0.00    +0.025 A 
ATOM      7  C   UNL     1      -0.714   2.670   5.562  0.00  0.00    +0.031 A 
ATOM      8  C   UNL     1      -1.709   2.213   4.713  0.00  0.00    -0.023 A 
ATOM      9  C   UNL     1      -1.470   1.155   3.858  0.00  0.00    +0.034 A 
ATOM     10  C   UNL     1      -2.947   3.055   4.927  0.00  0.00    +0.055 C 
ATOM     11  C   UNL     1      -2.544   4.066   6.013  0.00  0.00    +0.106 C 
ATOM     12  N   UNL     1      -1.151   3.745   6.337  0.00  0.00    -0.343 N 
ATOM     13  H   UNL     1      -0.613   4.212   6.995  0.00  0.00    +0.146 HD
ENDBRANCH   1   4
BRANCH   1  20
ATOM     14  C   UNL     1      -0.806   1.423  -0.058  0.00  0.00    +0.026 C 
ATOM     15  C   UNL     1      -0.547  -0.058   0.230  0.00  0.00    +0.077 C 
ATOM     16  C   UNL     1      -0.028  -0.744  -1.038  0.00  0.00    +0.020 C 
ATOM     17  C   UNL     1       1.338  -0.160  -1.406  0.00  0.00    +0.003 C 
ATOM     18  C   UNL     1       2.331  -0.426  -0.272  0.00  0.00    +0.020 C 
ATOM     19  C   UNL     1       1.839   0.264   1.004  0.00  0.00    +0.077 C 
ATOM     20  N   UNL     1       0.465  -0.184   1.288  0.00  0.00    -0.171 NA
ATOM     21  C   UNL     1       2.752  -0.109   2.174  0.00  0.00    +0.026 C 
ENDBRANCH   1  20
TORSDOF 2
