REMARK  Name = ZINC08658717
REMARK  10 active torsions:
REMARK  status: ('A' for Active; 'I' for Inactive)
REMARK    1  A    between atoms: C_1  and  C_2
REMARK    2  A    between atoms: C_4  and  C_28
REMARK    3  A    between atoms: C_6  and  S_8
REMARK    4  A    between atoms: S_8  and  C_9
REMARK    5  A    between atoms: C_9  and  C_10
REMARK    6  A    between atoms: C_10  and  O_12
REMARK    7  A    between atoms: O_12  and  C_13
REMARK    8  A    between atoms: C_13  and  C_15
REMARK    9  A    between atoms: C_13  and  C_16
REMARK   10  A    between atoms: N_18  and  C_19
REMARK                            x       y       z     vdW  Elec       q    Type
REMARK                         _______ _______ _______ _____ _____    ______ ____
ROOT
ATOM      1  C   UNL     1       4.351   7.621   0.015  0.00  0.00    +0.259 C 
ATOM      2  C   UNL     1       4.414   8.123   1.459  0.00  0.00    +0.062 C 
ENDROOT
BRANCH   1   3
ATOM      3  C   UNL     1       5.602   8.036  -0.716  0.00  0.00    +0.258 C 
ATOM      4  O   UNL     1       6.333   7.194  -1.194  0.00  0.00    -0.271 OA
ATOM      5  N   UNL     1       5.909   9.343  -0.838  0.00  0.00    -0.281 N 
ATOM      6  H   UNL     1       5.286  10.018  -0.527  0.00  0.00    +0.155 HD
BRANCH   5   7
ATOM      7  C   UNL     1       7.127   9.725  -1.414  0.00  0.00    +0.053 A 
ATOM      8  C   UNL     1       8.210   8.858  -1.389  0.00  0.00    +0.046 A 
ATOM      9  C   UNL     1       9.411   9.238  -1.959  0.00  0.00    +0.061 A 
ATOM     10  C   UNL     1       9.533  10.482  -2.554  0.00  0.00    +0.061 A 
ATOM     11  C   UNL     1       8.455  11.349  -2.579  0.00  0.00    +0.043 A 
ATOM     12  C   UNL     1       7.251  10.972  -2.015  0.00  0.00    +0.064 A 
ATOM     13 CL   UNL     1       5.896  12.057  -2.054  0.00  0.00    -0.082 Cl
ATOM     14 CL   UNL     1      11.043  10.956  -3.269  0.00  0.00    -0.082 Cl
ATOM     15 CL   UNL     1      10.766   8.153  -1.929  0.00  0.00    -0.082 Cl
ENDBRANCH   5   7
ENDBRANCH   1   3
BRANCH   1  16
ATOM     16  O   UNL     1       4.246   6.173   0.010  0.00  0.00    -0.452 OA
BRANCH  16  17
ATOM     17  C   UNL     1       3.009   5.652   0.029  0.00  0.00    +0.318 C 
ATOM     18  O   UNL     1       2.046   6.381   0.050  0.00  0.00    -0.250 OA
BRANCH  17  19
ATOM     19  C   UNL     1       2.821   4.156   0.025  0.00  0.00    +0.197 C 
BRANCH  19  20
ATOM     20  S   UNL     1       1.053   3.770   0.055  0.00  0.00    -0.075 S 
BRANCH  20  26
ATOM     21  C   UNL     1       3.742  -0.584  -0.013  0.00  0.00    +0.066 C 
ATOM     22  C   UNL     1       2.394   0.090   0.013  0.00  0.00    +0.043 A 
ATOM     23  C   UNL     1       1.232  -0.665   0.030  0.00  0.00    +0.046 A 
ATOM     24  C   UNL     1       0.013  -0.006   0.055  0.00  0.00    +0.043 A 
ATOM     25  N   UNL     1      -0.005   1.316   0.062  0.00  0.00    -0.227 NA
ATOM     26  C   UNL     1       1.124   2.010   0.045  0.00  0.00    +0.189 A 
ATOM     27  N   UNL     1       2.306   1.410   0.021  0.00  0.00    -0.227 NA
ATOM     28  C   UNL     1      -1.276  -0.787   0.074  0.00  0.00    +0.066 C 
ENDBRANCH  20  26
ENDBRANCH  19  20
ENDBRANCH  17  19
ENDBRANCH  16  17
ENDBRANCH   1  16
TORSDOF 7
