REMARK  Name = ZINC61642105
REMARK  10 active torsions:
REMARK  status: ('A' for Active; 'I' for Inactive)
REMARK    1  A    between atoms: C_1  and  C_2
REMARK    2  A    between atoms: C_2  and  C_3
REMARK    3  A    between atoms: C_3  and  C_5
REMARK    4  A    between atoms: C_3  and  N_24
REMARK    5  A    between atoms: C_5  and  C_7
REMARK    6  A    between atoms: C_5  and  N_14
REMARK    7  A    between atoms: C_18  and  C_20
REMARK    8  A    between atoms: C_20  and  N_21
REMARK    9  A    between atoms: N_21  and  C_22
REMARK   10  A    between atoms: N_21  and  C_23
REMARK                            x       y       z     vdW  Elec       q    Type
REMARK                         _______ _______ _______ _____ _____    ______ ____
ROOT
ATOM      1  C   UNL     1       1.053  -1.792  -0.996  0.00  0.00    +0.073 C 
ENDROOT
BRANCH   1   2
ATOM      2  C   UNL     1       1.988  -2.025  -2.155  0.00  0.00    -0.032 A 
ATOM      3  C   UNL     1       3.353  -1.905  -1.976  0.00  0.00    +0.006 A 
ATOM      4  C   UNL     1       4.211  -2.120  -3.039  0.00  0.00    +0.015 A 
ATOM      5  C   UNL     1       3.703  -2.454  -4.281  0.00  0.00    +0.018 A 
ATOM      6  C   UNL     1       2.336  -2.574  -4.460  0.00  0.00    +0.015 A 
ATOM      7  C   UNL     1       1.480  -2.364  -3.395  0.00  0.00    +0.006 A 
ATOM      8 BR   UNL     1       4.875  -2.746  -5.736  0.00  0.00    -0.050 Br
ENDBRANCH   1   2
BRANCH   1   9
ATOM      9  N   UNL     1       1.514  -2.562   0.167  0.00  0.00    -0.296 NA
ATOM     10  C   UNL     1       0.416  -2.769   1.135  0.00  0.00    +0.085 C 
ATOM     11  C   UNL     1      -0.114  -4.193   0.833  0.00  0.00    +0.017 C 
ATOM     12  C   UNL     1       1.197  -4.949   0.491  0.00  0.00    +0.018 C 
ATOM     13  C   UNL     1       2.033  -3.879  -0.243  0.00  0.00    +0.041 C 
BRANCH  13  14
ATOM     14  C   UNL     1       3.505  -4.006   0.156  0.00  0.00    -0.061 C 
BRANCH  14  15
ATOM     15  N   UNL     1       4.028  -5.299  -0.306  0.00  0.00    +0.377 N 
ATOM     16  C   UNL     1       4.044  -5.324  -1.774  0.00  0.00    -0.097 C 
ATOM     17  C   UNL     1       5.394  -5.484   0.202  0.00  0.00    -0.097 C 
ATOM     18  H   UNL     1       3.438  -6.042   0.037  0.00  0.00    -0.083 HD
ENDBRANCH  14  15
ENDBRANCH  13  14
ENDBRANCH   1   9
BRANCH   1  19
ATOM     19  C   UNL     1       1.034  -0.303  -0.648  0.00  0.00    -0.053 C 
BRANCH  19  20
ATOM     20  N   UNL     1       0.514   0.461  -1.790  0.00  0.00    +0.381 N 
ATOM     21  H   UNL     1       0.502   1.443  -1.560  0.00  0.00    -0.090 HD
ATOM     22  H   UNL     1       1.106   0.311  -2.592  0.00  0.00    -0.090 HD
ATOM     23  H   UNL     1      -0.423   0.153  -2.001  0.00  0.00    -0.090 HD
ENDBRANCH  19  20
BRANCH  19  25
ATOM     24  C   UNL     1       0.127   1.413   0.926  0.00  0.00    +0.002 C 
ATOM     25  C   UNL     1       0.136  -0.075   0.570  0.00  0.00    -0.018 C 
ENDBRANCH  19  25
ENDBRANCH   1  19
TORSDOF 7
