REMARK  Name = ZINC01845792
REMARK  8 active torsions:
REMARK  status: ('A' for Active; 'I' for Inactive)
REMARK    1  A    between atoms: C_1  and  O_2
REMARK    2  A    between atoms: O_2  and  C_3
REMARK    3  A    between atoms: C_8  and  C_9
REMARK    4  A    between atoms: N_10  and  N_11
REMARK    5  A    between atoms: C_12  and  C_14
REMARK    6  A    between atoms: C_14  and  S_15
REMARK    7  A    between atoms: S_15  and  C_16
REMARK    8  A    between atoms: N_29  and  C_30
REMARK                            x       y       z     vdW  Elec       q    Type
REMARK                         _______ _______ _______ _____ _____    ______ ____
ROOT
ATOM      1  C   UNL     1      -3.178  -3.356   7.083  0.00  0.00    +0.178 A 
ATOM      2  N   UNL     1      -3.040  -4.655   6.912  0.00  0.00    -0.215 NA
ATOM      3  C   UNL     1      -3.988  -5.497   7.305  0.00  0.00    +0.117 A 
ATOM      4  C   UNL     1      -5.173  -5.056   7.918  0.00  0.00    +0.076 A 
ATOM      5  C   UNL     1      -6.125  -6.102   8.296  0.00  0.00    -0.023 A 
ATOM      6  C   UNL     1      -5.776  -7.375   8.023  0.00  0.00    -0.004 A 
ATOM      7  S   UNL     1      -4.181  -7.261   7.257  0.00  0.00    -0.073 S 
ATOM      8  C   UNL     1      -6.567  -8.615   8.309  0.00  0.00    +0.043 C 
ATOM      9  C   UNL     1      -7.686  -8.259   9.298  0.00  0.00    +0.005 C 
ATOM     10  C   UNL     1      -8.389  -6.989   8.809  0.00  0.00    +0.005 C 
ATOM     11  C   UNL     1      -7.458  -5.786   8.969  0.00  0.00    +0.037 C 
ATOM     12  C   UNL     1      -5.296  -3.641   8.092  0.00  0.00    +0.268 A 
ATOM     13  O   UNL     1      -6.291  -3.167   8.614  0.00  0.00    -0.267 OA
ATOM     14  N   UNL     1      -4.297  -2.841   7.675  0.00  0.00    -0.255 N 
ENDROOT
BRANCH  14  15
ATOM     15  C   UNL     1      -4.409  -1.455   7.847  0.00  0.00    +0.052 A 
ATOM     16  C   UNL     1      -3.937  -0.858   9.008  0.00  0.00    +0.026 A 
ATOM     17  C   UNL     1      -4.048   0.509   9.174  0.00  0.00    +0.002 A 
ATOM     18  C   UNL     1      -4.630   1.282   8.186  0.00  0.00    +0.000 A 
ATOM     19  C   UNL     1      -5.102   0.690   7.029  0.00  0.00    +0.002 A 
ATOM     20  C   UNL     1      -4.988  -0.676   6.854  0.00  0.00    +0.026 A 
ENDBRANCH  14  15
BRANCH   1  21
ATOM     21  S   UNL     1      -1.899  -2.268   6.548  0.00  0.00    -0.078 S 
BRANCH  21  22
ATOM     22  C   UNL     1      -0.648  -3.375   5.841  0.00  0.00    +0.174 C 
BRANCH  22  24
ATOM     23  N   UNL     1       1.572  -3.175   4.769  0.00  0.00    -0.206 N 
ATOM     24  C   UNL     1       0.516  -2.561   5.339  0.00  0.00    +0.242 C 
ATOM     25  O   UNL     1       0.504  -1.353   5.447  0.00  0.00    -0.273 OA
ATOM     26  H   UNL     1       1.582  -4.141   4.683  0.00  0.00    +0.177 HD
BRANCH  23  28
ATOM     27  C   UNL     1       3.671  -3.011   3.754  0.00  0.00    +0.142 C 
ATOM     28  N   UNL     1       2.655  -2.419   4.303  0.00  0.00    -0.188 NA
BRANCH  27  34
ATOM     29  C   UNL     1       4.800  -0.819   3.386  0.00  0.00    +0.129 A 
ATOM     30  C   UNL     1       5.878  -0.080   2.927  0.00  0.00    +0.047 A 
ATOM     31  C   UNL     1       6.957  -0.717   2.345  0.00  0.00    +0.019 A 
ATOM     32  C   UNL     1       6.970  -2.096   2.215  0.00  0.00    +0.019 A 
ATOM     33  C   UNL     1       5.904  -2.847   2.667  0.00  0.00    +0.028 A 
ATOM     34  C   UNL     1       4.811  -2.215   3.263  0.00  0.00    +0.037 A 
ATOM     35 BR   UNL     1       8.454  -2.954   1.415  0.00  0.00    -0.050 Br
BRANCH  29  37
ATOM     36  C   UNL     1       3.799   1.232   4.050  0.00  0.00    +0.277 C 
ATOM     37  O   UNL     1       3.739  -0.193   3.959  0.00  0.00    -0.494 OA
ENDBRANCH  29  37
ENDBRANCH  27  34
ENDBRANCH  23  28
ENDBRANCH  22  24
ENDBRANCH  21  22
ENDBRANCH   1  21
TORSDOF 7
