REMARK  Name = ZINC41586573
REMARK  9 active torsions:
REMARK  status: ('A' for Active; 'I' for Inactive)
REMARK    1  A    between atoms: C_1  and  C_2
REMARK    2  A    between atoms: C_2  and  O_3
REMARK    3  A    between atoms: O_3  and  C_4
REMARK    4  A    between atoms: C_4  and  C_6
REMARK    5  A    between atoms: N_11  and  C_13
REMARK    6  A    between atoms: C_13  and  C_14
REMARK    7  A    between atoms: C_15  and  O_33
REMARK    8  A    between atoms: C_23  and  C_26
REMARK    9  A    between atoms: C_24  and  C_25
REMARK                            x       y       z     vdW  Elec       q    Type
REMARK                         _______ _______ _______ _____ _____    ______ ____
ROOT
ATOM      1  C   UNL     1       2.968  -6.452  -4.723  0.00  0.00    +0.020 A 
ATOM      2  C   UNL     1       2.343  -6.779  -5.916  0.00  0.00    +0.122 A 
ATOM      3  C   UNL     1       3.080  -7.287  -6.984  0.00  0.00    +0.046 A 
ATOM      4  C   UNL     1       4.425  -7.483  -6.866  0.00  0.00    +0.015 A 
ATOM      5  C   UNL     1       5.072  -7.181  -5.659  0.00  0.00    +0.022 A 
ATOM      6  C   UNL     1       4.335  -6.632  -4.591  0.00  0.00    +0.144 A 
ATOM      7  O   UNL     1       4.968  -6.270  -3.448  0.00  0.00    -0.421 OA
ATOM      8  C   UNL     1       6.113  -6.928  -3.152  0.00  0.00    +0.345 A 
ATOM      9  O   UNL     1       6.385  -7.232  -2.005  0.00  0.00    -0.244 OA
ATOM     10  C   UNL     1       7.018  -7.264  -4.263  0.00  0.00    +0.070 A 
ATOM     11  C   UNL     1       6.464  -7.410  -5.510  0.00  0.00    -0.025 A 
ATOM     12  C   UNL     1       7.317  -7.786  -6.694  0.00  0.00    +0.045 C 
ENDROOT
BRANCH  10  13
ATOM     13  C   UNL     1       8.471  -7.450  -4.041  0.00  0.00    -0.011 A 
ATOM     14  C   UNL     1       9.057  -8.699  -4.250  0.00  0.00    +0.010 A 
ATOM     15  C   UNL     1      10.410  -8.867  -4.041  0.00  0.00    +0.020 A 
ATOM     16  C   UNL     1      11.187  -7.799  -3.625  0.00  0.00    +0.041 A 
ATOM     17  C   UNL     1      10.610  -6.557  -3.416  0.00  0.00    +0.020 A 
ATOM     18  C   UNL     1       9.259  -6.377  -3.627  0.00  0.00    +0.010 A 
ATOM     19 CL   UNL     1      12.889  -8.017  -3.364  0.00  0.00    -0.084 Cl
ENDBRANCH  10  13
BRANCH   2  20
ATOM     20  O   UNL     1       1.003  -6.603  -6.045  0.00  0.00    -0.506 OA
ATOM     21  H   UNL     1       0.751  -5.731  -6.379  0.00  0.00    +0.292 HD
ENDBRANCH   2  20
BRANCH   1  22
ATOM     22  C   UNL     1       2.165  -5.896  -3.576  0.00  0.00    -0.036 C 
BRANCH  22  27
ATOM     23  C   UNL     1       1.468  -2.353  -2.550  0.00  0.00    +0.081 C 
ATOM     24  C   UNL     1       0.740  -1.887  -3.814  0.00  0.00    +0.011 C 
ATOM     25  C   UNL     1       1.403  -2.524  -5.038  0.00  0.00    -0.018 C 
ATOM     26  C   UNL     1       1.385  -4.046  -4.887  0.00  0.00    -0.078 C 
ATOM     27  N   UNL     1       2.119  -4.431  -3.675  0.00  0.00    +0.383 N 
ATOM     28  C   UNL     1       1.448  -3.882  -2.490  0.00  0.00    -0.064 C 
ATOM     29  H   UNL     1       3.059  -4.069  -3.724  0.00  0.00    -0.081 HD
BRANCH  23  30
ATOM     30  C   UNL     1       0.775  -1.794  -1.334  0.00  0.00    +0.308 C 
ATOM     31  O   UNL     1       0.314  -2.540  -0.504  0.00  0.00    -0.251 OA
BRANCH  30  32
ATOM     32  O   UNL     1       0.671  -0.465  -1.174  0.00  0.00    -0.465 OA
BRANCH  32  34
ATOM     33  C   UNL     1      -0.019   1.526   0.010  0.00  0.00    +0.048 C 
ATOM     34  C   UNL     1       0.002  -0.004   0.002  0.00  0.00    +0.229 C 
ENDBRANCH  32  34
ENDBRANCH  30  32
ENDBRANCH  23  30
ENDBRANCH  22  27
ENDBRANCH   1  22
TORSDOF 7
