REMARK  Name = ZINC04543536
REMARK  13 active torsions:
REMARK  status: ('A' for Active; 'I' for Inactive)
REMARK    1  A    between atoms: C_1  and  C_2
REMARK    2  A    between atoms: C_2  and  C_4
REMARK    3  A    between atoms: C_2  and  C_11
REMARK    4  A    between atoms: C_4  and  C_5
REMARK    5  A    between atoms: C_5  and  C_6
REMARK    6  A    between atoms: C_6  and  C_7
REMARK    7  A    between atoms: C_7  and  C_8
REMARK    8  A    between atoms: C_7  and  C_9
REMARK    9  A    between atoms: C_7  and  O_10
REMARK   10  A    between atoms: C_17  and  C_35
REMARK   11  A    between atoms: C_22  and  C_23
REMARK   12  A    between atoms: C_26  and  O_34
REMARK   13  A    between atoms: C_29  and  O_33
REMARK                            x       y       z     vdW  Elec       q    Type
REMARK                         _______ _______ _______ _____ _____    ______ ____
ROOT
ATOM      1  C   UNL     1      -1.298  -0.937  -0.013  0.00  0.00    -0.002 C 
ATOM      2  C   UNL     1      -1.246  -2.454  -0.334  0.00  0.00    +0.005 C 
ATOM      3  C   UNL     1      -1.909  -2.628  -1.730  0.00  0.00    +0.009 C 
ATOM      4  C   UNL     1      -1.725  -1.248  -2.366  0.00  0.00    +0.021 C 
ATOM      5  C   UNL     1      -2.067  -0.313  -1.168  0.00  0.00    -0.022 C 
ATOM      6  C   UNL     1      -1.725   1.101  -1.577  0.00  0.00    +0.008 C 
ATOM      7  C   UNL     1      -2.715   1.518  -2.677  0.00  0.00    +0.005 C 
ATOM      8  C   UNL     1      -2.639   0.589  -3.888  0.00  0.00    +0.031 C 
ATOM      9  C   UNL     1      -2.679  -0.880  -3.463  0.00  0.00    -0.066 C 
ATOM     10  C   UNL     1      -3.509  -1.765  -4.014  0.00  0.00    -0.000 C 
ATOM     11  C   UNL     1      -3.567  -0.394  -0.878  0.00  0.00    +0.012 C 
ENDROOT
BRANCH  10  12
ATOM     12  C   UNL     1      -4.419  -1.347  -5.083  0.00  0.00    +0.004 C 
ATOM     13  C   UNL     1      -5.259  -2.243  -5.642  0.00  0.00    -0.040 C 
ATOM     14  C   UNL     1      -5.296  -3.688  -5.187  0.00  0.00    +0.067 C 
ATOM     15  C   UNL     1      -6.761  -4.097  -4.995  0.00  0.00    +0.122 C 
ATOM     16  C   UNL     1      -7.530  -3.894  -6.301  0.00  0.00    +0.067 C 
ATOM     17  C   UNL     1      -7.602  -2.400  -6.635  0.00  0.00    +0.147 C 
ATOM     18  C   UNL     1      -6.192  -1.861  -6.722  0.00  0.00    -0.023 C 
ATOM     19  C   UNL     1      -5.810  -1.079  -7.731  0.00  0.00    +0.015 C 
BRANCH  17  20
ATOM     20  O   UNL     1      -8.269  -2.218  -7.885  0.00  0.00    -0.387 OA
ATOM     21  H   UNL     1      -8.350  -1.293  -8.157  0.00  0.00    +0.210 HD
ENDBRANCH  17  20
BRANCH  15  22
ATOM     22  O   UNL     1      -6.824  -5.473  -4.617  0.00  0.00    -0.391 OA
ATOM     23  H   UNL     1      -6.361  -5.676  -3.793  0.00  0.00    +0.210 HD
ENDBRANCH  15  22
ENDBRANCH  10  12
BRANCH   1  25
ATOM     24  C   UNL     1       0.865  -0.984   1.236  0.00  0.00    +0.008 C 
ATOM     25  C   UNL     1       0.118  -0.360   0.056  0.00  0.00    -0.010 C 
BRANCH  25  26
ATOM     26  C   UNL     1       0.861  -0.677  -1.243  0.00  0.00    +0.003 C 
BRANCH  26  27
ATOM     27  C   UNL     1       2.296  -0.155  -1.149  0.00  0.00    +0.003 C 
BRANCH  27  28
ATOM     28  C   UNL     1       3.040  -0.471  -2.449  0.00  0.00    +0.034 C 
BRANCH  28  29
ATOM     29  C   UNL     1       4.475   0.051  -2.355  0.00  0.00    +0.061 C 
ATOM     30  C   UNL     1       5.188  -0.625  -1.181  0.00  0.00    +0.041 C 
ATOM     31  C   UNL     1       5.219  -0.266  -3.654  0.00  0.00    +0.041 C 
BRANCH  29  32
ATOM     32  O   UNL     1       4.456   1.465  -2.150  0.00  0.00    -0.389 OA
ATOM     33  H   UNL     1       4.018   1.959  -2.856  0.00  0.00    +0.210 HD
ENDBRANCH  29  32
ENDBRANCH  28  29
ENDBRANCH  27  28
ENDBRANCH  26  27
ENDBRANCH  25  26
ENDBRANCH   1  25
TORSDOF 9
