REMARK  Name = ZINC63743240
REMARK  11 active torsions:
REMARK  status: ('A' for Active; 'I' for Inactive)
REMARK    1  A    between atoms: C_1  and  O_2
REMARK    2  A    between atoms: O_2  and  C_3
REMARK    3  A    between atoms: C_5  and  N_13
REMARK    4  A    between atoms: C_7  and  O_11
REMARK    5  A    between atoms: C_8  and  O_9
REMARK    6  A    between atoms: O_9  and  C_10
REMARK    7  A    between atoms: O_11  and  C_12
REMARK    8  A    between atoms: C_14  and  C_16
REMARK    9  A    between atoms: C_16  and  C_17
REMARK   10  A    between atoms: C_25  and  S_27
REMARK   11  A    between atoms: S_27  and  C_28
REMARK                            x       y       z     vdW  Elec       q    Type
REMARK                         _______ _______ _______ _____ _____    ______ ____
ROOT
ATOM      1  C   UNL     1       4.682  -0.679  -7.667  0.00  0.00    -0.019 C 
ATOM      2  C   UNL     1       5.753  -1.395  -8.080  0.00  0.00    +0.000 A 
ATOM      3  C   UNL     1       7.147  -1.450  -7.625  0.00  0.00    +0.010 A 
ATOM      4  C   UNL     1       8.009  -2.284  -8.250  0.00  0.00    +0.001 A 
ATOM      5  C   UNL     1       7.605  -3.094  -9.320  0.00  0.00    +0.002 A 
ATOM      6  C   UNL     1       6.341  -3.099  -9.795  0.00  0.00    +0.026 A 
ATOM      7  C   UNL     1       5.351  -2.261  -9.211  0.00  0.00    +0.044 A 
ATOM      8  N   UNL     1       4.082  -2.087  -9.487  0.00  0.00    -0.369 N 
ATOM      9  C   UNL     1       3.532  -1.095  -8.557  0.00  0.00    +0.170 C 
ATOM     10  H   UNL     1       3.587  -2.542 -10.187  0.00  0.00    +0.161 HD
ENDROOT
BRANCH   1  11
ATOM     11  C   UNL     1       4.641   0.325  -6.544  0.00  0.00    +0.130 C 
BRANCH  11  13
ATOM     12  N   UNL     1       4.231   0.322  -4.104  0.00  0.00    -0.285 N 
ATOM     13  C   UNL     1       4.316  -0.380  -5.252  0.00  0.00    +0.221 C 
ATOM     14  O   UNL     1       4.129  -1.578  -5.245  0.00  0.00    -0.275 OA
ATOM     15  H   UNL     1       4.299   1.289  -4.121  0.00  0.00    +0.155 HD
BRANCH  12  18
ATOM     16  C   UNL     1       4.456  -0.518  -0.526  0.00  0.00    +0.167 A 
ATOM     17  C   UNL     1       4.639   0.142  -1.731  0.00  0.00    +0.073 A 
ATOM     18  C   UNL     1       4.046  -0.346  -2.887  0.00  0.00    +0.041 A 
ATOM     19  C   UNL     1       3.269  -1.496  -2.838  0.00  0.00    +0.073 A 
ATOM     20  C   UNL     1       3.085  -2.157  -1.634  0.00  0.00    +0.167 A 
ATOM     21  C   UNL     1       3.683  -1.672  -0.476  0.00  0.00    +0.204 A 
BRANCH  16  23
ATOM     22  C   UNL     1       5.818   1.150   0.482  0.00  0.00    +0.277 C 
ATOM     23  O   UNL     1       5.037  -0.040   0.607  0.00  0.00    -0.491 OA
ENDBRANCH  16  23
BRANCH  21  24
ATOM     24  O   UNL     1       3.507  -2.324   0.706  0.00  0.00    -0.488 OA
ATOM     25  C   UNL     1       2.389  -1.932   1.503  0.00  0.00    +0.277 C 
ENDBRANCH  21  24
BRANCH  20  26
ATOM     26  O   UNL     1       2.324  -3.283  -1.586  0.00  0.00    -0.491 OA
ATOM     27  C   UNL     1       1.745  -3.727  -2.814  0.00  0.00    +0.277 C 
ENDBRANCH  20  26
ENDBRANCH  12  18
ENDBRANCH  11  13
ENDBRANCH   1  11
BRANCH   9  28
ATOM     28  S   UNL     1       2.903   0.337  -9.476  0.00  0.00    -0.096 S 
BRANCH  28  29
ATOM     29  C   UNL     1       4.229   0.767 -10.555  0.00  0.00    +0.010 A 
ATOM     30  C   UNL     1       4.327   0.174 -11.808  0.00  0.00    +0.016 A 
ATOM     31  C   UNL     1       5.367   0.513 -12.651  0.00  0.00    +0.021 A 
ATOM     32  C   UNL     1       6.310   1.442 -12.249  0.00  0.00    +0.041 A 
ATOM     33  C   UNL     1       6.215   2.034 -11.002  0.00  0.00    +0.021 A 
ATOM     34  C   UNL     1       5.175   1.704 -10.156  0.00  0.00    +0.016 A 
ATOM     35 CL   UNL     1       7.617   1.865 -13.311  0.00  0.00    -0.084 Cl
ENDBRANCH  28  29
ENDBRANCH   9  28
TORSDOF 8
