REMARK  Name = ZINC08968343
REMARK  7 active torsions:
REMARK  status: ('A' for Active; 'I' for Inactive)
REMARK    1  A    between atoms: C_1  and  C_2
REMARK    2  A    between atoms: C_8  and  C_10
REMARK    3  A    between atoms: N_12  and  C_13
REMARK    4  A    between atoms: C_13  and  C_14
REMARK    5  A    between atoms: C_14  and  C_16
REMARK    6  A    between atoms: C_14  and  S_23
REMARK    7  A    between atoms: S_23  and  C_26
REMARK                            x       y       z     vdW  Elec       q    Type
REMARK                         _______ _______ _______ _____ _____    ______ ____
ROOT
ATOM      1  C   UNL     1      -1.148   2.418  -0.128  0.00  0.00    +0.183 C 
ENDROOT
BRANCH   1   2
ATOM      2  C   UNL     1       0.128   1.617  -0.104  0.00  0.00    -0.021 A 
ATOM      3  C   UNL     1       1.328   2.238   0.186  0.00  0.00    +0.008 A 
ATOM      4  C   UNL     1       2.500   1.506   0.203  0.00  0.00    +0.038 A 
ATOM      5  C   UNL     1       2.471   0.149  -0.071  0.00  0.00    +0.123 A 
ATOM      6  C   UNL     1       1.268  -0.473  -0.361  0.00  0.00    +0.038 A 
ATOM      7  C   UNL     1       0.098   0.262  -0.378  0.00  0.00    +0.008 A 
ATOM      8  F   UNL     1       3.616  -0.569  -0.055  0.00  0.00    -0.205 F 
ENDBRANCH   1   2
BRANCH   1   9
ATOM      9  S   UNL     1      -1.014   3.731  -1.373  0.00  0.00    +0.011 S 
ATOM     10  O   UNL     1      -0.619   3.182  -2.623  0.00  0.00    -0.168 OA
ATOM     11  O   UNL     1      -2.133   4.603  -1.286  0.00  0.00    -0.168 OA
BRANCH   9  12
ATOM     12  C   UNL     1       0.359   4.707  -0.856  0.00  0.00    +0.126 A 
ATOM     13  C   UNL     1       1.669   4.574  -1.176  0.00  0.00    +0.035 A 
ATOM     14  C   UNL     1       2.582   5.467  -0.647  0.00  0.00    +0.009 A 
ATOM     15  C   UNL     1       2.140   6.449   0.176  0.00  0.00    +0.047 A 
ATOM     16  S   UNL     1       0.384   6.133   0.218  0.00  0.00    -0.078 S 
ENDBRANCH   9  12
ENDBRANCH   1   9
BRANCH   1  17
ATOM     17  C   UNL     1      -1.384   3.043   1.249  0.00  0.00    +0.136 C 
BRANCH  17  20
ATOM     18  C   UNL     1      -3.037   4.466   2.335  0.00  0.00    +0.299 C 
ATOM     19  O   UNL     1      -2.380   4.401   3.353  0.00  0.00    -0.265 OA
ATOM     20  N   UNL     1      -2.624   3.822   1.225  0.00  0.00    -0.305 N 
ATOM     21  H   UNL     1      -3.149   3.874   0.411  0.00  0.00    +0.149 HD
BRANCH  18  29
ATOM     22  C   UNL     1      -4.763   9.843   5.228  0.00  0.00    +0.007 C 
ATOM     23  C   UNL     1      -4.921   8.347   4.951  0.00  0.00    -0.011 C 
ATOM     24  C   UNL     1      -5.783   8.148   3.702  0.00  0.00    +0.022 C 
ATOM     25  C   UNL     1      -5.968   6.649   3.448  0.00  0.00    +0.108 C 
ATOM     26  N   UNL     1      -4.645   6.015   3.375  0.00  0.00    -0.294 N 
ATOM     27  C   UNL     1      -3.704   6.213   4.486  0.00  0.00    +0.108 C 
ATOM     28  C   UNL     1      -3.542   7.722   4.726  0.00  0.00    +0.022 C 
ATOM     29  C   UNL     1      -4.302   5.261   2.311  0.00  0.00    +0.301 C 
ATOM     30  O   UNL     1      -5.021   5.228   1.334  0.00  0.00    -0.265 OA
ENDBRANCH  18  29
ENDBRANCH  17  20
ENDBRANCH   1  17
TORSDOF 6
