REMARK  Name = ZINC59323819
REMARK  8 active torsions:
REMARK  status: ('A' for Active; 'I' for Inactive)
REMARK    1  A    between atoms: C_1  and  C_2
REMARK    2  A    between atoms: C_2  and  C_3
REMARK    3  A    between atoms: N_9  and  S_10
REMARK    4  A    between atoms: S_10  and  C_13
REMARK    5  A    between atoms: C_16  and  N_19
REMARK    6  A    between atoms: C_20  and  C_22
REMARK    7  A    between atoms: C_22  and  O_23
REMARK    8  A    between atoms: O_23  and  C_24
REMARK                            x       y       z     vdW  Elec       q    Type
REMARK                         _______ _______ _______ _____ _____    ______ ____
ROOT
ATOM      1  C   UNL     1      -2.870  -0.405   2.091  0.00  0.00    +0.106 A 
ATOM      2  C   UNL     1      -3.325  -0.666   0.811  0.00  0.00    +0.030 A 
ATOM      3  C   UNL     1      -4.420  -1.485   0.620  0.00  0.00    +0.025 A 
ATOM      4  C   UNL     1      -5.064  -2.047   1.714  0.00  0.00    +0.034 A 
ATOM      5  C   UNL     1      -4.604  -1.784   2.998  0.00  0.00    +0.025 A 
ATOM      6  C   UNL     1      -3.506  -0.967   3.182  0.00  0.00    +0.030 A 
ENDROOT
BRANCH   4   7
ATOM      7  N   UNL     1      -6.174  -2.878   1.524  0.00  0.00    -0.283 N 
ATOM      8  C   UNL     1      -6.244  -3.670   0.435  0.00  0.00    +0.255 C 
ATOM      9  O   UNL     1      -5.304  -3.736  -0.329  0.00  0.00    -0.272 OA
ATOM     10  H   UNL     1      -6.893  -2.884   2.175  0.00  0.00    +0.155 HD
BRANCH   8  11
ATOM     11  C   UNL     1      -7.491  -4.473   0.168  0.00  0.00    +0.324 C 
BRANCH  11  12
ATOM     12  O   UNL     1      -7.323  -5.227  -1.035  0.00  0.00    -0.483 OA
BRANCH  12  13
ATOM     13  C   UNL     1      -8.363  -6.012  -1.422  0.00  0.00    +0.125 A 
ATOM     14  C   UNL     1      -9.523  -6.050  -0.662  0.00  0.00    +0.049 A 
ATOM     15  C   UNL     1     -10.582  -6.847  -1.054  0.00  0.00    +0.053 A 
ATOM     16  C   UNL     1     -10.488  -7.610  -2.207  0.00  0.00    +0.166 A 
ATOM     17  C   UNL     1      -9.325  -7.573  -2.971  0.00  0.00    +0.170 A 
ATOM     18  C   UNL     1      -8.267  -6.769  -2.579  0.00  0.00    +0.095 A 
ATOM     19  O   UNL     1      -9.481  -8.403  -4.044  0.00  0.00    -0.452 OA
ATOM     20  C   UNL     1     -10.589  -9.259  -3.710  0.00  0.00    +0.466 C 
ATOM     21  O   UNL     1     -11.373  -8.464  -2.801  0.00  0.00    -0.453 OA
ENDBRANCH  12  13
ENDBRANCH  11  12
ENDBRANCH   8  11
ENDBRANCH   4   7
BRANCH   1  22
ATOM     22  S   UNL     1      -1.472   0.641   2.330  0.00  0.00    +0.061 S 
ATOM     23  O   UNL     1      -1.669   1.304   3.572  0.00  0.00    -0.153 OA
ATOM     24  O   UNL     1      -1.279   1.347   1.112  0.00  0.00    -0.153 OA
BRANCH  22  30
ATOM     25  C   UNL     1       0.528  -0.916   1.355  0.00  0.00    +0.080 C 
ATOM     26  C   UNL     1       0.619  -2.435   1.533  0.00  0.00    +0.021 C 
ATOM     27  C   UNL     1       1.293  -2.748   2.871  0.00  0.00    +0.003 C 
ATOM     28  C   UNL     1       0.450  -2.178   4.014  0.00  0.00    +0.017 C 
ATOM     29  C   UNL     1       0.357  -0.656   3.864  0.00  0.00    +0.110 C 
ATOM     30  N   UNL     1      -0.153  -0.341   2.522  0.00  0.00    -0.174 NA
BRANCH  25  32
ATOM     31  C   UNL     1       0.358  -1.323  -1.104  0.00  0.00    +0.005 C 
ATOM     32  C   UNL     1      -0.266  -0.595   0.087  0.00  0.00    +0.017 C 
ENDBRANCH  25  32
ENDBRANCH  22  30
ENDBRANCH   1  22
TORSDOF 7
