REMARK  Name = ZINC09461610
REMARK  3 active torsions:
REMARK  status: ('A' for Active; 'I' for Inactive)
REMARK    1  A    between atoms: C_1  and  C_2
REMARK    2  A    between atoms: C_2  and  N_51
REMARK    3  A    between atoms: C_12  and  C_14
REMARK                            x       y       z     vdW  Elec       q    Type
REMARK                         _______ _______ _______ _____ _____    ______ ____
ROOT
ATOM      1  C   UNL     1      -2.209   1.542  -1.180  0.00  0.00    -0.073 C 
ATOM      2  C   UNL     1      -0.743   1.981  -1.230  0.00  0.00    +0.052 C 
ATOM      3  C   UNL     1      -0.018   1.461   0.010  0.00  0.00    +0.189 C 
ATOM      4  C   UNL     1      -0.719   1.967   1.270  0.00  0.00    +0.052 C 
ATOM      5  C   UNL     1      -2.186   1.528   1.244  0.00  0.00    -0.073 C 
ATOM      6  N   UNL     1       0.002  -0.004   0.002  0.00  0.00    -0.207 N 
ATOM      7  C   UNL     1       0.740  -0.756   1.043  0.00  0.00    +0.136 C 
ATOM      8  C   UNL     1       0.854  -2.158   0.431  0.00  0.00    +0.086 C 
ATOM      9  C   UNL     1      -0.095  -2.111  -0.749  0.00  0.00    +0.070 C 
ATOM     10  N   UNL     1      -0.532  -0.904  -0.903  0.00  0.00    -0.185 NA
ATOM     11  C   UNL     1       2.083  -0.088   1.180  0.00  0.00    +0.018 A 
ATOM     12  C   UNL     1       3.110  -0.760   1.817  0.00  0.00    +0.024 A 
ATOM     13  C   UNL     1       4.346  -0.163   1.970  0.00  0.00    +0.018 A 
ATOM     14  C   UNL     1       4.555   1.116   1.485  0.00  0.00    +0.019 A 
ATOM     15  C   UNL     1       3.535   1.787   0.845  0.00  0.00    +0.047 A 
ATOM     16  C   UNL     1       2.287   1.189   0.678  0.00  0.00    +0.129 A 
ATOM     17  O   UNL     1       1.344   1.893  -0.001  0.00  0.00    -0.467 OA
ATOM     18 BR   UNL     1       5.748  -1.089   2.839  0.00  0.00    -0.050 Br
ATOM     19  N   UNL     1      -2.833   2.094   0.041  0.00  0.00    +0.380 N 
ATOM     20  H   UNL     1      -2.711   3.113   0.045  0.00  0.00    -0.082 HD
ENDROOT
BRANCH   9  21
ATOM     21  C   UNL     1      -0.466  -3.264  -1.591  0.00  0.00    +0.016 A 
ATOM     22  C   UNL     1       0.071  -4.526  -1.327  0.00  0.00    +0.012 A 
ATOM     23  C   UNL     1      -0.279  -5.600  -2.118  0.00  0.00    +0.021 A 
ATOM     24  C   UNL     1      -1.161  -5.430  -3.172  0.00  0.00    +0.042 A 
ATOM     25  C   UNL     1      -1.697  -4.182  -3.440  0.00  0.00    +0.040 A 
ATOM     26  C   UNL     1      -1.359  -3.100  -2.653  0.00  0.00    +0.051 A 
ATOM     27 CL   UNL     1      -2.039  -1.537  -2.984  0.00  0.00    -0.083 Cl
ATOM     28 CL   UNL     1      -1.595  -6.788  -4.163  0.00  0.00    -0.083 Cl
ENDBRANCH   9  21
BRANCH  19  30
ATOM     29  C   UNL     1      -4.936   2.550   1.203  0.00  0.00    -0.017 C 
ATOM     30  C   UNL     1      -4.278   1.784   0.053  0.00  0.00    -0.082 C 
ENDBRANCH  19  30
TORSDOF 2
