REMARK  Name = ZINC59640419
REMARK  7 active torsions:
REMARK  status: ('A' for Active; 'I' for Inactive)
REMARK    1  A    between atoms: C_1  and  N_2
REMARK    2  A    between atoms: N_9  and  N_10
REMARK    3  A    between atoms: C_11  and  C_12
REMARK    4  A    between atoms: C_14  and  C_32
REMARK    5  A    between atoms: N_15  and  C_23
REMARK    6  A    between atoms: C_16  and  C_17
REMARK    7  A    between atoms: C_26  and  N_29
REMARK                            x       y       z     vdW  Elec       q    Type
REMARK                         _______ _______ _______ _____ _____    ______ ____
ROOT
ATOM      1  C   UNL     1       4.181  -0.266  -7.269  0.00  0.00    +0.021 A 
ATOM      2  C   UNL     1       4.907  -0.048  -8.447  0.00  0.00    +0.038 A 
ATOM      3  C   UNL     1       5.157  -1.281  -9.025  0.00  0.00    +0.055 A 
ATOM      4  N   UNL     1       4.609  -2.286  -8.249  0.00  0.00    -0.308 N 
ATOM      5  C   UNL     1       4.006  -1.738  -7.162  0.00  0.00    +0.063 A 
ENDROOT
BRANCH   5   6
ATOM      6  C   UNL     1       3.337  -2.434  -6.127  0.00  0.00    -0.001 A 
ATOM      7  C   UNL     1       1.995  -2.132  -5.821  0.00  0.00    +0.010 A 
ATOM      8  C   UNL     1       1.359  -2.811  -4.821  0.00  0.00    +0.001 A 
ATOM      9  C   UNL     1       2.029  -3.794  -4.107  0.00  0.00    +0.000 A 
ATOM     10  C   UNL     1       3.351  -4.099  -4.400  0.00  0.00    +0.001 A 
ATOM     11  C   UNL     1       4.005  -3.438  -5.400  0.00  0.00    +0.010 A 
ENDBRANCH   5   6
BRANCH   4  12
ATOM     12  C   UNL     1       4.672  -3.655  -8.536  0.00  0.00    +0.047 A 
ATOM     13  C   UNL     1       3.519  -4.347  -8.884  0.00  0.00    +0.028 A 
ATOM     14  C   UNL     1       3.585  -5.697  -9.166  0.00  0.00    +0.035 A 
ATOM     15  C   UNL     1       4.796  -6.361  -9.102  0.00  0.00    +0.126 A 
ATOM     16  C   UNL     1       5.946  -5.675  -8.756  0.00  0.00    +0.035 A 
ATOM     17  C   UNL     1       5.889  -4.323  -8.479  0.00  0.00    +0.028 A 
BRANCH  15  18
ATOM     18  N   UNL     1       4.863  -7.808  -9.405  0.00  0.00    +0.056 N 
ATOM     19  O   UNL     1       3.769  -8.462  -9.735  0.00  0.00    -0.126 OA
ATOM     20  O   UNL     1       6.016  -8.441  -9.345  0.00  0.00    -0.126 OA
ENDBRANCH  15  18
ENDBRANCH   4  12
BRANCH   3  21
ATOM     21  C   UNL     1       5.894  -1.489 -10.278  0.00  0.00    -0.001 A 
ATOM     22  C   UNL     1       5.712  -2.668 -11.016  0.00  0.00    +0.010 A 
ATOM     23  C   UNL     1       6.408  -2.856 -12.190  0.00  0.00    +0.001 A 
ATOM     24  C   UNL     1       7.285  -1.884 -12.642  0.00  0.00    +0.000 A 
ATOM     25  C   UNL     1       7.471  -0.716 -11.920  0.00  0.00    +0.001 A 
ATOM     26  C   UNL     1       6.780  -0.509 -10.748  0.00  0.00    +0.010 A 
ENDBRANCH   3  21
BRANCH   1  28
ATOM     27  N   UNL     1       3.047   0.344  -5.293  0.00  0.00    -0.187 NA
ATOM     28  C   UNL     1       3.718   0.707  -6.371  0.00  0.00    +0.140 C 
BRANCH  27  37
ATOM     29  C   UNL     1       0.633   3.852  -0.815  0.00  0.00    +0.127 C 
ATOM     30  N   UNL     1       0.365   2.440  -0.532  0.00  0.00    -0.330 N 
ATOM     31  C   UNL     1       0.813   1.461  -1.406  0.00  0.00    +0.159 A 
ATOM     32  C   UNL     1       0.558   0.108  -1.149  0.00  0.00    +0.181 A 
ATOM     33  C   UNL     1       1.024  -0.833  -2.051  0.00  0.00    +0.156 A 
ATOM     34  N   UNL     1       1.692  -0.429  -3.120  0.00  0.00    -0.219 NA
ATOM     35  C   UNL     1       1.919   0.858  -3.337  0.00  0.00    +0.237 A 
ATOM     36  N   UNL     1       1.485   1.792  -2.502  0.00  0.00    -0.195 NA
ATOM     37  N   UNL     1       2.622   1.238  -4.466  0.00  0.00    -0.205 N 
ATOM     38  F   UNL     1      -0.127  -0.270  -0.048  0.00  0.00    -0.200 F 
ATOM     39  H   UNL     1      -0.126   2.190   0.266  0.00  0.00    +0.147 HD
ATOM     40  H   UNL     1       2.794   2.177  -4.637  0.00  0.00    +0.177 HD
ENDBRANCH  27  37
ENDBRANCH   1  28
TORSDOF 6
