REMARK  Name = ZINC59020562
REMARK  9 active torsions:
REMARK  status: ('A' for Active; 'I' for Inactive)
REMARK    1  A    between atoms: C_1  and  C_2
REMARK    2  A    between atoms: C_2  and  C_3
REMARK    3  A    between atoms: C_3  and  C_27
REMARK    4  A    between atoms: N_4  and  N_5
REMARK    5  A    between atoms: C_8  and  S_11
REMARK    6  A    between atoms: S_11  and  C_12
REMARK    7  A    between atoms: C_12  and  C_13
REMARK    8  A    between atoms: N_15  and  C_16
REMARK    9  A    between atoms: C_17  and  C_25
REMARK                            x       y       z     vdW  Elec       q    Type
REMARK                         _______ _______ _______ _____ _____    ______ ____
ROOT
ATOM      1  N   UNL     1       2.637  -0.550  -2.444  0.00  0.00    -0.205 N 
ATOM      2  C   UNL     1       4.019  -0.516  -2.458  0.00  0.00    +0.232 A 
ATOM      3  N   UNL     1       4.800  -0.321  -1.416  0.00  0.00    -0.186 NA
ATOM      4  C   UNL     1       6.080  -0.352  -1.800  0.00  0.00    +0.211 A 
ATOM      5  N   UNL     1       6.132  -0.569  -3.093  0.00  0.00    -0.144 NA
ATOM      6  N   UNL     1       4.806  -0.685  -3.542  0.00  0.00    -0.245 N 
ATOM      7  H   UNL     1       2.147  -0.706  -3.267  0.00  0.00    +0.177 HD
ATOM      8  H   UNL     1       4.514  -0.852  -4.452  0.00  0.00    +0.192 HD
ENDROOT
BRANCH   1  10
ATOM      9  C   UNL     1       0.649  -0.274  -1.245  0.00  0.00    +0.066 C 
ATOM     10  N   UNL     1       1.944  -0.358  -1.242  0.00  0.00    -0.184 NA
BRANCH   9  11
ATOM     11  C   UNL     1      -0.082  -0.200  -2.524  0.00  0.00    -0.002 A 
ATOM     12  C   UNL     1      -1.304  -0.859  -2.673  0.00  0.00    +0.010 A 
ATOM     13  C   UNL     1      -1.982  -0.785  -3.873  0.00  0.00    +0.001 A 
ATOM     14  C   UNL     1      -1.454  -0.060  -4.926  0.00  0.00    +0.000 A 
ATOM     15  C   UNL     1      -0.243   0.595  -4.785  0.00  0.00    +0.001 A 
ATOM     16  C   UNL     1       0.443   0.535  -3.590  0.00  0.00    +0.010 A 
ENDBRANCH   9  11
BRANCH   9  18
ATOM     17  C   UNL     1      -0.272   1.193   0.529  0.00  0.00    +0.010 C 
ATOM     18  C   UNL     1      -0.109  -0.253   0.058  0.00  0.00    +0.054 C 
ENDBRANCH   9  18
ENDBRANCH   1  10
BRANCH   4  19
ATOM     19  S   UNL     1       7.473  -0.138  -0.742  0.00  0.00    -0.075 S 
BRANCH  19  20
ATOM     20  C   UNL     1       8.897  -0.288  -1.855  0.00  0.00    +0.173 C 
BRANCH  20  21
ATOM     21  C   UNL     1      10.170  -0.122  -1.066  0.00  0.00    +0.228 C 
ATOM     22  O   UNL     1      10.122   0.078   0.129  0.00  0.00    -0.275 OA
ATOM     23  N   UNL     1      11.363  -0.197  -1.689  0.00  0.00    -0.278 N 
ATOM     24  H   UNL     1      11.402  -0.357  -2.645  0.00  0.00    +0.155 HD
BRANCH  23  25
ATOM     25  C   UNL     1      12.536  -0.044  -0.962  0.00  0.00    +0.090 A 
ATOM     26  C   UNL     1      13.839  -0.083  -1.431  0.00  0.00    +0.084 A 
ATOM     27  C   UNL     1      14.901   0.107  -0.459  0.00  0.00    -0.018 A 
ATOM     28  C   UNL     1      14.464   0.303   0.805  0.00  0.00    -0.004 A 
ATOM     29  S   UNL     1      12.701   0.239   0.685  0.00  0.00    -0.077 S 
ATOM     30  C   UNL     1      15.306   0.526   2.023  0.00  0.00    +0.043 C 
ATOM     31  C   UNL     1      16.751   0.125   1.690  0.00  0.00    +0.005 C 
ATOM     32  C   UNL     1      17.148   0.765   0.357  0.00  0.00    +0.005 C 
ATOM     33  C   UNL     1      16.386   0.097  -0.789  0.00  0.00    +0.037 C 
BRANCH  26  34
ATOM     34  C   UNL     1      14.127  -0.304  -2.816  0.00  0.00    +0.102 C 
ATOM     35  N   UNL     1      14.356  -0.478  -3.915  0.00  0.00    -0.191 NA
ENDBRANCH  26  34
ENDBRANCH  23  25
ENDBRANCH  20  21
ENDBRANCH  19  20
ENDBRANCH   4  19
TORSDOF 8
