REMARK  Name = ZINC08957718
REMARK  4 active torsions:
REMARK  status: ('A' for Active; 'I' for Inactive)
REMARK    1  A    between atoms: C_2  and  C_3
REMARK    2  A    between atoms: C_3  and  N_4
REMARK    3  A    between atoms: N_15  and  C_16
REMARK    4  A    between atoms: C_16  and  C_18
REMARK                            x       y       z     vdW  Elec       q    Type
REMARK                         _______ _______ _______ _____ _____    ______ ____
ROOT
ATOM      1  N   UNL     1       1.305   8.710   0.033  0.00  0.00    -0.308 N 
ATOM      2  C   UNL     1       1.799  10.001  -0.000  0.00  0.00    +0.078 A 
ATOM      3  C   UNL     1       3.198  10.098  -0.009  0.00  0.00    +0.040 A 
ATOM      4  C   UNL     1       3.854  11.305  -0.047  0.00  0.00    +0.019 A 
ATOM      5  C   UNL     1       3.124  12.480  -0.077  0.00  0.00    +0.022 A 
ATOM      6  C   UNL     1       1.740  12.417  -0.068  0.00  0.00    +0.061 A 
ATOM      7  C   UNL     1       1.081  11.208  -0.031  0.00  0.00    +0.084 A 
ATOM      8 CL   UNL     1      -0.654  11.175  -0.022  0.00  0.00    -0.080 Cl
ATOM      9 CL   UNL     1       0.819  13.888  -0.106  0.00  0.00    -0.082 Cl
ATOM     10  S   UNL     1       3.724   8.403   0.037  0.00  0.00    -0.052 S 
ATOM     11  C   UNL     1       2.160   7.653   0.066  0.00  0.00    +0.168 A 
ATOM     12  N   UNL     1       1.868   6.357   0.105  0.00  0.00    -0.150 NA
ENDROOT
BRANCH  12  13
ATOM     13  C   UNL     1       2.850   5.451   0.127  0.00  0.00    +0.295 C 
ATOM     14  O   UNL     1       4.014   5.813   0.111  0.00  0.00    -0.266 OA
BRANCH  13  15
ATOM     15  C   UNL     1       2.525   4.008   0.170  0.00  0.00    +0.166 A 
ATOM     16  N   UNL     1       1.345   3.428   0.192  0.00  0.00    -0.234 NA
ATOM     17  C   UNL     1       1.192   2.099   0.230  0.00  0.00    +0.079 A 
ATOM     18  C   UNL     1      -0.016   1.357   0.257  0.00  0.00    +0.029 A 
ATOM     19  C   UNL     1       0.003  -0.000   0.296  0.00  0.00    +0.002 A 
ATOM     20  C   UNL     1       1.194  -0.715   0.312  0.00  0.00    +0.001 A 
ATOM     21  C   UNL     1       2.394  -0.033   0.287  0.00  0.00    +0.017 A 
ATOM     22  C   UNL     1       2.389   1.341   0.247  0.00  0.00    +0.040 A 
ATOM     23  S   UNL     1       3.635   2.607   0.205  0.00  0.00    -0.063 S 
ENDBRANCH  13  15
ENDBRANCH  12  13
BRANCH   1  24
ATOM     24  C   UNL     1      -0.142   8.480   0.039  0.00  0.00    +0.212 C 
BRANCH  24  26
ATOM     25  C   UNL     1      -1.058   8.569  -2.442  0.00  0.00    +0.005 C 
ATOM     26  C   UNL     1      -0.652   8.530  -1.341  0.00  0.00    -0.084 C 
ENDBRANCH  24  26
ENDBRANCH   1  24
TORSDOF 4
