REMARK  Name = ZINC10537725
REMARK  3 active torsions:
REMARK  status: ('A' for Active; 'I' for Inactive)
REMARK    1  A    between atoms: C_11  and  C_13
REMARK    2  A    between atoms: C_13  and  N_14
REMARK    3  A    between atoms: C_18  and  C_19
REMARK                            x       y       z     vdW  Elec       q    Type
REMARK                         _______ _______ _______ _____ _____    ______ ____
ROOT
ATOM      1  C   UNL     1       7.184   2.871  -0.052  0.00  0.00    +0.213 C 
ENDROOT
BRANCH   1  12
ATOM      2  C   UNL     1      10.338   2.918  -5.680  0.00  0.00    +0.000 A 
ATOM      3  C   UNL     1       8.998   2.710  -5.412  0.00  0.00    +0.002 A 
ATOM      4  C   UNL     1       8.556   2.660  -4.105  0.00  0.00    +0.024 A 
ATOM      5  C   UNL     1       9.459   2.820  -3.059  0.00  0.00    +0.039 A 
ATOM      6  C   UNL     1      10.803   3.025  -3.328  0.00  0.00    -0.026 A 
ATOM      7  C   UNL     1      11.237   3.075  -4.642  0.00  0.00    +0.005 A 
ATOM      8  C   UNL     1      11.810   3.190  -2.221  0.00  0.00    +0.038 C 
ATOM      9  C   UNL     1      11.117   3.607  -0.924  0.00  0.00    +0.024 C 
ATOM     10  C   UNL     1       9.961   2.643  -0.645  0.00  0.00    +0.114 C 
ATOM     11  N   UNL     1       8.989   2.770  -1.739  0.00  0.00    -0.270 N 
ATOM     12  C   UNL     1       7.669   2.843  -1.478  0.00  0.00    +0.238 C 
ATOM     13  O   UNL     1       6.872   2.886  -2.391  0.00  0.00    -0.274 OA
ENDBRANCH   1  12
BRANCH   1  14
ATOM     14  N   UNL     1       5.732   3.071  -0.034  0.00  0.00    -0.219 N 
ATOM     15  C   UNL     1       4.931   2.020  -0.057  0.00  0.00    +0.261 C 
ATOM     16  O   UNL     1       5.380   0.889  -0.093  0.00  0.00    -0.269 OA
ATOM     17  C   UNL     1       3.522   2.252  -0.038  0.00  0.00    +0.080 C 
ATOM     18  C   UNL     1       2.495   1.355  -0.056  0.00  0.00    +0.035 C 
ATOM     19  S   UNL     1       3.471   4.038   0.005  0.00  0.00    -0.026 S 
ATOM     20  C   UNL     1       5.234   4.326   0.006  0.00  0.00    +0.286 C 
ATOM     21  O   UNL     1       5.833   5.384   0.032  0.00  0.00    -0.262 OA
BRANCH  18  22
ATOM     22  C   UNL     1       1.157   1.811  -0.031  0.00  0.00    +0.013 A 
ATOM     23  C   UNL     1      -0.021   1.073  -0.043  0.00  0.00    +0.015 A 
ATOM     24  C   UNL     1      -1.198   1.779  -0.019  0.00  0.00    +0.008 A 
ATOM     25  C   UNL     1      -1.158   3.136   0.026  0.00  0.00    +0.046 A 
ATOM     26  S   UNL     1       0.540   3.485   0.021  0.00  0.00    -0.097 S 
ENDBRANCH  18  22
ENDBRANCH   1  14
TORSDOF 3
