REMARK  Name = ZINC49101419
REMARK  5 active torsions:
REMARK  status: ('A' for Active; 'I' for Inactive)
REMARK    1  A    between atoms: C_1  and  C_2
REMARK    2  A    between atoms: C_3  and  C_21
REMARK    3  A    between atoms: N_7  and  C_8
REMARK    4  A    between atoms: C_17  and  C_18
REMARK    5  A    between atoms: C_18  and  N_20
REMARK                            x       y       z     vdW  Elec       q    Type
REMARK                         _______ _______ _______ _____ _____    ______ ____
ROOT
ATOM      1  C   UNL     1      -0.165  -2.411   3.470  0.00  0.00    +0.053 A 
ATOM      2  C   UNL     1       0.351  -3.169   4.548  0.00  0.00    +0.020 A 
ATOM      3  C   UNL     1       0.872  -4.455   4.348  0.00  0.00    +0.012 A 
ATOM      4  C   UNL     1       1.360  -5.157   5.410  0.00  0.00    +0.001 A 
ATOM      5  C   UNL     1       1.348  -4.611   6.691  0.00  0.00    +0.002 A 
ATOM      6  C   UNL     1       0.848  -3.365   6.918  0.00  0.00    +0.026 A 
ATOM      7  C   UNL     1       0.337  -2.611   5.849  0.00  0.00    +0.048 A 
ATOM      8  N   UNL     1      -0.159  -1.382   6.052  0.00  0.00    -0.360 N 
ATOM      9  C   UNL     1      -0.642  -0.659   5.074  0.00  0.00    +0.095 A 
ATOM     10  C   UNL     1      -0.662  -1.129   3.751  0.00  0.00    +0.041 A 
ATOM     11  H   UNL     1      -0.159  -1.018   6.951  0.00  0.00    +0.165 HD
ENDROOT
BRANCH   1  18
ATOM     12  C   UNL     1      -4.258  -5.565   2.740  0.00  0.00    +0.066 C 
ATOM     13  C   UNL     1      -3.063  -5.078   1.961  0.00  0.00    +0.050 A 
ATOM     14  C   UNL     1      -2.824  -5.500   0.695  0.00  0.00    +0.011 A 
ATOM     15  S   UNL     1      -1.325  -4.605   0.323  0.00  0.00    -0.057 S 
ATOM     16  C   UNL     1      -1.163  -3.802   1.793  0.00  0.00    +0.163 A 
ATOM     17  N   UNL     1      -2.206  -4.217   2.478  0.00  0.00    -0.230 NA
ATOM     18  N   UNL     1      -0.172  -2.913   2.185  0.00  0.00    -0.293 N 
ATOM     19  C   UNL     1      -3.608  -6.461  -0.162  0.00  0.00    +0.053 C 
ATOM     20  H   UNL     1       0.515  -2.644   1.555  0.00  0.00    +0.154 HD
ENDBRANCH   1  18
BRANCH  10  21
ATOM     21  C   UNL     1      -1.206  -0.290   2.672  0.00  0.00    +0.080 C 
ATOM     22  S   UNL     1      -1.097  -0.811   1.045  0.00  0.00    -0.035 S 
BRANCH  21  23
ATOM     23  N   UNL     1      -1.788   0.889   2.965  0.00  0.00    -0.352 N 
ATOM     24  H   UNL     1      -1.786   1.219   3.877  0.00  0.00    +0.143 HD
ATOM     25  H   UNL     1      -2.211   1.409   2.263  0.00  0.00    +0.143 HD
ENDBRANCH  21  23
ENDBRANCH  10  21
TORSDOF 3
