REMARK  Name = ZINC21250731
REMARK  11 active torsions:
REMARK  status: ('A' for Active; 'I' for Inactive)
REMARK    1  A    between atoms: C_1  and  C_2
REMARK    2  A    between atoms: C_2  and  C_3
REMARK    3  A    between atoms: C_3  and  O_4
REMARK    4  A    between atoms: O_4  and  C_5
REMARK    5  A    between atoms: C_8  and  C_11
REMARK    6  A    between atoms: C_16  and  C_22
REMARK    7  A    between atoms: C_24  and  O_31
REMARK    8  A    between atoms: C_25  and  O_30
REMARK    9  A    between atoms: C_26  and  O_28
REMARK   10  A    between atoms: O_28  and  C_29
REMARK   11  A    between atoms: O_31  and  C_32
REMARK                            x       y       z     vdW  Elec       q    Type
REMARK                         _______ _______ _______ _____ _____    ______ ____
ROOT
ATOM      1  C   UNL     1      -2.192   5.247  -1.090  0.00  0.00    +0.032 C 
ATOM      2  C   UNL     1      -2.517   3.907  -0.427  0.00  0.00    +0.059 C 
ATOM      3  C   UNL     1      -1.238   3.233   0.006  0.00  0.00    +0.018 C 
ATOM      4  C   UNL     1      -0.162   3.961   0.371  0.00  0.00    +0.020 C 
ATOM      5  C   UNL     1       1.105   3.264   0.808  0.00  0.00    +0.063 C 
ATOM      6  C   UNL     1       1.281   1.977   0.000  0.00  0.00    +0.109 C 
ATOM      7  C   UNL     1      -0.014   1.208   0.009  0.00  0.00    +0.218 C 
ATOM      8  O   UNL     1       0.002  -0.004   0.002  0.00  0.00    -0.275 OA
ATOM      9  N   UNL     1      -1.188   1.863   0.018  0.00  0.00    -0.289 N 
ATOM     10  C   UNL     1      -0.188   5.366   0.352  0.00  0.00    +0.162 C 
ATOM     11  O   UNL     1       0.797   5.987   0.699  0.00  0.00    -0.292 OA
ATOM     12  C   UNL     1      -1.418   6.112  -0.090  0.00  0.00    +0.088 C 
ATOM     13  H   UNL     1      -2.120   1.279   0.035  0.00  0.00    +0.155 HD
ENDROOT
BRANCH   1  17
ATOM     14  C   UNL     1      -5.822   7.220  -2.186  0.00  0.00    +0.121 A 
ATOM     15  C   UNL     1      -4.888   6.893  -3.158  0.00  0.00    +0.046 A 
ATOM     16  C   UNL     1      -3.715   6.255  -2.801  0.00  0.00    +0.007 A 
ATOM     17  C   UNL     1      -3.472   5.943  -1.476  0.00  0.00    -0.043 A 
ATOM     18  C   UNL     1      -4.404   6.263  -0.506  0.00  0.00    +0.007 A 
ATOM     19  C   UNL     1      -5.575   6.906  -0.857  0.00  0.00    +0.046 A 
BRANCH  14  20
ATOM     20  O   UNL     1      -6.976   7.847  -2.534  0.00  0.00    -0.492 OA
BRANCH  20  21
ATOM     21  C   UNL     1      -7.891   8.153  -1.480  0.00  0.00    +0.229 C 
BRANCH  21  23
ATOM     22  C   UNL     1     -10.102   9.180  -0.933  0.00  0.00    +0.007 C 
ATOM     23  C   UNL     1      -9.122   8.852  -2.061  0.00  0.00    +0.038 C 
ENDBRANCH  21  23
ENDBRANCH  20  21
ENDBRANCH  14  20
ENDBRANCH   1  17
BRANCH   5  24
ATOM     24  C   UNL     1       1.014   2.929   2.274  0.00  0.00    -0.032 A 
ATOM     25  C   UNL     1      -0.001   2.111   2.732  0.00  0.00    +0.054 A 
ATOM     26  C   UNL     1      -0.085   1.795   4.080  0.00  0.00    +0.165 A 
ATOM     27  C   UNL     1       0.846   2.313   4.973  0.00  0.00    +0.201 A 
ATOM     28  C   UNL     1       1.862   3.140   4.509  0.00  0.00    +0.165 A 
ATOM     29  C   UNL     1       1.942   3.446   3.159  0.00  0.00    +0.054 A 
BRANCH  28  30
ATOM     30  O   UNL     1       2.775   3.650   5.378  0.00  0.00    -0.491 OA
ATOM     31  C   UNL     1       3.791   4.494   4.831  0.00  0.00    +0.277 C 
ENDBRANCH  28  30
BRANCH  27  32
ATOM     32  O   UNL     1       0.763   2.011   6.297  0.00  0.00    -0.501 OA
ATOM     33  H   UNL     1       1.501   2.422   7.002  0.00  0.00    +0.292 HD
ENDBRANCH  27  32
BRANCH  26  34
ATOM     34  O   UNL     1      -1.081   0.985   4.529  0.00  0.00    -0.491 OA
ATOM     35  C   UNL     1      -2.002   0.489   3.556  0.00  0.00    +0.277 C 
ENDBRANCH  26  34
ENDBRANCH   5  24
TORSDOF 8
