REMARK  Name = ZINC15098402
REMARK  7 active torsions:
REMARK  status: ('A' for Active; 'I' for Inactive)
REMARK    1  A    between atoms: C_1  and  C_2
REMARK    2  A    between atoms: C_5  and  S_7
REMARK    3  A    between atoms: S_7  and  N_10
REMARK    4  A    between atoms: N_13  and  C_16
REMARK    5  A    between atoms: C_16  and  C_18
REMARK    6  A    between atoms: C_16  and  C_19
REMARK    7  A    between atoms: N_24  and  C_25
REMARK                            x       y       z     vdW  Elec       q    Type
REMARK                         _______ _______ _______ _____ _____    ______ ____
ROOT
ATOM      1  C   UNL     1       3.453  -7.099  -5.526  0.00  0.00    +0.237 C 
ATOM      2  O   UNL     1       3.911  -5.978  -5.465  0.00  0.00    -0.274 OA
ATOM      3  N   UNL     1       3.946  -7.981  -6.418  0.00  0.00    -0.239 N 
ATOM      4  C   UNL     1       4.949  -7.617  -7.242  0.00  0.00    +0.306 C 
ATOM      5  O   UNL     1       5.409  -6.493  -7.180  0.00  0.00    -0.252 OA
ATOM      6  N   UNL     1       5.442  -8.499  -8.134  0.00  0.00    -0.294 N 
ATOM      7  H   UNL     1       3.579  -8.877  -6.467  0.00  0.00    +0.159 HD
ATOM      8  H   UNL     1       5.075  -9.395  -8.183  0.00  0.00    +0.151 HD
ENDROOT
BRANCH   6   9
ATOM      9  C   UNL     1       6.532  -8.103  -9.029  0.00  0.00    +0.037 C 
ATOM     10  C   UNL     1       6.082  -6.920  -9.889  0.00  0.00    +0.029 C 
ATOM     11  C   UNL     1       7.221  -6.507 -10.824  0.00  0.00    -0.008 C 
ATOM     12  C   UNL     1       7.590  -7.684 -11.729  0.00  0.00    +0.007 C 
ATOM     13  C   UNL     1       8.040  -8.867 -10.869  0.00  0.00    -0.008 C 
ATOM     14  C   UNL     1       6.902  -9.280  -9.934  0.00  0.00    +0.029 C 
ATOM     15  C   UNL     1       9.259  -8.460 -10.039  0.00  0.00    +0.007 C 
ATOM     16  C   UNL     1       8.890  -7.282  -9.134  0.00  0.00    -0.008 C 
ATOM     17  C   UNL     1       8.440  -6.100  -9.994  0.00  0.00    +0.007 C 
ATOM     18  C   UNL     1       7.752  -7.696  -8.199  0.00  0.00    +0.029 C 
ENDBRANCH   6   9
BRANCH   1  19
ATOM     19  C   UNL     1       2.332  -7.506  -4.605  0.00  0.00    +0.140 C 
ATOM     20  C   UNL     1       1.026  -7.590  -5.398  0.00  0.00    +0.034 C 
BRANCH  19  24
ATOM     21  N   UNL     1       0.994  -4.736  -1.750  0.00  0.00    -0.174 NA
ATOM     22  C   UNL     1       1.646  -4.194  -2.951  0.00  0.00    +0.125 C 
ATOM     23  C   UNL     1       1.609  -5.263  -4.049  0.00  0.00    +0.102 C 
ATOM     24  N   UNL     1       2.191  -6.510  -3.535  0.00  0.00    -0.289 NA
ATOM     25  C   UNL     1       1.402  -7.045  -2.418  0.00  0.00    +0.102 C 
ATOM     26  C   UNL     1       1.435  -6.047  -1.249  0.00  0.00    +0.125 C 
BRANCH  21  27
ATOM     27  S   UNL     1      -0.202  -3.890  -0.977  0.00  0.00    +0.067 S 
ATOM     28  O   UNL     1      -0.975  -4.842  -0.260  0.00  0.00    -0.152 OA
ATOM     29  O   UNL     1      -0.771  -3.017  -1.943  0.00  0.00    -0.152 OA
BRANCH  27  34
ATOM     30  C   UNL     1       2.303  -1.227   3.675  0.00  0.00    +0.051 C 
ATOM     31  C   UNL     1       1.718  -1.670   2.359  0.00  0.00    -0.011 A 
ATOM     32  C   UNL     1       1.627  -0.987   1.192  0.00  0.00    +0.013 A 
ATOM     33  C   UNL     1       1.044  -1.601   0.099  0.00  0.00    +0.036 A 
ATOM     34  C   UNL     1       0.579  -2.867   0.227  0.00  0.00    +0.143 A 
ATOM     35  S   UNL     1       0.970  -3.233   1.930  0.00  0.00    -0.074 S 
ENDBRANCH  27  34
ENDBRANCH  21  27
ENDBRANCH  19  24
ENDBRANCH   1  19
TORSDOF 5
