REMARK  Name = ZINC18521589
REMARK  9 active torsions:
REMARK  status: ('A' for Active; 'I' for Inactive)
REMARK    1  A    between atoms: C_1  and  C_2
REMARK    2  A    between atoms: C_8  and  C_16
REMARK    3  A    between atoms: C_16  and  O_18
REMARK    4  A    between atoms: O_18  and  C_19
REMARK    5  A    between atoms: C_19  and  C_21
REMARK    6  A    between atoms: C_19  and  C_22
REMARK    7  A    between atoms: N_24  and  C_25
REMARK    8  A    between atoms: C_29  and  S_31
REMARK    9  A    between atoms: S_31  and  N_34
REMARK                            x       y       z     vdW  Elec       q    Type
REMARK                         _______ _______ _______ _____ _____    ______ ____
ROOT
ATOM      1  O   UNL     1      -1.226  -4.774   0.420  0.00  0.00    -0.449 OA
ENDROOT
BRANCH   1   2
ATOM      2  C   UNL     1      -1.345  -5.914   1.128  0.00  0.00    +0.341 C 
ATOM      3  O   UNL     1      -0.352  -6.476   1.546  0.00  0.00    -0.245 OA
BRANCH   2  10
ATOM      4  C   UNL     1      -3.093  -3.728   5.518  0.00  0.00    +0.008 C 
ATOM      5  C   UNL     1      -3.792  -4.535   4.422  0.00  0.00    -0.009 C 
ATOM      6  C   UNL     1      -4.597  -5.676   5.055  0.00  0.00    +0.010 C 
ATOM      7  C   UNL     1      -5.476  -6.306   3.977  0.00  0.00    +0.056 C 
ATOM      8  C   UNL     1      -4.653  -6.666   2.765  0.00  0.00    +0.046 A 
ATOM      9  C   UNL     1      -3.396  -6.120   2.539  0.00  0.00    -0.011 A 
ATOM     10  C   UNL     1      -2.683  -6.481   1.397  0.00  0.00    +0.073 A 
ATOM     11  C   UNL     1      -3.276  -7.400   0.498  0.00  0.00    +0.015 A 
ATOM     12  C   UNL     1      -2.625  -7.806  -0.674  0.00  0.00    +0.011 A 
ATOM     13  C   UNL     1      -3.234  -8.693  -1.510  0.00  0.00    +0.001 A 
ATOM     14  C   UNL     1      -4.497  -9.202  -1.214  0.00  0.00    +0.002 A 
ATOM     15  C   UNL     1      -5.152  -8.839  -0.078  0.00  0.00    +0.028 A 
ATOM     16  C   UNL     1      -4.558  -7.919   0.807  0.00  0.00    +0.072 A 
ATOM     17  N   UNL     1      -5.181  -7.528   1.917  0.00  0.00    -0.251 NA
ATOM     18  C   UNL     1      -2.750  -5.144   3.486  0.00  0.00    +0.041 C 
ENDBRANCH   2  10
ENDBRANCH   1   2
BRANCH   1  19
ATOM     19  C   UNL     1       0.119  -4.276   0.195  0.00  0.00    +0.259 C 
ATOM     20  C   UNL     1       0.671  -4.866  -1.104  0.00  0.00    +0.062 C 
BRANCH  19  21
ATOM     21  C   UNL     1       0.087  -2.773   0.089  0.00  0.00    +0.258 C 
ATOM     22  O   UNL     1      -0.975  -2.187   0.102  0.00  0.00    -0.271 OA
ATOM     23  N   UNL     1       1.237  -2.080  -0.020  0.00  0.00    -0.282 N 
ATOM     24  H   UNL     1       2.081  -2.551  -0.108  0.00  0.00    +0.155 HD
BRANCH  23  25
ATOM     25  C   UNL     1       1.216  -0.681  -0.007  0.00  0.00    +0.035 A 
ATOM     26  C   UNL     1       0.271  -0.006   0.755  0.00  0.00    +0.023 A 
ATOM     27  C   UNL     1       0.252   1.374   0.766  0.00  0.00    +0.004 A 
ATOM     28  C   UNL     1       1.173   2.086   0.019  0.00  0.00    +0.028 A 
ATOM     29  C   UNL     1       2.115   1.418  -0.741  0.00  0.00    +0.107 A 
ATOM     30  C   UNL     1       2.139   0.037  -0.756  0.00  0.00    +0.051 A 
BRANCH  29  31
ATOM     31  S   UNL     1       3.286   2.329  -1.691  0.00  0.00    +0.056 S 
ATOM     32  O   UNL     1       3.401   3.606  -1.079  0.00  0.00    -0.153 OA
ATOM     33  O   UNL     1       4.405   1.474  -1.885  0.00  0.00    -0.153 OA
BRANCH  31  34
ATOM     34  N   UNL     1       2.617   2.578  -3.185  0.00  0.00    -0.204 NA
ATOM     35  H   UNL     1       1.731   2.236  -3.383  0.00  0.00    +0.144 HD
ATOM     36  H   UNL     1       3.111   3.067  -3.862  0.00  0.00    +0.144 HD
ENDBRANCH  31  34
ENDBRANCH  29  31
ENDBRANCH  23  25
ENDBRANCH  19  21
ENDBRANCH   1  19
TORSDOF 7
