REMARK  Name = ZINC08968531
REMARK  11 active torsions:
REMARK  status: ('A' for Active; 'I' for Inactive)
REMARK    1  A    between atoms: C_1  and  O_2
REMARK    2  A    between atoms: O_2  and  C_3
REMARK    3  A    between atoms: C_6  and  C_9
REMARK    4  A    between atoms: C_9  and  C_11
REMARK    5  A    between atoms: C_9  and  S_28
REMARK    6  A    between atoms: C_11  and  N_12
REMARK    7  A    between atoms: N_12  and  S_13
REMARK    8  A    between atoms: S_13  and  C_16
REMARK    9  A    between atoms: C_19  and  O_22
REMARK   10  A    between atoms: O_22  and  C_23
REMARK   11  A    between atoms: S_28  and  C_31
REMARK                            x       y       z     vdW  Elec       q    Type
REMARK                         _______ _______ _______ _____ _____    ______ ____
ROOT
ATOM      1  C   UNL     1      -2.873   2.896   2.555  0.00  0.00    +0.137 C 
ENDROOT
BRANCH   1   2
ATOM      2  N   UNL     1      -4.151   2.582   1.912  0.00  0.00    -0.188 NA
ATOM      3  H   UNL     1      -4.601   3.252   1.374  0.00  0.00    +0.148 HD
BRANCH   2   4
ATOM      4  S   UNL     1      -4.829   1.083   2.104  0.00  0.00    +0.058 S 
ATOM      5  O   UNL     1      -6.058   1.099   1.392  0.00  0.00    -0.153 OA
ATOM      6  O   UNL     1      -3.804   0.136   1.834  0.00  0.00    -0.153 OA
BRANCH   4   7
ATOM      7  C   UNL     1      -5.237   0.910   3.810  0.00  0.00    +0.105 A 
ATOM      8  C   UNL     1      -4.314   0.375   4.689  0.00  0.00    +0.032 A 
ATOM      9  C   UNL     1      -4.630   0.243   6.028  0.00  0.00    +0.047 A 
ATOM     10  C   UNL     1      -5.878   0.639   6.487  0.00  0.00    +0.121 A 
ATOM     11  C   UNL     1      -6.804   1.171   5.601  0.00  0.00    +0.047 A 
ATOM     12  C   UNL     1      -6.481   1.306   4.265  0.00  0.00    +0.032 A 
BRANCH  10  13
ATOM     13  O   UNL     1      -6.192   0.507   7.802  0.00  0.00    -0.489 OA
BRANCH  13  14
ATOM     14  C   UNL     1      -7.534   0.818   8.183  0.00  0.00    +0.173 C 
ATOM     15  C   UNL     1      -7.663   2.327   8.476  0.00  0.00    +0.044 C 
ATOM     16  C   UNL     1      -8.644   2.399   9.674  0.00  0.00    +0.004 C 
ATOM     17  C   UNL     1      -8.233   1.173  10.526  0.00  0.00    +0.004 C 
ATOM     18  C   UNL     1      -7.896   0.084   9.486  0.00  0.00    +0.044 C 
ENDBRANCH  13  14
ENDBRANCH  10  13
ENDBRANCH   4   7
ENDBRANCH   2   4
ENDBRANCH   1   2
BRANCH   1  19
ATOM     19  C   UNL     1      -2.289   4.168   1.937  0.00  0.00    +0.182 C 
BRANCH  19  23
ATOM     20  C   UNL     1       1.439   5.083   3.814  0.00  0.00    +0.120 A 
ATOM     21  C   UNL     1       0.392   5.992   3.868  0.00  0.00    +0.046 A 
ATOM     22  C   UNL     1      -0.812   5.694   3.260  0.00  0.00    +0.009 A 
ATOM     23  C   UNL     1      -0.975   4.491   2.599  0.00  0.00    -0.022 A 
ATOM     24  C   UNL     1       0.065   3.581   2.548  0.00  0.00    +0.009 A 
ATOM     25  C   UNL     1       1.274   3.877   3.149  0.00  0.00    +0.046 A 
BRANCH  20  27
ATOM     26  C   UNL     1       3.658   4.391   4.315  0.00  0.00    +0.277 C 
ATOM     27  O   UNL     1       2.624   5.374   4.411  0.00  0.00    -0.495 OA
ENDBRANCH  20  27
ENDBRANCH  19  23
BRANCH  19  28
ATOM     28  S   UNL     1      -2.026   3.910   0.161  0.00  0.00    +0.011 S 
ATOM     29  O   UNL     1      -1.322   5.013  -0.394  0.00  0.00    -0.168 OA
ATOM     30  O   UNL     1      -3.218   3.432  -0.447  0.00  0.00    -0.168 OA
BRANCH  28  31
ATOM     31  C   UNL     1      -0.897   2.561   0.062  0.00  0.00    +0.126 A 
ATOM     32  C   UNL     1      -1.159   1.233  -0.015  0.00  0.00    +0.035 A 
ATOM     33  C   UNL     1      -0.103   0.344  -0.082  0.00  0.00    +0.009 A 
ATOM     34  C   UNL     1       1.164   0.827  -0.079  0.00  0.00    +0.047 A 
ATOM     35  S   UNL     1       0.887   2.588   0.027  0.00  0.00    -0.078 S 
ENDBRANCH  28  31
ENDBRANCH  19  28
ENDBRANCH   1  19
TORSDOF 10
