REMARK  Name = ZINC15346613
REMARK  9 active torsions:
REMARK  status: ('A' for Active; 'I' for Inactive)
REMARK    1  A    between atoms: C_8  and  C_10
REMARK    2  A    between atoms: C_15  and  C_16
REMARK    3  A    between atoms: C_15  and  N_63
REMARK    4  A    between atoms: C_16  and  C_18
REMARK    5  A    between atoms: C_16  and  O_35
REMARK    6  A    between atoms: C_18  and  O_19
REMARK    7  A    between atoms: O_19  and  C_20
REMARK    8  A    between atoms: C_20  and  C_21
REMARK    9  A    between atoms: C_20  and  C_28
REMARK                            x       y       z     vdW  Elec       q    Type
REMARK                         _______ _______ _______ _____ _____    ______ ____
ROOT
ATOM      1  C   UNL     1      -0.452   3.112   3.691  0.00  0.00    +0.124 C 
ENDROOT
BRANCH   1   2
ATOM      2  O   UNL     1      -0.318   1.689   3.666  0.00  0.00    -0.391 OA
ATOM      3  H   UNL     1      -1.156   1.214   3.739  0.00  0.00    +0.210 HD
ENDBRANCH   1   2
BRANCH   1   4
ATOM      4  C   UNL     1      -1.329   3.562   2.521  0.00  0.00    -0.045 C 
BRANCH   4  10
ATOM      5  C   UNL     1       0.212   3.598  -1.467  0.00  0.00    +0.041 C 
ATOM      6  C   UNL     1      -0.957   2.672  -1.119  0.00  0.00    -0.009 C 
ATOM      7  C   UNL     1      -1.643   3.179   0.151  0.00  0.00    -0.078 C 
ATOM      8  C   UNL     1       0.434   4.130   0.962  0.00  0.00    -0.078 C 
ATOM      9  C   UNL     1       1.182   3.650  -0.283  0.00  0.00    -0.009 C 
ATOM     10  N   UNL     1      -0.663   3.183   1.258  0.00  0.00    +0.381 N 
ATOM     11  H   UNL     1      -0.270   2.240   1.358  0.00  0.00    -0.082 HD
BRANCH   5  19
ATOM     12  C   UNL     1       2.739   2.822  -7.044  0.00  0.00    +0.002 A 
ATOM     13  C   UNL     1       3.204   1.551  -6.734  0.00  0.00    +0.001 A 
ATOM     14  C   UNL     1       2.957   1.026  -5.479  0.00  0.00    +0.017 A 
ATOM     15  C   UNL     1       2.257   1.771  -4.562  0.00  0.00    +0.039 A 
ATOM     16  C   UNL     1       1.772   3.067  -4.850  0.00  0.00    +0.078 A 
ATOM     17  C   UNL     1       2.045   3.568  -6.143  0.00  0.00    +0.029 A 
ATOM     18  N   UNL     1       1.106   3.655  -3.834  0.00  0.00    -0.244 NA
ATOM     19  C   UNL     1       0.928   3.069  -2.683  0.00  0.00    +0.082 A 
ATOM     20  S   UNL     1       1.720   1.538  -2.886  0.00  0.00    -0.072 S 
ENDBRANCH   5  19
ENDBRANCH   4  10
ENDBRANCH   1   4
BRANCH   1  21
ATOM     21  C   UNL     1      -1.100   3.540   5.009  0.00  0.00    +0.190 C 
BRANCH  21  22
ATOM     22  O   UNL     1      -0.227   3.223   6.094  0.00  0.00    -0.365 OA
BRANCH  22  23
ATOM     23  C   UNL     1      -0.740   3.584   7.378  0.00  0.00    +0.178 C 
BRANCH  23  24
ATOM     24  C   UNL     1      -1.528   2.432   7.946  0.00  0.00    -0.014 A 
ATOM     25  C   UNL     1      -1.074   1.137   7.781  0.00  0.00    +0.009 A 
ATOM     26  C   UNL     1      -1.793   0.080   8.306  0.00  0.00    +0.039 A 
ATOM     27  C   UNL     1      -2.975   0.317   8.987  0.00  0.00    +0.123 A 
ATOM     28  C   UNL     1      -3.432   1.615   9.146  0.00  0.00    +0.039 A 
ATOM     29  C   UNL     1      -2.708   2.671   8.626  0.00  0.00    +0.009 A 
ATOM     30  F   UNL     1      -3.682  -0.716   9.496  0.00  0.00    -0.205 F 
ENDBRANCH  23  24
BRANCH  23  31
ATOM     31  C   UNL     1       0.404   3.914   8.302  0.00  0.00    -0.014 A 
ATOM     32  C   UNL     1       1.594   3.217   8.204  0.00  0.00    +0.009 A 
ATOM     33  C   UNL     1       2.645   3.522   9.048  0.00  0.00    +0.039 A 
ATOM     34  C   UNL     1       2.502   4.519   9.999  0.00  0.00    +0.123 A 
ATOM     35  C   UNL     1       1.308   5.213  10.099  0.00  0.00    +0.039 A 
ATOM     36  C   UNL     1       0.260   4.910   9.251  0.00  0.00    +0.009 A 
ATOM     37  F   UNL     1       3.528   4.815  10.827  0.00  0.00    -0.205 F 
ENDBRANCH  23  31
ENDBRANCH  22  23
ENDBRANCH  21  22
ENDBRANCH   1  21
TORSDOF 9
