REMARK  Name = ZINC15503158
REMARK  6 active torsions:
REMARK  status: ('A' for Active; 'I' for Inactive)
REMARK    1  A    between atoms: C_1  and  C_2
REMARK    2  A    between atoms: C_2  and  C_19
REMARK    3  A    between atoms: N_5  and  C_9
REMARK    4  A    between atoms: C_9  and  C_10
REMARK    5  A    between atoms: C_10  and  C_12
REMARK    6  A    between atoms: C_10  and  O_18
REMARK                            x       y       z     vdW  Elec       q    Type
REMARK                         _______ _______ _______ _____ _____    ______ ____
ROOT
ATOM      1  C   UNL     1      -0.019   1.526   0.010  0.00  0.00    +0.047 C 
ATOM      2  C   UNL     1       0.002  -0.004   0.002  0.00  0.00    +0.135 C 
ATOM      3  C   UNL     1       0.815  -0.520  -1.169  0.00  0.00    +0.251 C 
ATOM      4  O   UNL     1       0.595  -0.342  -2.348  0.00  0.00    -0.272 OA
ATOM      5  N   UNL     1       1.833  -1.217  -0.627  0.00  0.00    -0.221 N 
ATOM      6  C   UNL     1       1.777  -1.214   0.710  0.00  0.00    +0.310 C 
ATOM      7  O   UNL     1       2.586  -1.776   1.421  0.00  0.00    -0.252 OA
ATOM      8  N   UNL     1       0.724  -0.519   1.178  0.00  0.00    -0.281 N 
ATOM      9  H   UNL     1       0.487  -0.383   2.109  0.00  0.00    +0.152 HD
ENDROOT
BRANCH   2  10
ATOM     10  C   UNL     1      -1.401  -0.551  -0.040  0.00  0.00    -0.015 A 
ATOM     11  C   UNL     1      -2.004  -0.815  -1.256  0.00  0.00    +0.007 A 
ATOM     12  C   UNL     1      -3.291  -1.317  -1.295  0.00  0.00    +0.015 A 
ATOM     13  C   UNL     1      -3.976  -1.557  -0.117  0.00  0.00    +0.018 A 
ATOM     14  C   UNL     1      -3.372  -1.294   1.099  0.00  0.00    +0.015 A 
ATOM     15  C   UNL     1      -2.083  -0.796   1.137  0.00  0.00    +0.007 A 
ATOM     16 BR   UNL     1      -5.737  -2.244  -0.170  0.00  0.00    -0.050 Br
ENDBRANCH   2  10
BRANCH   5  17
ATOM     17  C   UNL     1       2.871  -1.896  -1.406  0.00  0.00    +0.154 C 
BRANCH  17  18
ATOM     18  C   UNL     1       4.037  -0.936  -1.647  0.00  0.00    +0.162 C 
BRANCH  18  19
ATOM     19  C   UNL     1       5.106  -1.634  -2.448  0.00  0.00    -0.018 A 
ATOM     20  C   UNL     1       5.026  -1.665  -3.828  0.00  0.00    +0.006 A 
ATOM     21  C   UNL     1       6.007  -2.306  -4.562  0.00  0.00    +0.000 A 
ATOM     22  C   UNL     1       7.067  -2.915  -3.917  0.00  0.00    +0.000 A 
ATOM     23  C   UNL     1       7.147  -2.883  -2.538  0.00  0.00    +0.000 A 
ATOM     24  C   UNL     1       6.169  -2.238  -1.803  0.00  0.00    +0.006 A 
ENDBRANCH  18  19
BRANCH  18  25
ATOM     25  O   UNL     1       3.572   0.207  -2.368  0.00  0.00    -0.386 OA
ATOM     26  H   UNL     1       3.191  -0.002  -3.232  0.00  0.00    +0.210 HD
ENDBRANCH  18  25
ENDBRANCH  17  18
ENDBRANCH   5  17
TORSDOF 5
