REMARK  Name = ZINC67409080
REMARK  6 active torsions:
REMARK  status: ('A' for Active; 'I' for Inactive)
REMARK    1  A    between atoms: C_1  and  C_2
REMARK    2  A    between atoms: C_2  and  C_4
REMARK    3  A    between atoms: C_2  and  N_12
REMARK    4  A    between atoms: C_4  and  C_5
REMARK    5  A    between atoms: C_8  and  O_11
REMARK    6  A    between atoms: C_19  and  C_22
REMARK                            x       y       z     vdW  Elec       q    Type
REMARK                         _______ _______ _______ _____ _____    ______ ____
ROOT
ATOM      1  N   UNL     1       0.688  -0.477  -1.203  0.00  0.00    -0.296 N 
ATOM      2  C   UNL     1       0.006  -0.608  -2.358  0.00  0.00    +0.303 C 
ATOM      3  O   UNL     1      -1.195  -0.423  -2.380  0.00  0.00    -0.253 OA
ATOM      4  N   UNL     1       0.656  -0.945  -3.490  0.00  0.00    -0.281 N 
ATOM      5  C   UNL     1       2.087  -1.287  -3.468  0.00  0.00    +0.137 C 
ATOM      6  C   UNL     1       2.798  -0.462  -4.547  0.00  0.00    +0.179 C 
ATOM      7  O   UNL     1       2.123  -0.637  -5.795  0.00  0.00    -0.369 OA
ATOM      8  C   UNL     1       0.771  -0.173  -5.798  0.00  0.00    +0.168 C 
ATOM      9  C   UNL     1      -0.045  -0.989  -4.783  0.00  0.00    +0.145 C 
ATOM     10  H   UNL     1       1.632  -0.696  -1.170  0.00  0.00    +0.151 HD
ENDROOT
BRANCH   8  11
ATOM     11  C   UNL     1       0.181  -0.349  -7.174  0.00  0.00    +0.018 A 
ATOM     12  C   UNL     1       0.686  -1.316  -8.024  0.00  0.00    +0.009 A 
ATOM     13  C   UNL     1       0.146  -1.478  -9.286  0.00  0.00    +0.001 A 
ATOM     14  C   UNL     1      -0.899  -0.674  -9.700  0.00  0.00    +0.003 A 
ATOM     15  C   UNL     1      -1.406   0.293  -8.852  0.00  0.00    +0.039 A 
ATOM     16  C   UNL     1      -0.869   0.452  -7.585  0.00  0.00    +0.129 A 
ATOM     17  F   UNL     1      -1.367   1.394  -6.754  0.00  0.00    -0.205 F 
ENDBRANCH   8  11
BRANCH   1  19
ATOM     18  C   UNL     1      -0.016   1.528   0.009  0.00  0.00    +0.028 C 
ATOM     19  C   UNL     1       0.003  -0.002   0.002  0.00  0.00    +0.076 C 
BRANCH  19  20
ATOM     20  C   UNL     1       0.742  -0.509   1.242  0.00  0.00    +0.057 C 
BRANCH  20  21
ATOM     21  C   UNL     1       0.654  -2.013   1.299  0.00  0.00    -0.045 A 
ATOM     22  C   UNL     1      -0.400  -2.618   1.957  0.00  0.00    +0.007 A 
ATOM     23  C   UNL     1      -0.482  -3.996   2.011  0.00  0.00    +0.045 A 
ATOM     24  C   UNL     1       0.494  -4.772   1.405  0.00  0.00    +0.117 A 
ATOM     25  C   UNL     1       1.551  -4.162   0.744  0.00  0.00    +0.045 A 
ATOM     26  C   UNL     1       1.626  -2.784   0.688  0.00  0.00    +0.007 A 
BRANCH  24  27
ATOM     27  O   UNL     1       0.416  -6.128   1.457  0.00  0.00    -0.507 OA
ATOM     28  H   UNL     1      -0.074  -6.522   0.723  0.00  0.00    +0.292 HD
ENDBRANCH  24  27
ENDBRANCH  20  21
ENDBRANCH  19  20
ENDBRANCH   1  19
TORSDOF 5
