REMARK  Name = ZINC36026752
REMARK  7 active torsions:
REMARK  status: ('A' for Active; 'I' for Inactive)
REMARK    1  A    between atoms: C_1  and  C_2
REMARK    2  A    between atoms: C_2  and  C_3
REMARK    3  A    between atoms: C_3  and  N_4
REMARK    4  A    between atoms: C_14  and  C_26
REMARK    5  A    between atoms: N_18  and  C_19
REMARK    6  A    between atoms: C_19  and  C_20
REMARK    7  A    between atoms: C_26  and  C_27
REMARK                            x       y       z     vdW  Elec       q    Type
REMARK                         _______ _______ _______ _____ _____    ______ ____
ROOT
ATOM      1  N   UNL     1       1.763  -1.565  -1.609  0.00  0.00    -0.299 N 
ATOM      2  C   UNL     1       2.366  -2.355  -2.520  0.00  0.00    +0.302 C 
ATOM      3  O   UNL     1       3.080  -1.863  -3.373  0.00  0.00    -0.253 OA
ATOM      4  N   UNL     1       2.177  -3.689  -2.486  0.00  0.00    -0.286 N 
ATOM      5  C   UNL     1       1.224  -4.286  -1.541  0.00  0.00    +0.109 C 
ATOM      6  C   UNL     1       0.238  -5.161  -2.323  0.00  0.00    +0.025 C 
ATOM      7  C   UNL     1       1.015  -6.170  -3.166  0.00  0.00    +0.006 C 
ATOM      8  C   UNL     1       1.921  -5.446  -4.160  0.00  0.00    +0.025 C 
ATOM      9  C   UNL     1       2.917  -4.572  -3.398  0.00  0.00    +0.109 C 
ATOM     10  N   UNL     1       0.071  -7.043  -3.895  0.00  0.00    +0.401 N 
ATOM     11  C   UNL     1      -0.094  -8.198  -2.980  0.00  0.00    +0.023 C 
ATOM     12  C   UNL     1       1.186  -8.237  -2.173  0.00  0.00    +0.201 C 
ATOM     13  O   UNL     1       1.583  -9.178  -1.519  0.00  0.00    -0.277 OA
ATOM     14  N   UNL     1       1.810  -7.048  -2.303  0.00  0.00    -0.309 N 
ATOM     15  H   UNL     1       1.137  -1.948  -0.974  0.00  0.00    +0.150 HD
ATOM     16  H   UNL     1      -0.810  -6.574  -4.039  0.00  0.00    -0.082 HD
ATOM     17  H   UNL     1       0.467  -7.339  -4.775  0.00  0.00    -0.082 HD
ENDROOT
BRANCH   1  18
ATOM     18  C   UNL     1       2.052  -0.130  -1.578  0.00  0.00    +0.105 C 
BRANCH  18  20
ATOM     19  C   UNL     1       1.545   2.029  -0.426  0.00  0.00    +0.005 C 
ATOM     20  C   UNL     1       1.243   0.529  -0.459  0.00  0.00    +0.015 C 
ENDBRANCH  18  20
ENDBRANCH   1  18
BRANCH  14  21
ATOM     21  C   UNL     1       3.085  -6.690  -1.677  0.00  0.00    +0.141 C 
BRANCH  21  22
ATOM     22  C   UNL     1       4.218  -7.314  -2.452  0.00  0.00    -0.030 A 
ATOM     23  C   UNL     1       4.943  -8.352  -1.899  0.00  0.00    +0.005 A 
ATOM     24  C   UNL     1       5.981  -8.925  -2.610  0.00  0.00    +0.000 A 
ATOM     25  C   UNL     1       6.294  -8.459  -3.873  0.00  0.00    +0.000 A 
ATOM     26  C   UNL     1       5.568  -7.421  -4.426  0.00  0.00    +0.000 A 
ATOM     27  C   UNL     1       4.527  -6.851  -3.718  0.00  0.00    +0.005 A 
ENDBRANCH  21  22
ENDBRANCH  14  21
BRANCH  11  28
ATOM     28  C   UNL     1      -0.261  -9.492  -3.780  0.00  0.00    +0.028 C 
BRANCH  28  29
ATOM     29  C   UNL     1      -1.546  -9.434  -4.566  0.00  0.00    -0.048 A 
ATOM     30  C   UNL     1      -2.721  -9.895  -4.005  0.00  0.00    +0.003 A 
ATOM     31  C   UNL     1      -3.900  -9.841  -4.726  0.00  0.00    +0.000 A 
ATOM     32  C   UNL     1      -3.902  -9.326  -6.009  0.00  0.00    +0.000 A 
ATOM     33  C   UNL     1      -2.726  -8.864  -6.570  0.00  0.00    +0.000 A 
ATOM     34  C   UNL     1      -1.548  -8.914  -5.847  0.00  0.00    +0.003 A 
ENDBRANCH  28  29
ENDBRANCH  11  28
TORSDOF 6
