REMARK  Name = ZINC56384118
REMARK  10 active torsions:
REMARK  status: ('A' for Active; 'I' for Inactive)
REMARK    1  A    between atoms: C_1  and  C_2
REMARK    2  A    between atoms: C_2  and  C_4
REMARK    3  A    between atoms: C_2  and  N_13
REMARK    4  A    between atoms: C_4  and  C_5
REMARK    5  A    between atoms: C_5  and  C_6
REMARK    6  A    between atoms: C_9  and  O_12
REMARK    7  A    between atoms: N_16  and  C_17
REMARK    8  A    between atoms: N_16  and  C_18
REMARK    9  A    between atoms: C_18  and  C_20
REMARK   10  A    between atoms: C_18  and  C_21
REMARK                            x       y       z     vdW  Elec       q    Type
REMARK                         _______ _______ _______ _____ _____    ______ ____
ROOT
ATOM      1  N   UNL     1      -1.085  -0.361  -0.456  0.00  0.00    -0.297 N 
ATOM      2  C   UNL     1      -1.971  -0.583  -1.448  0.00  0.00    +0.303 C 
ATOM      3  O   UNL     1      -1.666  -0.340  -2.600  0.00  0.00    -0.253 OA
ATOM      4  N   UNL     1      -3.193  -1.073  -1.163  0.00  0.00    -0.282 N 
ATOM      5  C   UNL     1      -3.560  -1.365   0.225  0.00  0.00    +0.134 C 
ATOM      6  H   UNL     1      -1.328  -0.555   0.463  0.00  0.00    +0.151 HD
ENDROOT
BRANCH   1   8
ATOM      7  C   UNL     1       0.175   1.698  -0.847  0.00  0.00    +0.028 C 
ATOM      8  C   UNL     1       0.244   0.172  -0.766  0.00  0.00    +0.072 C 
BRANCH   8   9
ATOM      9  C   UNL     1       1.226  -0.237   0.333  0.00  0.00    +0.026 C 
BRANCH   9  10
ATOM     10  C   UNL     1       1.390  -1.758   0.331  0.00  0.00    +0.037 C 
BRANCH  10  11
ATOM     11  C   UNL     1       2.357  -2.161   1.414  0.00  0.00    -0.047 A 
ATOM     12  C   UNL     1       3.709  -2.241   1.137  0.00  0.00    +0.007 A 
ATOM     13  C   UNL     1       4.598  -2.611   2.127  0.00  0.00    +0.045 A 
ATOM     14  C   UNL     1       4.134  -2.900   3.402  0.00  0.00    +0.117 A 
ATOM     15  C   UNL     1       2.777  -2.819   3.678  0.00  0.00    +0.045 A 
ATOM     16  C   UNL     1       1.892  -2.444   2.685  0.00  0.00    +0.007 A 
BRANCH  14  17
ATOM     17  O   UNL     1       5.006  -3.264   4.378  0.00  0.00    -0.507 OA
ATOM     18  H   UNL     1       5.357  -2.522   4.889  0.00  0.00    +0.292 HD
ENDBRANCH  14  17
ENDBRANCH  10  11
ENDBRANCH   9  10
ENDBRANCH   8   9
ENDBRANCH   1   8
BRANCH   4  19
ATOM     19  C   UNL     1      -4.156  -1.314  -2.241  0.00  0.00    +0.107 C 
ATOM     20  C   UNL     1      -4.609  -2.775  -2.203  0.00  0.00    +0.033 C 
BRANCH  19  21
ATOM     21  C   UNL     1      -5.349  -0.412  -2.059  0.00  0.00    +0.011 A 
ATOM     22  C   UNL     1      -6.535  -0.925  -1.569  0.00  0.00    +0.046 A 
ATOM     23  C   UNL     1      -7.631  -0.097  -1.402  0.00  0.00    +0.124 A 
ATOM     24  C   UNL     1      -7.540   1.246  -1.726  0.00  0.00    +0.041 A 
ATOM     25  C   UNL     1      -6.354   1.759  -2.216  0.00  0.00    +0.041 A 
ATOM     26  C   UNL     1      -5.256   0.932  -2.378  0.00  0.00    +0.128 A 
ATOM     27  F   UNL     1      -4.096   1.435  -2.853  0.00  0.00    -0.205 F 
ATOM     28  F   UNL     1      -8.791  -0.599  -0.923  0.00  0.00    -0.205 F 
ENDBRANCH  19  21
ENDBRANCH   4  19
TORSDOF 7
