REMARK  Name = ZINC03482082
REMARK  9 active torsions:
REMARK  status: ('A' for Active; 'I' for Inactive)
REMARK    1  A    between atoms: C_1  and  C_2
REMARK    2  A    between atoms: C_8  and  C_16
REMARK    3  A    between atoms: C_16  and  O_18
REMARK    4  A    between atoms: O_18  and  C_19
REMARK    5  A    between atoms: C_19  and  C_21
REMARK    6  A    between atoms: C_19  and  C_22
REMARK    7  A    between atoms: N_24  and  C_25
REMARK    8  A    between atoms: C_25  and  C_26
REMARK    9  A    between atoms: N_28  and  C_29
REMARK                            x       y       z     vdW  Elec       q    Type
REMARK                         _______ _______ _______ _____ _____    ______ ____
ROOT
ATOM      1  C   UNL     1       4.722  -1.112   3.150  0.00  0.00    +0.259 C 
ATOM      2  C   UNL     1       5.518  -2.086   4.021  0.00  0.00    +0.062 C 
ENDROOT
BRANCH   1   3
ATOM      3  C   UNL     1       5.659  -0.395   2.212  0.00  0.00    +0.254 C 
ATOM      4  O   UNL     1       5.511  -0.493   1.013  0.00  0.00    -0.272 OA
ATOM      5  N   UNL     1       6.663   0.357   2.708  0.00  0.00    -0.304 N 
ATOM      6  H   UNL     1       6.782   0.436   3.667  0.00  0.00    +0.149 HD
BRANCH   5   7
ATOM      7  C   UNL     1       7.574   1.054   1.797  0.00  0.00    +0.200 C 
BRANCH   7   8
ATOM      8  C   UNL     1       8.598   1.817   2.597  0.00  0.00    +0.234 C 
ATOM      9  O   UNL     1       8.569   1.782   3.809  0.00  0.00    -0.274 OA
ATOM     10  N   UNL     1       9.545   2.539   1.966  0.00  0.00    -0.282 N 
ATOM     11  H   UNL     1       9.608   2.515   0.999  0.00  0.00    +0.155 HD
BRANCH  10  12
ATOM     12  C   UNL     1      10.439   3.323   2.708  0.00  0.00    +0.072 A 
ATOM     13  C   UNL     1      10.874   2.891   3.954  0.00  0.00    +0.029 A 
ATOM     14  C   UNL     1      11.755   3.664   4.685  0.00  0.00    +0.043 A 
ATOM     15  C   UNL     1      12.205   4.871   4.177  0.00  0.00    +0.161 A 
ATOM     16  C   UNL     1      11.774   5.307   2.934  0.00  0.00    +0.195 A 
ATOM     17  C   UNL     1      10.896   4.531   2.195  0.00  0.00    +0.182 A 
ATOM     18  F   UNL     1      10.479   4.952   0.981  0.00  0.00    -0.200 F 
ATOM     19  F   UNL     1      12.214   6.485   2.440  0.00  0.00    -0.199 F 
ATOM     20  F   UNL     1      13.067   5.625   4.895  0.00  0.00    -0.202 F 
ENDBRANCH  10  12
ENDBRANCH   7   8
ENDBRANCH   5   7
ENDBRANCH   1   3
BRANCH   1  21
ATOM     21  O   UNL     1       3.751  -1.835   2.390  0.00  0.00    -0.449 OA
BRANCH  21  22
ATOM     22  C   UNL     1       2.538  -2.005   2.952  0.00  0.00    +0.341 C 
ATOM     23  O   UNL     1       2.311  -1.550   4.055  0.00  0.00    -0.245 OA
BRANCH  22  30
ATOM     24  C   UNL     1      -0.007   1.446  -0.002  0.00  0.00    +0.008 C 
ATOM     25  C   UNL     1       0.025  -0.084  -0.006  0.00  0.00    -0.009 C 
ATOM     26  C   UNL     1      -1.407  -0.631   0.017  0.00  0.00    +0.010 C 
ATOM     27  C   UNL     1      -1.353  -2.135  -0.238  0.00  0.00    +0.056 C 
ATOM     28  C   UNL     1      -0.376  -2.798   0.701  0.00  0.00    +0.046 A 
ATOM     29  C   UNL     1       0.601  -2.078   1.375  0.00  0.00    -0.011 A 
ATOM     30  C   UNL     1       1.484  -2.743   2.225  0.00  0.00    +0.073 A 
ATOM     31  C   UNL     1       1.346  -4.144   2.373  0.00  0.00    +0.015 A 
ATOM     32  C   UNL     1       2.193  -4.883   3.208  0.00  0.00    +0.011 A 
ATOM     33  C   UNL     1       2.021  -6.230   3.322  0.00  0.00    +0.001 A 
ATOM     34  C   UNL     1       1.012  -6.883   2.616  0.00  0.00    +0.002 A 
ATOM     35  C   UNL     1       0.172  -6.196   1.796  0.00  0.00    +0.028 A 
ATOM     36  C   UNL     1       0.319  -4.804   1.653  0.00  0.00    +0.072 A 
ATOM     37  N   UNL     1      -0.486  -4.103   0.856  0.00  0.00    -0.251 NA
ATOM     38  C   UNL     1       0.754  -0.586   1.239  0.00  0.00    +0.041 C 
ENDBRANCH  22  30
ENDBRANCH  21  22
ENDBRANCH   1  21
TORSDOF 7
