REMARK  Name = ZINC63258542
REMARK  5 active torsions:
REMARK  status: ('A' for Active; 'I' for Inactive)
REMARK    1  A    between atoms: C_1  and  C_2
REMARK    2  A    between atoms: C_3  and  C_24
REMARK    3  A    between atoms: C_10  and  C_12
REMARK    4  A    between atoms: C_12  and  C_13
REMARK    5  A    between atoms: C_13  and  C_14
REMARK                            x       y       z     vdW  Elec       q    Type
REMARK                         _______ _______ _______ _____ _____    ______ ____
ROOT
ATOM      1  C   UNL     1      -0.030   1.503   0.011  0.00  0.00    +0.045 C 
ATOM      2  C   UNL     1      -0.009  -0.004   0.003  0.00  0.00    -0.026 A 
ATOM      3  C   UNL     1      -0.008  -0.676  -1.159  0.00  0.00    -0.008 A 
ATOM      4  S   UNL     1       0.020  -2.384  -0.647  0.00  0.00    -0.073 S 
ATOM      5  C   UNL     1       0.029  -2.144   1.111  0.00  0.00    +0.116 A 
ATOM      6  C   UNL     1       0.015  -0.744   1.250  0.00  0.00    +0.075 A 
ATOM      7  C   UNL     1       0.024  -0.256   2.598  0.00  0.00    +0.260 A 
ATOM      8  O   UNL     1       0.009   0.942   2.822  0.00  0.00    -0.267 OA
ATOM      9  N   UNL     1       0.047  -1.141   3.611  0.00  0.00    -0.310 N 
ATOM     10  C   UNL     1       0.064  -2.479   3.380  0.00  0.00    +0.111 A 
ATOM     11  N   UNL     1       0.047  -2.956   2.164  0.00  0.00    -0.227 NA
ATOM     12  C   UNL     1      -0.026  -0.121  -2.560  0.00  0.00    +0.052 C 
ATOM     13  H   UNL     1       0.053  -0.817   4.525  0.00  0.00    +0.170 HD
ENDROOT
BRANCH  10  14
ATOM     14  C   UNL     1       0.090  -3.432   4.548  0.00  0.00    +0.083 C 
BRANCH  14  15
ATOM     15  C   UNL     1       0.105  -4.872   4.031  0.00  0.00    +0.103 C 
BRANCH  15  16
ATOM     16  C   UNL     1       0.132  -5.824   5.198  0.00  0.00    +0.216 C 
ATOM     17  O   UNL     1       0.230  -5.396   6.329  0.00  0.00    -0.276 OA
ATOM     18  N   UNL     1       0.047  -7.153   4.986  0.00  0.00    -0.301 N 
ATOM     19  C   UNL     1      -0.046  -8.081   6.121  0.00  0.00    +0.108 C 
ATOM     20  C   UNL     1      -1.394  -7.895   6.806  0.00  0.00    +0.019 C 
ATOM     21  C   UNL     1      -2.499  -8.487   5.916  0.00  0.00    +0.002 C 
ATOM     22  C   UNL     1      -2.809  -7.519   4.780  0.00  0.00    +0.000 C 
ATOM     23  C   UNL     1      -2.405  -8.123   3.423  0.00  0.00    +0.002 C 
ATOM     24  C   UNL     1      -1.026  -8.774   3.539  0.00  0.00    +0.019 C 
ATOM     25  C   UNL     1       0.042  -7.681   3.632  0.00  0.00    +0.108 C 
ENDBRANCH  15  16
ENDBRANCH  14  15
ENDBRANCH  10  14
TORSDOF 3
