REMARK  Name = ZINC36799717
REMARK  16 active torsions:
REMARK  status: ('A' for Active; 'I' for Inactive)
REMARK    1  A    between atoms: C_1  and  C_2
REMARK    2  A    between atoms: C_2  and  C_3
REMARK    3  A    between atoms: C_3  and  C_4
REMARK    4  A    between atoms: C_4  and  C_5
REMARK    5  A    between atoms: C_5  and  N_6
REMARK    6  A    between atoms: C_15  and  C_17
REMARK    7  A    between atoms: N_19  and  C_20
REMARK    8  A    between atoms: N_19  and  C_24
REMARK    9  A    between atoms: C_20  and  C_21
REMARK   10  A    between atoms: C_21  and  C_22
REMARK   11  A    between atoms: C_21  and  C_23
REMARK   12  A    between atoms: C_25  and  N_37
REMARK   13  A    between atoms: N_26  and  C_33
REMARK   14  A    between atoms: C_33  and  C_34
REMARK   15  A    between atoms: C_34  and  C_35
REMARK   16  A    between atoms: C_34  and  C_36
REMARK                            x       y       z     vdW  Elec       q    Type
REMARK                         _______ _______ _______ _____ _____    ______ ____
ROOT
ATOM      1  C   UNL     1       3.963  -6.560  -0.952  0.00  0.00    +0.272 C 
ATOM      2  O   UNL     1       4.188  -7.745  -0.791  0.00  0.00    -0.268 OA
ATOM      3  N   UNL     1       4.934  -5.653  -0.724  0.00  0.00    -0.259 N 
ENDROOT
BRANCH   1  13
ATOM      4  N   UNL     1       1.207  -4.371  -1.825  0.00  0.00    -0.228 N 
ATOM      5  C   UNL     1       0.172  -5.146  -2.209  0.00  0.00    +0.275 A 
ATOM      6  O   UNL     1      -0.884  -4.648  -2.556  0.00  0.00    -0.266 OA
ATOM      7  C   UNL     1       0.348  -6.605  -2.199  0.00  0.00    +0.050 A 
ATOM      8  C   UNL     1      -0.657  -7.490  -2.576  0.00  0.00    +0.014 A 
ATOM      9  C   UNL     1      -0.412  -8.846  -2.539  0.00  0.00    +0.001 A 
ATOM     10  C   UNL     1       0.823  -9.333  -2.131  0.00  0.00    +0.001 A 
ATOM     11  C   UNL     1       1.832  -8.473  -1.753  0.00  0.00    +0.011 A 
ATOM     12  C   UNL     1       1.605  -7.101  -1.784  0.00  0.00    +0.020 A 
ATOM     13  C   UNL     1       2.628  -6.115  -1.397  0.00  0.00    +0.154 A 
ATOM     14  N   UNL     1       2.340  -4.838  -1.456  0.00  0.00    -0.163 NA
BRANCH   4  15
ATOM     15  C   UNL     1       1.027  -2.917  -1.837  0.00  0.00    +0.147 C 
BRANCH  15  16
ATOM     16  C   UNL     1       0.500  -2.458  -0.476  0.00  0.00    +0.023 C 
BRANCH  16  17
ATOM     17  C   UNL     1       0.312  -0.940  -0.488  0.00  0.00    +0.002 C 
BRANCH  17  19
ATOM     18  C   UNL     1      -0.403   1.038   0.861  0.00  0.00    +0.004 C 
ATOM     19  C   UNL     1      -0.215  -0.480   0.873  0.00  0.00    -0.003 C 
ENDBRANCH  17  19
ENDBRANCH  16  17
ENDBRANCH  15  16
ENDBRANCH   4  15
ENDBRANCH   1  13
BRANCH   3  20
ATOM     20  C   UNL     1       6.236  -6.082  -0.394  0.00  0.00    +0.140 A 
ATOM     21  C   UNL     1       6.464  -6.815   0.753  0.00  0.00    +0.127 A 
ATOM     22  N   UNL     1       7.745  -7.220   1.047  0.00  0.00    -0.280 N 
ATOM     23  C   UNL     1       8.764  -6.905   0.227  0.00  0.00    +0.331 A 
ATOM     24  O   UNL     1       9.890  -7.273   0.505  0.00  0.00    -0.246 OA
ATOM     25  N   UNL     1       8.561  -6.192  -0.895  0.00  0.00    -0.273 N 
ATOM     26  H   UNL     1       9.313  -5.978  -1.469  0.00  0.00    +0.173 HD
ATOM     27  C   UNL     1       7.325  -5.776  -1.232  0.00  0.00    +0.277 A 
ATOM     28  O   UNL     1       7.151  -5.134  -2.254  0.00  0.00    -0.266 OA
BRANCH  21  29
ATOM     29  N   UNL     1       5.423  -7.137   1.591  0.00  0.00    -0.343 N 
ATOM     30  H   UNL     1       4.513  -6.911   1.343  0.00  0.00    +0.144 HD
ATOM     31  H   UNL     1       5.599  -7.590   2.430  0.00  0.00    +0.144 HD
ENDBRANCH  21  29
BRANCH  22  32
ATOM     32  C   UNL     1       8.002  -7.998   2.262  0.00  0.00    +0.131 C 
BRANCH  32  33
ATOM     33  C   UNL     1       7.875  -9.490   1.948  0.00  0.00    +0.003 C 
ATOM     34  C   UNL     1       8.264 -10.306   3.182  0.00  0.00    +0.009 C 
ATOM     35  C   UNL     1       6.429  -9.809   1.561  0.00  0.00    +0.009 C 
ENDBRANCH  32  33
ENDBRANCH  22  32
ENDBRANCH   3  20
BRANCH   3  36
ATOM     36  C   UNL     1       4.637  -4.222  -0.819  0.00  0.00    +0.117 C 
BRANCH  36  37
ATOM     37  C   UNL     1       4.022  -3.740   0.497  0.00  0.00    +0.001 C 
ATOM     38  C   UNL     1       5.039  -3.912   1.627  0.00  0.00    +0.009 C 
ATOM     39  C   UNL     1       3.643  -2.264   0.372  0.00  0.00    +0.009 C 
ENDBRANCH  36  37
ENDBRANCH   3  36
TORSDOF 11
