REMARK  Name = ZINC64623135
REMARK  4 active torsions:
REMARK  status: ('A' for Active; 'I' for Inactive)
REMARK    1  A    between atoms: C_1  and  O_2
REMARK    2  A    between atoms: O_2  and  C_3
REMARK    3  A    between atoms: C_6  and  C_9
REMARK    4  A    between atoms: N_27  and  C_28
REMARK                            x       y       z     vdW  Elec       q    Type
REMARK                         _______ _______ _______ _____ _____    ______ ____
ROOT
ATOM      1  C   UNL     1       3.582  -2.330   4.285  0.00  0.00    +0.134 C 
ATOM      2  C   UNL     1       2.425  -2.342   5.290  0.00  0.00    +0.131 C 
ATOM      3  C   UNL     1       2.728  -3.453   6.288  0.00  0.00    -0.035 C 
ATOM      4  C   UNL     1       2.721  -2.889   7.490  0.00  0.00    +0.001 A 
ATOM      5  C   UNL     1       2.878  -3.457   8.839  0.00  0.00    +0.030 A 
ATOM      6  C   UNL     1       2.829  -2.573   9.871  0.00  0.00    +0.042 A 
ATOM      7  C   UNL     1       2.640  -1.197   9.698  0.00  0.00    +0.022 A 
ATOM      8  C   UNL     1       2.481  -0.591   8.495  0.00  0.00    +0.027 A 
ATOM      9  C   UNL     1       2.512  -1.417   7.334  0.00  0.00    +0.043 A 
ATOM     10  N   UNL     1       2.361  -1.098   6.060  0.00  0.00    -0.375 N 
ATOM     11 CL   UNL     1       3.008  -3.182  11.487  0.00  0.00    -0.084 Cl
ATOM     12  C   UNL     1       3.039  -4.865   5.859  0.00  0.00    +0.052 C 
ATOM     13  C   UNL     1       4.141  -4.770   4.787  0.00  0.00    +0.114 C 
ATOM     14  N   UNL     1       3.799  -3.712   3.830  0.00  0.00    -0.276 N 
ATOM     15  C   UNL     1       3.682  -4.010   2.521  0.00  0.00    +0.307 C 
ATOM     16  O   UNL     1       3.581  -3.118   1.701  0.00  0.00    -0.252 OA
ATOM     17  N   UNL     1       3.677  -5.297   2.120  0.00  0.00    -0.269 N 
ATOM     18  H   UNL     1       3.661  -6.010   2.778  0.00  0.00    +0.156 HD
ATOM     19  H   UNL     1       2.236  -0.209   5.693  0.00  0.00    +0.160 HD
ENDROOT
BRANCH  17  20
ATOM     20  C   UNL     1       3.694  -5.606   0.753  0.00  0.00    +0.038 A 
ATOM     21  C   UNL     1       3.099  -4.746  -0.160  0.00  0.00    +0.027 A 
ATOM     22  C   UNL     1       3.116  -5.048  -1.508  0.00  0.00    +0.051 A 
ATOM     23  C   UNL     1       3.727  -6.210  -1.953  0.00  0.00    +0.166 A 
ATOM     24  C   UNL     1       4.324  -7.074  -1.039  0.00  0.00    +0.168 A 
ATOM     25  C   UNL     1       4.312  -6.768   0.312  0.00  0.00    +0.073 A 
ATOM     26  O   UNL     1       4.850  -8.134  -1.720  0.00  0.00    -0.453 OA
ATOM     27  C   UNL     1       4.213  -8.116  -3.011  0.00  0.00    +0.466 C 
ATOM     28  O   UNL     1       3.878  -6.729  -3.207  0.00  0.00    -0.453 OA
ENDBRANCH  17  20
BRANCH   1  32
ATOM     29  C   UNL     1       2.576   0.148   0.952  0.00  0.00    +0.120 A 
ATOM     30  C   UNL     1       3.818   0.270   1.559  0.00  0.00    +0.046 A 
ATOM     31  C   UNL     1       4.140  -0.532   2.637  0.00  0.00    +0.009 A 
ATOM     32  C   UNL     1       3.227  -1.456   3.110  0.00  0.00    -0.024 A 
ATOM     33  C   UNL     1       1.990  -1.580   2.506  0.00  0.00    +0.009 A 
ATOM     34  C   UNL     1       1.660  -0.776   1.432  0.00  0.00    +0.046 A 
BRANCH  29  36
ATOM     35  C   UNL     1       3.249   1.865  -0.548  0.00  0.00    +0.277 C 
ATOM     36  O   UNL     1       2.256   0.936  -0.108  0.00  0.00    -0.495 OA
ENDBRANCH  29  36
ENDBRANCH   1  32
TORSDOF 3
