REMARK  Name = ZINC20480980
REMARK  4 active torsions:
REMARK  status: ('A' for Active; 'I' for Inactive)
REMARK    1  A    between atoms: C_1  and  N_2
REMARK    2  A    between atoms: C_6  and  C_12
REMARK    3  A    between atoms: C_12  and  C_14
REMARK    4  A    between atoms: C_12  and  N_21
REMARK                            x       y       z     vdW  Elec       q    Type
REMARK                         _______ _______ _______ _____ _____    ______ ____
ROOT
ATOM      1  C   UNL     1      -0.013   1.086   0.008  0.00  0.00    -0.012 C 
ENDROOT
BRANCH   1   7
ATOM      2  C   UNL     1       5.992   4.104  -0.306  0.00  0.00    +0.138 C 
ATOM      3  N   UNL     1       5.377   2.823   0.052  0.00  0.00    -0.274 N 
ATOM      4  C   UNL     1       4.007   2.571  -0.023  0.00  0.00    +0.040 A 
ATOM      5  C   UNL     1       2.950   3.389  -0.419  0.00  0.00    +0.024 A 
ATOM      6  C   UNL     1       1.659   2.903  -0.413  0.00  0.00    +0.004 A 
ATOM      7  C   UNL     1       1.401   1.607  -0.003  0.00  0.00    -0.057 A 
ATOM      8  C   UNL     1       2.445   0.790   0.393  0.00  0.00    +0.008 A 
ATOM      9  C   UNL     1       3.736   1.270   0.381  0.00  0.00    -0.017 A 
ATOM     10  C   UNL     1       5.066   0.651   0.743  0.00  0.00    +0.133 C 
ATOM     11  C   UNL     1       6.068   1.757   0.489  0.00  0.00    +0.224 C 
ATOM     12  O   UNL     1       7.268   1.692   0.649  0.00  0.00    -0.275 OA
ENDBRANCH   1   7
BRANCH   1  13
ATOM     13  C   UNL     1      -0.718   1.572   1.248  0.00  0.00    -0.038 A 
ATOM     14  C   UNL     1      -0.865   0.736   2.345  0.00  0.00    +0.020 A 
ATOM     15  C   UNL     1      -1.518   1.228   3.466  0.00  0.00    +0.036 A 
ATOM     16  C   UNL     1      -2.004   2.523   3.449  0.00  0.00    +0.126 A 
ATOM     17  N   UNL     1      -1.850   3.287   2.385  0.00  0.00    -0.262 NA
ATOM     18  C   UNL     1      -1.231   2.854   1.304  0.00  0.00    +0.113 A 
ATOM     19 BR   UNL     1      -1.745   0.140   4.996  0.00  0.00    -0.049 Br
ENDBRANCH   1  13
BRANCH   1  20
ATOM     20  N   UNL     1      -0.723   1.572  -1.182  0.00  0.00    +0.385 N 
ATOM     21  H   UNL     1      -1.755   1.192  -1.174  0.00  0.00    -0.089 HD
ATOM     22  H   UNL     1      -0.208   1.218  -2.087  0.00  0.00    -0.089 HD
ATOM     23  H   UNL     1      -0.738   2.672  -1.176  0.00  0.00    -0.089 HD
ENDBRANCH   1  20
TORSDOF 3
