REMARK  Name = ZINC67368446
REMARK  4 active torsions:
REMARK  status: ('A' for Active; 'I' for Inactive)
REMARK    1  A    between atoms: C_1  and  C_2
REMARK    2  A    between atoms: C_4  and  C_22
REMARK    3  A    between atoms: C_10  and  C_13
REMARK    4  A    between atoms: C_13  and  N_14
REMARK                            x       y       z     vdW  Elec       q    Type
REMARK                         _______ _______ _______ _____ _____    ______ ____
ROOT
ATOM      1  C   UNL     1      -0.018   1.503   0.010  0.00  0.00    +0.067 C 
ATOM      2  C   UNL     1       0.002  -0.004   0.002  0.00  0.00    +0.061 A 
ATOM      3  C   UNL     1       0.008  -0.817  -1.137  0.00  0.00    +0.048 A 
ATOM      4  C   UNL     1       0.028  -2.107  -0.730  0.00  0.00    +0.044 A 
ATOM      5  N   UNL     1       0.035  -2.108   0.628  0.00  0.00    -0.219 N 
ATOM      6  N   UNL     1       0.023  -0.775   1.058  0.00  0.00    -0.170 NA
ATOM      7  C   UNL     1       0.054  -3.239   1.451  0.00  0.00    +0.154 A 
ATOM      8  C   UNL     1       0.564  -3.144   2.740  0.00  0.00    +0.048 A 
ATOM      9  C   UNL     1       0.577  -4.271   3.543  0.00  0.00    +0.010 A 
ATOM     10  C   UNL     1       0.078  -5.458   3.027  0.00  0.00    -0.012 A 
ATOM     11  C   UNL     1      -0.414  -5.480   1.736  0.00  0.00    +0.118 A 
ATOM     12  N   UNL     1      -0.418  -4.388   0.996  0.00  0.00    -0.236 NA
ATOM     13  C   UNL     1       0.041  -3.321  -1.621  0.00  0.00    +0.066 C 
ENDROOT
BRANCH  10  14
ATOM     14  C   UNL     1       0.072  -6.711   3.865  0.00  0.00    +0.141 C 
BRANCH  14  15
ATOM     15  N   UNL     1      -1.186  -6.794   4.610  0.00  0.00    -0.309 N 
ATOM     16  C   UNL     1      -1.421  -7.866   5.454  0.00  0.00    +0.215 A 
ATOM     17  N   UNL     1      -0.495  -8.805   5.580  0.00  0.00    -0.222 NA
ATOM     18  C   UNL     1      -0.688  -9.843   6.377  0.00  0.00    +0.131 A 
ATOM     19  C   UNL     1      -1.876  -9.940   7.086  0.00  0.00    +0.054 A 
ATOM     20  C   UNL     1      -2.824  -8.939   6.931  0.00  0.00    +0.131 A 
ATOM     21  N   UNL     1      -2.565  -7.926   6.120  0.00  0.00    -0.222 NA
ATOM     22 BR   UNL     1      -2.198 -11.405   8.238  0.00  0.00    -0.047 Br
ATOM     23  H   UNL     1      -1.855  -6.098   4.513  0.00  0.00    +0.149 HD
ENDBRANCH  14  15
ENDBRANCH  10  14
TORSDOF 2
