REMARK  Name = ZINC38972187
REMARK  16 active torsions:
REMARK  status: ('A' for Active; 'I' for Inactive)
REMARK    1  A    between atoms: C_1  and  C_2
REMARK    2  A    between atoms: C_3  and  C_37
REMARK    3  A    between atoms: C_4  and  C_14
REMARK    4  A    between atoms: C_7  and  O_9
REMARK    5  A    between atoms: O_9  and  C_10
REMARK    6  A    between atoms: C_11  and  C_13
REMARK    7  A    between atoms: C_16  and  N_24
REMARK    8  A    between atoms: C_19  and  O_20
REMARK    9  A    between atoms: O_20  and  C_21
REMARK   10  A    between atoms: N_26  and  C_27
REMARK   11  A    between atoms: C_27  and  C_29
REMARK   12  A    between atoms: C_27  and  C_30
REMARK   13  A    between atoms: C_30  and  C_31
REMARK   14  A    between atoms: C_30  and  C_32
REMARK   15  A    between atoms: C_30  and  C_33
REMARK   16  A    between atoms: N_34  and  C_35
REMARK                            x       y       z     vdW  Elec       q    Type
REMARK                         _______ _______ _______ _____ _____    ______ ____
ROOT
ATOM      1  C   UNL     1      -2.057  -2.727  -1.308  0.00  0.00    +0.009 A 
ATOM      2  C   UNL     1      -1.506  -2.307  -2.503  0.00  0.00    +0.034 A 
ATOM      3  C   UNL     1      -1.775  -3.003  -3.674  0.00  0.00    +0.042 A 
ATOM      4  C   UNL     1      -2.598  -4.122  -3.643  0.00  0.00    +0.029 A 
ATOM      5  C   UNL     1      -3.148  -4.540  -2.447  0.00  0.00    +0.048 A 
ATOM      6  C   UNL     1      -2.874  -3.847  -1.277  0.00  0.00    +0.131 A 
ENDROOT
BRANCH   1  10
ATOM      7  C   UNL     1      -1.819   1.883  -0.235  0.00  0.00    +0.066 C 
ATOM      8  C   UNL     1      -1.354   0.459  -0.071  0.00  0.00    +0.053 C 
ATOM      9  C   UNL     1      -2.262  -0.547  -0.208  0.00  0.00    +0.062 C 
ATOM     10  C   UNL     1      -1.765  -1.971  -0.038  0.00  0.00    +0.103 C 
ATOM     11  C   UNL     1      -0.287  -2.124   0.272  0.00  0.00    +0.070 C 
ATOM     12  C   UNL     1       0.282  -3.354   0.447  0.00  0.00    +0.338 C 
ATOM     13  O   UNL     1      -0.496  -4.452   0.523  0.00  0.00    -0.245 OA
ATOM     14  C   UNL     1       0.468  -0.950   0.369  0.00  0.00    +0.049 C 
ATOM     15  N   UNL     1      -0.074   0.232   0.196  0.00  0.00    -0.256 NA
ATOM     16  C   UNL     1       1.940  -1.047   0.674  0.00  0.00    +0.066 C 
BRANCH  12  17
ATOM     17  O   UNL     1       1.622  -3.470   0.543  0.00  0.00    -0.465 OA
ATOM     18  C   UNL     1       2.148  -4.785   0.725  0.00  0.00    +0.280 C 
ENDBRANCH  12  17
BRANCH   9  19
ATOM     19  C   UNL     1      -3.636  -0.271  -0.501  0.00  0.00    +0.098 C 
ATOM     20  N   UNL     1      -4.726  -0.052  -0.734  0.00  0.00    -0.191 NA
ENDBRANCH   9  19
ENDBRANCH   1  10
BRANCH   3  21
ATOM     21  N   UNL     1      -1.217  -2.578  -4.886  0.00  0.00    -0.325 N 
ATOM     22  C   UNL     1      -1.811  -2.927  -6.077  0.00  0.00    +0.211 C 
ATOM     23  N   UNL     1      -2.776  -3.801  -6.092  0.00  0.00    -0.248 NA
ATOM     24  N   UNL     1      -1.385  -2.350  -7.256  0.00  0.00    -0.263 N 
ATOM     25  H   UNL     1      -0.412  -2.037  -4.886  0.00  0.00    +0.169 HD
ATOM     26  H   UNL     1      -1.870  -2.514  -8.080  0.00  0.00    +0.181 HD
BRANCH  23  27
ATOM     27  C   UNL     1      -3.271  -4.325  -7.367  0.00  0.00    +0.111 C 
ATOM     28  C   UNL     1      -4.696  -3.822  -7.607  0.00  0.00    +0.033 C 
BRANCH  27  29
ATOM     29  C   UNL     1      -3.270  -5.854  -7.326  0.00  0.00    -0.016 C 
ATOM     30  C   UNL     1      -4.178  -6.334  -6.191  0.00  0.00    +0.013 C 
ATOM     31  C   UNL     1      -3.787  -6.401  -8.658  0.00  0.00    +0.013 C 
ATOM     32  C   UNL     1      -1.845  -6.357  -7.086  0.00  0.00    +0.013 C 
ENDBRANCH  27  29
ENDBRANCH  23  27
BRANCH  24  33
ATOM     33  C   UNL     1      -0.287  -1.556  -7.263  0.00  0.00    +0.184 C 
ATOM     34  N   UNL     1       0.633  -0.889  -7.270  0.00  0.00    -0.171 NA
ENDBRANCH  24  33
ENDBRANCH   3  21
BRANCH   6  35
ATOM     35  O   UNL     1      -3.412  -4.263  -0.099  0.00  0.00    -0.434 OA
BRANCH  35  36
ATOM     36  C   UNL     1      -4.244  -5.424  -0.140  0.00  0.00    +0.541 C 
ATOM     37  F   UNL     1      -5.332  -5.188  -0.988  0.00  0.00    -0.166 F 
ATOM     38  F   UNL     1      -3.505  -6.511  -0.621  0.00  0.00    -0.166 F 
ENDBRANCH  35  36
ENDBRANCH   6  35
TORSDOF 9
