REMARK  Name = ZINC43757374
REMARK  11 active torsions:
REMARK  status: ('A' for Active; 'I' for Inactive)
REMARK    1  A    between atoms: C_1  and  C_2
REMARK    2  A    between atoms: C_2  and  O_4
REMARK    3  A    between atoms: O_4  and  C_5
REMARK    4  A    between atoms: C_5  and  C_6
REMARK    5  A    between atoms: C_6  and  C_8
REMARK    6  A    between atoms: C_6  and  O_36
REMARK    7  A    between atoms: C_8  and  O_35
REMARK    8  A    between atoms: C_13  and  C_34
REMARK    9  A    between atoms: C_15  and  O_33
REMARK   10  A    between atoms: C_25  and  C_32
REMARK   11  A    between atoms: C_28  and  O_31
REMARK                            x       y       z     vdW  Elec       q    Type
REMARK                         _______ _______ _______ _____ _____    ______ ____
ROOT
ATOM      1  C   UNL     1      -1.692  -3.042  -0.285  0.00  0.00    +0.101 C 
ATOM      2  C   UNL     1      -1.305  -3.647  -1.650  0.00  0.00    +0.038 C 
ATOM      3  C   UNL     1      -2.283  -4.815  -1.905  0.00  0.00    +0.007 C 
ATOM      4  C   UNL     1      -3.530  -4.451  -1.046  0.00  0.00    +0.001 C 
ATOM      5  C   UNL     1      -2.877  -3.875   0.222  0.00  0.00    +0.005 C 
ATOM      6  C   UNL     1      -3.835  -3.069   1.069  0.00  0.00    +0.041 C 
ATOM      7  C   UNL     1      -4.520  -1.982   0.242  0.00  0.00    +0.119 C 
ATOM      8  C   UNL     1      -5.287  -2.654  -0.903  0.00  0.00    +0.027 C 
ATOM      9  C   UNL     1      -4.295  -3.374  -1.819  0.00  0.00    -0.001 C 
ATOM     10  C   UNL     1      -5.032  -4.031  -2.989  0.00  0.00    +0.004 C 
ATOM     11  C   UNL     1      -5.785  -2.965  -3.787  0.00  0.00    +0.004 C 
ATOM     12  C   UNL     1      -6.799  -2.271  -2.873  0.00  0.00    -0.002 C 
ATOM     13  C   UNL     1      -6.050  -1.584  -1.687  0.00  0.00    -0.024 C 
ATOM     14  C   UNL     1      -5.063  -0.548  -2.229  0.00  0.00    +0.010 C 
ATOM     15  C   UNL     1      -5.825   0.522  -3.012  0.00  0.00    +0.032 C 
ATOM     16  C   UNL     1      -6.570  -0.132  -4.178  0.00  0.00    +0.115 C 
ATOM     17  C   UNL     1      -7.562  -1.212  -3.672  0.00  0.00    +0.035 C 
ATOM     18  C   UNL     1      -7.057  -0.895  -0.763  0.00  0.00    +0.012 C 
ATOM     19  C   UNL     1      -2.342  -5.029   1.073  0.00  0.00    +0.014 C 
ENDROOT
BRANCH  16  20
ATOM     20  O   UNL     1      -7.282   0.869  -4.909  0.00  0.00    -0.392 OA
ATOM     21  H   UNL     1      -6.718   1.559  -5.283  0.00  0.00    +0.210 HD
ENDBRANCH  16  20
BRANCH   7  22
ATOM     22  O   UNL     1      -5.427  -1.250   1.069  0.00  0.00    -0.391 OA
ATOM     23  H   UNL     1      -5.007  -0.811   1.821  0.00  0.00    +0.210 HD
ENDBRANCH   7  22
BRANCH   1  24
ATOM     24  O   UNL     1      -0.596  -3.138   0.627  0.00  0.00    -0.385 OA
ATOM     25  H   UNL     1       0.189  -2.644   0.351  0.00  0.00    +0.210 HD
ENDBRANCH   1  24
BRANCH   1  26
ATOM     26  C   UNL     1      -2.110  -1.580  -0.455  0.00  0.00    +0.184 C 
BRANCH  26  27
ATOM     27  O   UNL     1      -2.486  -1.042   0.814  0.00  0.00    -0.386 OA
ATOM     28  H   UNL     1      -1.780  -1.062   1.475  0.00  0.00    +0.210 HD
ENDBRANCH  26  27
BRANCH  26  29
ATOM     29  C   UNL     1      -0.937  -0.777  -1.022  0.00  0.00    +0.266 C 
BRANCH  29  30
ATOM     30  O   UNL     1      -1.361   0.561  -1.290  0.00  0.00    -0.462 OA
BRANCH  30  32
ATOM     31  C   UNL     1      -0.818   2.828  -2.103  0.00  0.00    +0.136 C 
ATOM     32  C   UNL     1      -0.444   1.401  -1.796  0.00  0.00    +0.304 C 
ATOM     33  O   UNL     1       0.681   1.013  -2.003  0.00  0.00    -0.251 OA
ENDBRANCH  30  32
ENDBRANCH  29  30
ENDBRANCH  26  29
ENDBRANCH   1  26
TORSDOF 8
