REMARK  Name = ZINC43410901
REMARK  4 active torsions:
REMARK  status: ('A' for Active; 'I' for Inactive)
REMARK    1  A    between atoms: C_1  and  N_2
REMARK    2  A    between atoms: C_6  and  N_9
REMARK    3  A    between atoms: C_11  and  C_20
REMARK    4  A    between atoms: C_20  and  N_22
REMARK                            x       y       z     vdW  Elec       q    Type
REMARK                         _______ _______ _______ _____ _____    ______ ____
ROOT
ATOM      1  N   UNL     1       1.372  -2.497   2.422  0.00  0.00    -0.327 N 
ATOM      2  C   UNL     1       1.060  -3.732   2.960  0.00  0.00    +0.129 A 
ATOM      3  C   UNL     1       1.812  -4.239   4.035  0.00  0.00    +0.043 A 
ATOM      4  C   UNL     1       1.473  -5.492   4.552  0.00  0.00    +0.019 A 
ATOM      5  C   UNL     1       0.409  -6.185   3.987  0.00  0.00    -0.025 A 
ATOM      6  C   UNL     1      -0.287  -5.624   2.939  0.00  0.00    +0.047 A 
ATOM      7  N   UNL     1       0.055  -4.431   2.467  0.00  0.00    -0.236 NA
ATOM      8  C   UNL     1      -1.462  -6.312   2.293  0.00  0.00    +0.056 C 
ATOM      9  C   UNL     1      -1.463  -7.802   2.628  0.00  0.00    +0.006 C 
ATOM     10  C   UNL     1      -1.338  -7.957   4.148  0.00  0.00    +0.005 C 
ATOM     11  C   UNL     1       0.072  -7.537   4.559  0.00  0.00    +0.037 C 
ATOM     12  H   UNL     1       2.059  -1.948   2.832  0.00  0.00    +0.148 HD
ENDROOT
BRANCH   1  18
ATOM     13  C   UNL     1      -0.026   1.464   0.010  0.00  0.00    -0.096 C 
ATOM     14  N   UNL     1      -0.000  -0.005   0.001  0.00  0.00    +0.379 N 
ATOM     15  C   UNL     1       0.687  -0.474  -1.208  0.00  0.00    -0.079 C 
ATOM     16  C   UNL     1       0.646  -2.002  -1.263  0.00  0.00    -0.017 C 
ATOM     17  C   UNL     1       1.344  -2.571  -0.024  0.00  0.00    +0.018 C 
ATOM     18  C   UNL     1       0.665  -2.017   1.232  0.00  0.00    +0.055 C 
ATOM     19  C   UNL     1       0.706  -0.488   1.194  0.00  0.00    -0.057 C 
ATOM     20  H   UNL     1      -0.946  -0.357   0.006  0.00  0.00    -0.082 HD
ENDBRANCH   1  18
BRANCH   3  21
ATOM     21  C   UNL     1       2.930  -3.467   4.603  0.00  0.00    +0.080 C 
ATOM     22  S   UNL     1       2.673  -2.466   5.968  0.00  0.00    -0.035 S 
BRANCH  21  23
ATOM     23  N   UNL     1       4.156  -3.548   4.049  0.00  0.00    -0.352 N 
ATOM     24  H   UNL     1       4.301  -4.116   3.275  0.00  0.00    +0.143 HD
ATOM     25  H   UNL     1       4.892  -3.040   4.423  0.00  0.00    +0.143 HD
ENDBRANCH  21  23
ENDBRANCH   3  21
TORSDOF 3
