REMARK  Name = ZINC36107398
REMARK  7 active torsions:
REMARK  status: ('A' for Active; 'I' for Inactive)
REMARK    1  A    between atoms: C_1  and  C_2
REMARK    2  A    between atoms: C_4  and  C_27
REMARK    3  A    between atoms: C_5  and  S_9
REMARK    4  A    between atoms: C_6  and  C_8
REMARK    5  A    between atoms: S_9  and  N_12
REMARK    6  A    between atoms: C_16  and  C_18
REMARK    7  A    between atoms: C_23  and  C_26
REMARK                            x       y       z     vdW  Elec       q    Type
REMARK                         _______ _______ _______ _____ _____    ______ ____
ROOT
ATOM      1  N   UNL     1       1.869  -4.994   1.156  0.00  0.00    -0.165 NA
ATOM      2  C   UNL     1       2.370  -5.314  -0.193  0.00  0.00    +0.110 C 
ATOM      3  C   UNL     1       3.685  -4.506  -0.330  0.00  0.00    +0.019 C 
ATOM      4  C   UNL     1       4.265  -4.611   1.106  0.00  0.00    +0.031 C 
ATOM      5  C   UNL     1       3.001  -4.567   1.991  0.00  0.00    +0.166 C 
ENDROOT
BRANCH   5   6
ATOM      6  C   UNL     1       2.770  -3.164   2.490  0.00  0.00    +0.234 C 
ATOM      7  O   UNL     1       2.038  -2.416   1.879  0.00  0.00    -0.274 OA
ATOM      8  N   UNL     1       3.378  -2.742   3.617  0.00  0.00    -0.300 N 
ATOM      9  C   UNL     1       4.273  -3.635   4.365  0.00  0.00    +0.108 C 
ATOM     10  C   UNL     1       5.620  -2.932   4.561  0.00  0.00    +0.022 C 
ATOM     11  C   UNL     1       5.390  -1.573   5.226  0.00  0.00    -0.011 C 
ATOM     12  C   UNL     1       4.518  -0.701   4.319  0.00  0.00    +0.022 C 
ATOM     13  C   UNL     1       3.163  -1.377   4.117  0.00  0.00    +0.108 C 
ATOM     14  C   UNL     1       6.736  -0.883   5.455  0.00  0.00    +0.007 C 
ENDBRANCH   5   6
BRANCH   1  15
ATOM     15  S   UNL     1       0.290  -5.091   1.647  0.00  0.00    +0.062 S 
ATOM     16  O   UNL     1       0.315  -5.406   3.033  0.00  0.00    -0.153 OA
ATOM     17  O   UNL     1      -0.383  -5.901   0.693  0.00  0.00    -0.153 OA
BRANCH  15  22
ATOM     18  C   UNL     1      -2.071   0.442   1.181  0.00  0.00    +0.044 C 
ATOM     19  C   UNL     1      -1.481  -0.940   1.298  0.00  0.00    -0.050 A 
ATOM     20  C   UNL     1      -1.132  -1.640   0.158  0.00  0.00    +0.008 A 
ATOM     21  C   UNL     1      -0.591  -2.908   0.265  0.00  0.00    -0.024 A 
ATOM     22  C   UNL     1      -0.398  -3.474   1.511  0.00  0.00    +0.111 A 
ATOM     23  C   UNL     1      -0.747  -2.773   2.651  0.00  0.00    -0.024 A 
ATOM     24  C   UNL     1      -1.284  -1.504   2.544  0.00  0.00    +0.008 A 
ATOM     25  C   UNL     1      -0.537  -3.391   4.009  0.00  0.00    +0.046 C 
ATOM     26  C   UNL     1      -0.211  -3.672  -0.977  0.00  0.00    +0.046 C 
ENDBRANCH  15  22
ENDBRANCH   1  15
TORSDOF 3
