REMARK  Name = ZINC27100514
REMARK  8 active torsions:
REMARK  status: ('A' for Active; 'I' for Inactive)
REMARK    1  A    between atoms: C_1  and  C_2
REMARK    2  A    between atoms: C_2  and  C_3
REMARK    3  A    between atoms: C_3  and  C_5
REMARK    4  A    between atoms: C_3  and  N_6
REMARK    5  A    between atoms: N_9  and  C_12
REMARK    6  A    between atoms: C_12  and  C_13
REMARK    7  A    between atoms: C_14  and  O_30
REMARK    8  A    between atoms: C_21  and  C_24
REMARK                            x       y       z     vdW  Elec       q    Type
REMARK                         _______ _______ _______ _____ _____    ______ ____
ROOT
ATOM      1  C   UNL     1      -0.793   1.934   1.286  0.00  0.00    +0.051 A 
ATOM      2  C   UNL     1      -0.411   3.168   1.785  0.00  0.00    +0.125 A 
ATOM      3  C   UNL     1      -1.059   3.718   2.888  0.00  0.00    +0.046 A 
ATOM      4  C   UNL     1      -2.075   3.041   3.500  0.00  0.00    +0.019 A 
ATOM      5  C   UNL     1      -2.468   1.794   3.012  0.00  0.00    +0.065 A 
ATOM      6  C   UNL     1      -1.824   1.232   1.895  0.00  0.00    +0.146 A 
ATOM      7  O   UNL     1      -2.206   0.028   1.425  0.00  0.00    -0.462 OA
ATOM      8  C   UNL     1      -3.190  -0.693   1.968  0.00  0.00    +0.208 A 
ATOM      9  C   UNL     1      -3.895  -0.270   3.049  0.00  0.00    +0.064 A 
ATOM     10  C   UNL     1      -3.561   1.034   3.646  0.00  0.00    +0.200 A 
ATOM     11  O   UNL     1      -4.159   1.465   4.617  0.00  0.00    -0.286 OA
ENDROOT
BRANCH   9  12
ATOM     12  C   UNL     1      -4.979  -1.106   3.618  0.00  0.00    -0.011 A 
ATOM     13  C   UNL     1      -5.010  -1.378   4.985  0.00  0.00    +0.009 A 
ATOM     14  C   UNL     1      -6.024  -2.152   5.510  0.00  0.00    +0.001 A 
ATOM     15  C   UNL     1      -7.004  -2.668   4.680  0.00  0.00    +0.000 A 
ATOM     16  C   UNL     1      -6.976  -2.406   3.322  0.00  0.00    +0.001 A 
ATOM     17  C   UNL     1      -5.969  -1.628   2.787  0.00  0.00    +0.009 A 
ENDBRANCH   9  12
BRANCH   2  18
ATOM     18  O   UNL     1       0.602   3.849   1.191  0.00  0.00    -0.506 OA
ATOM     19  H   UNL     1       0.910   4.830   1.583  0.00  0.00    +0.292 HD
ENDBRANCH   2  18
BRANCH   1  20
ATOM     20  C   UNL     1      -0.088   1.353   0.087  0.00  0.00    +0.126 C 
BRANCH  20  24
ATOM     21  N   UNL     1      -2.045   1.388  -3.657  0.00  0.00    +0.383 N 
ATOM     22  C   UNL     1      -0.696   1.965  -3.579  0.00  0.00    -0.063 C 
ATOM     23  C   UNL     1       0.013   1.434  -2.331  0.00  0.00    +0.066 C 
ATOM     24  N   UNL     1      -0.774   1.780  -1.139  0.00  0.00    -0.301 NA
ATOM     25  C   UNL     1      -2.123   1.203  -1.217  0.00  0.00    +0.066 C 
ATOM     26  C   UNL     1      -2.832   1.734  -2.465  0.00  0.00    -0.063 C 
ATOM     27  H   UNL     1      -1.944   0.293  -3.691  0.00  0.00    -0.081 HD
BRANCH  21  28
ATOM     28  C   UNL     1      -2.731   1.815  -4.883  0.00  0.00    -0.072 C 
ATOM     29  C   UNL     1      -1.959   1.307  -6.103  0.00  0.00    -0.013 C 
BRANCH  28  31
ATOM     30  C   UNL     1      -4.889   1.747  -6.141  0.00  0.00    +0.002 C 
ATOM     31  C   UNL     1      -4.149   1.240  -4.902  0.00  0.00    -0.019 C 
ENDBRANCH  28  31
ENDBRANCH  21  28
ENDBRANCH  20  24
ENDBRANCH   1  20
TORSDOF 6
