REMARK  Name = ZINC43740187
REMARK  10 active torsions:
REMARK  status: ('A' for Active; 'I' for Inactive)
REMARK    1  A    between atoms: C_1  and  C_2
REMARK    2  A    between atoms: C_13  and  O_15
REMARK    3  A    between atoms: O_15  and  C_16
REMARK    4  A    between atoms: C_16  and  C_18
REMARK    5  A    between atoms: C_18  and  C_19
REMARK    6  A    between atoms: C_19  and  C_20
REMARK    7  A    between atoms: N_22  and  C_23
REMARK    8  A    between atoms: C_23  and  C_24
REMARK    9  A    between atoms: C_24  and  C_25
REMARK   10  A    between atoms: C_39  and  C_40
REMARK                            x       y       z     vdW  Elec       q    Type
REMARK                         _______ _______ _______ _____ _____    ______ ____
ROOT
ATOM      1  C   UNL     1      -0.019   1.526   0.010  0.00  0.00    +0.015 C 
ATOM      2  C   UNL     1       0.002  -0.004   0.002  0.00  0.00    +0.008 C 
ATOM      3  C   UNL     1       0.763  -0.501  -1.212  0.00  0.00    +0.011 C 
ATOM      4  C   UNL     1       2.146   0.170  -1.186  0.00  0.00    +0.005 C 
ATOM      5  C   UNL     1       2.895  -0.130   0.109  0.00  0.00    +0.002 C 
ATOM      6  C   UNL     1       2.068   0.247   1.347  0.00  0.00    -0.003 C 
ATOM      7  C   UNL     1       0.751  -0.527   1.257  0.00  0.00    +0.002 C 
ATOM      8  C   UNL     1      -0.262  -0.234   2.369  0.00  0.00    +0.008 C 
ATOM      9  C   UNL     1      -1.615  -0.640   1.722  0.00  0.00    +0.045 C 
ATOM     10  C   UNL     1      -1.413  -0.541   0.189  0.00  0.00    +0.183 C 
ATOM     11  C   UNL     1       2.836  -0.170   2.605  0.00  0.00    +0.008 C 
ATOM     12  C   UNL     1       4.122   0.652   2.704  0.00  0.00    +0.032 C 
ATOM     13  C   UNL     1       4.912   0.482   1.419  0.00  0.00    -0.060 C 
ATOM     14  C   UNL     1       6.207   0.186   1.522  0.00  0.00    +0.046 C 
ATOM     15  C   UNL     1       7.022   0.026   0.313  0.00  0.00    +0.156 C 
ATOM     16  O   UNL     1       8.063  -0.598   0.321  0.00  0.00    -0.293 OA
ATOM     17  C   UNL     1       6.495   0.683  -0.948  0.00  0.00    +0.080 C 
ATOM     18  C   UNL     1       5.031   0.270  -1.100  0.00  0.00    +0.019 C 
ATOM     19  C   UNL     1       4.206   0.665   0.126  0.00  0.00    -0.007 C 
ATOM     20  C   UNL     1       3.860   2.150  -0.006  0.00  0.00    +0.016 C 
ENDROOT
BRANCH  10  21
ATOM     21  O   UNL     1      -2.365   0.361  -0.378  0.00  0.00    -0.461 OA
BRANCH  21  22
ATOM     22  C   UNL     1      -3.500  -0.172  -0.856  0.00  0.00    +0.308 C 
ATOM     23  O   UNL     1      -3.680  -1.365  -0.795  0.00  0.00    -0.251 OA
BRANCH  22  24
ATOM     24  C   UNL     1      -4.550   0.718  -1.469  0.00  0.00    +0.130 C 
BRANCH  24  25
ATOM     25  C   UNL     1      -5.735  -0.133  -1.931  0.00  0.00    +0.107 C 
BRANCH  25  26
ATOM     26  C   UNL     1      -6.785   0.757  -2.544  0.00  0.00    +0.214 C 
ATOM     27  O   UNL     1      -6.604   1.954  -2.606  0.00  0.00    -0.276 OA
ATOM     28  N   UNL     1      -7.925   0.222  -3.024  0.00  0.00    -0.315 N 
ATOM     29  H   UNL     1      -8.070  -0.736  -2.974  0.00  0.00    +0.149 HD
BRANCH  28  30
ATOM     30  C   UNL     1      -8.946   1.087  -3.620  0.00  0.00    +0.110 C 
BRANCH  30  31
ATOM     31  C   UNL     1     -10.130   0.235  -4.081  0.00  0.00    +0.073 C 
BRANCH  31  32
ATOM     32  C   UNL     1     -11.180   1.125  -4.695  0.00  0.00    +0.035 A 
ATOM     33  C   UNL     1     -12.140   1.794  -4.026  0.00  0.00    +0.105 A 
ATOM     34  N   UNL     1     -12.872   2.475  -4.961  0.00  0.00    -0.352 N 
ATOM     35  H   UNL     1     -13.634   3.049  -4.788  0.00  0.00    +0.166 HD
ATOM     36  C   UNL     1     -12.334   2.199  -6.169  0.00  0.00    +0.171 A 
ATOM     37  N   UNL     1     -11.320   1.395  -6.001  0.00  0.00    -0.350 N 
ATOM     38  H   UNL     1     -10.757   1.046  -6.710  0.00  0.00    +0.166 HD
ENDBRANCH  31  32
ENDBRANCH  30  31
ENDBRANCH  28  30
ENDBRANCH  25  26
ENDBRANCH  24  25
ENDBRANCH  22  24
ENDBRANCH  21  22
ENDBRANCH  10  21
TORSDOF 8
