REMARK  Name = ZINC40476445
REMARK  8 active torsions:
REMARK  status: ('A' for Active; 'I' for Inactive)
REMARK    1  A    between atoms: C_1  and  C_2
REMARK    2  A    between atoms: C_2  and  C_3
REMARK    3  A    between atoms: C_2  and  C_4
REMARK    4  A    between atoms: C_4  and  S_5
REMARK    5  A    between atoms: S_5  and  C_6
REMARK    6  A    between atoms: C_17  and  C_19
REMARK    7  A    between atoms: C_29  and  C_31
REMARK    8  A    between atoms: C_29  and  C_32
REMARK                            x       y       z     vdW  Elec       q    Type
REMARK                         _______ _______ _______ _____ _____    ______ ____
ROOT
ATOM      1  C   UNL     1       0.781  -0.698   4.053  0.00  0.00    +0.171 A 
ATOM      2  N   UNL     1       0.355  -0.528   5.336  0.00  0.00    -0.302 N 
ATOM      3  H   UNL     1      -0.475  -0.059   5.513  0.00  0.00    +0.171 HD
ATOM      4  C   UNL     1       1.086  -1.014   6.362  0.00  0.00    +0.258 A 
ATOM      5  O   UNL     1       0.714  -0.866   7.515  0.00  0.00    -0.267 OA
ATOM      6  C   UNL     1       2.278  -1.691   6.079  0.00  0.00    +0.069 A 
ATOM      7  C   UNL     1       2.664  -1.839   4.758  0.00  0.00    +0.135 A 
ATOM      8  N   UNL     1       1.900  -1.339   3.781  0.00  0.00    -0.208 NA
ATOM      9  N   UNL     1       3.832  -2.511   4.458  0.00  0.00    -0.302 N 
ATOM     10  C   UNL     1       4.407  -3.353   5.371  0.00  0.00    +0.017 C 
ATOM     11  C   UNL     1       4.096  -3.271   6.682  0.00  0.00    +0.024 C 
ATOM     12  C   UNL     1       3.119  -2.242   7.191  0.00  0.00    +0.092 C 
ATOM     13  C   UNL     1       4.674  -4.147   7.618  0.00  0.00    +0.162 C 
ATOM     14  O   UNL     1       4.379  -4.042   8.792  0.00  0.00    -0.292 OA
ATOM     15  C   UNL     1       5.649  -5.211   7.196  0.00  0.00    +0.086 C 
ATOM     16  C   UNL     1       5.344  -5.622   5.752  0.00  0.00    -0.023 C 
ATOM     17  C   UNL     1       5.401  -4.373   4.870  0.00  0.00    +0.058 C 
ATOM     18  C   UNL     1       6.386  -6.636   5.275  0.00  0.00    +0.011 C 
ATOM     19  C   UNL     1       3.946  -6.241   5.678  0.00  0.00    +0.011 C 
ATOM     20  H   UNL     1       4.250  -2.384   3.592  0.00  0.00    +0.153 HD
ENDROOT
BRANCH  12  21
ATOM     21  C   UNL     1       3.883  -1.115   7.836  0.00  0.00    -0.035 A 
ATOM     22  C   UNL     1       4.760  -0.355   7.085  0.00  0.00    +0.006 A 
ATOM     23  C   UNL     1       5.461   0.679   7.676  0.00  0.00    +0.020 A 
ATOM     24  C   UNL     1       5.284   0.954   9.021  0.00  0.00    +0.041 A 
ATOM     25  C   UNL     1       4.407   0.193   9.772  0.00  0.00    +0.020 A 
ATOM     26  C   UNL     1       3.702  -0.837   9.178  0.00  0.00    +0.006 A 
ATOM     27 CL   UNL     1       6.165   2.252   9.764  0.00  0.00    -0.084 Cl
ENDBRANCH  12  21
BRANCH   1  28
ATOM     28  S   UNL     1      -0.187  -0.052   2.730  0.00  0.00    -0.088 S 
BRANCH  28  29
ATOM     29  C   UNL     1       0.742  -0.511   1.242  0.00  0.00    +0.080 C 
BRANCH  29  31
ATOM     30  C   UNL     1      -0.019   1.526   0.010  0.00  0.00    +0.008 C 
ATOM     31  C   UNL     1       0.002  -0.004   0.002  0.00  0.00    -0.007 C 
ATOM     32  C   UNL     1       0.718  -0.497  -1.257  0.00  0.00    +0.008 C 
ENDBRANCH  29  31
ENDBRANCH  28  29
ENDBRANCH   1  28
TORSDOF 4
