REMARK  Name = ZINC33864514
REMARK  3 active torsions:
REMARK  status: ('A' for Active; 'I' for Inactive)
REMARK    1  A    between atoms: C_3  and  N_9
REMARK    2  A    between atoms: C_15  and  C_16
REMARK    3  A    between atoms: C_18  and  N_24
REMARK                            x       y       z     vdW  Elec       q    Type
REMARK                         _______ _______ _______ _____ _____    ______ ____
ROOT
ATOM      1  N   UNL     1       3.269   2.709  -0.734  0.00  0.00    -0.224 NA
ATOM      2  C   UNL     1       3.452   3.675   0.158  0.00  0.00    +0.166 C 
ATOM      3  N   UNL     1       2.504   4.265   0.947  0.00  0.00    -0.260 N 
ATOM      4  C   UNL     1       2.899   5.220   1.782  0.00  0.00    +0.256 C 
ATOM      5  O   UNL     1       2.136   5.807   2.525  0.00  0.00    -0.269 OA
ATOM      6  C   UNL     1       4.350   5.506   1.727  0.00  0.00    +0.078 C 
ATOM      7  C   UNL     1       5.087   6.444   2.467  0.00  0.00    +0.028 C 
ATOM      8  S   UNL     1       4.895   4.425   0.564  0.00  0.00    -0.049 S 
ATOM      9  H   UNL     1       1.573   3.995   0.899  0.00  0.00    +0.157 HD
ENDROOT
BRANCH   1  12
ATOM     10  C   UNL     1      -0.323   2.557  -1.180  0.00  0.00    +0.004 A 
ATOM     11  C   UNL     1       0.921   3.072  -0.967  0.00  0.00    +0.029 A 
ATOM     12  C   UNL     1       2.044   2.213  -0.942  0.00  0.00    +0.086 A 
ATOM     13  C   UNL     1       1.860   0.823  -1.139  0.00  0.00    +0.085 A 
ATOM     14  C   UNL     1       0.592   0.330  -1.351  0.00  0.00    +0.061 A 
ATOM     15  C   UNL     1      -0.497   1.192  -1.372  0.00  0.00    +0.021 A 
ATOM     16 CL   UNL     1       0.354  -1.373  -1.593  0.00  0.00    -0.082 Cl
ATOM     17 CL   UNL     1       3.223  -0.252  -1.112  0.00  0.00    -0.080 Cl
ENDBRANCH   1  12
BRANCH   7  18
ATOM     18  C   UNL     1       6.441   6.670   2.164  0.00  0.00    -0.020 A 
ATOM     19  C   UNL     1       6.950   6.334   0.888  0.00  0.00    +0.044 A 
ATOM     20  C   UNL     1       8.261   6.557   0.603  0.00  0.00    +0.174 A 
ATOM     21  C   UNL     1       9.105   7.117   1.566  0.00  0.00    +0.223 A 
ATOM     22  C   UNL     1       8.610   7.453   2.830  0.00  0.00    +0.067 A 
ATOM     23  C   UNL     1       7.299   7.242   3.130  0.00  0.00    +0.027 A 
ATOM     24 BR   UNL     1       9.764   8.209   4.124  0.00  0.00    -0.046 Br
ATOM     25  O   UNL     1      10.409   7.335   1.273  0.00  0.00    -0.284 OA
BRANCH  20  26
ATOM     26  N   UNL     1       8.796   6.205  -0.732  0.00  0.00    +0.060 N 
ATOM     27  O   UNL     1       8.002   5.676  -1.641  0.00  0.00    -0.126 OA
ATOM     28  O   UNL     1      10.065   6.420  -1.011  0.00  0.00    -0.126 OA
ENDBRANCH  20  26
ENDBRANCH   7  18
TORSDOF 3
