REMARK  Name = ZINC22017528
REMARK  17 active torsions:
REMARK  status: ('A' for Active; 'I' for Inactive)
REMARK    1  A    between atoms: C_1  and  C_2
REMARK    2  A    between atoms: C_2  and  C_4
REMARK    3  A    between atoms: C_2  and  S_14
REMARK    4  A    between atoms: N_6  and  C_7
REMARK    5  A    between atoms: C_7  and  C_8
REMARK    6  A    between atoms: C_7  and  C_9
REMARK    7  A    between atoms: C_7  and  C_11
REMARK    8  A    between atoms: C_11  and  C_12
REMARK    9  A    between atoms: C_11  and  C_13
REMARK   10  A    between atoms: S_14  and  C_15
REMARK   11  A    between atoms: C_18  and  C_21
REMARK   12  A    between atoms: N_19  and  N_20
REMARK   13  A    between atoms: C_21  and  O_22
REMARK   14  A    between atoms: O_22  and  C_23
REMARK   15  A    between atoms: C_26  and  C_29
REMARK   16  A    between atoms: C_29  and  C_30
REMARK   17  A    between atoms: C_29  and  C_31
REMARK                            x       y       z     vdW  Elec       q    Type
REMARK                         _______ _______ _______ _____ _____    ______ ____
ROOT
ATOM      1  C   UNL     1      -2.365  -0.093  -1.525  0.00  0.00    +0.209 A 
ATOM      2  N   UNL     1      -1.736   0.597  -2.448  0.00  0.00    -0.121 NA
ATOM      3  N   UNL     1      -2.522   0.816  -3.441  0.00  0.00    -0.128 NA
ATOM      4  C   UNL     1      -3.689   0.283  -3.213  0.00  0.00    +0.189 A 
ATOM      5  N   UNL     1      -3.629  -0.320  -1.988  0.00  0.00    -0.225 N 
ENDROOT
BRANCH   5   6
ATOM      6  N   UNL     1      -4.628  -1.006  -1.356  0.00  0.00    -0.295 N 
ATOM      7  H   UNL     1      -5.184  -0.388  -0.784  0.00  0.00    +0.163 HD
ATOM      8  H   UNL     1      -5.204  -1.500  -2.021  0.00  0.00    +0.163 HD
ENDBRANCH   5   6
BRANCH   1   9
ATOM      9  S   UNL     1      -1.700  -0.632   0.015  0.00  0.00    -0.072 S 
BRANCH   9  11
ATOM     10  C   UNL     1      -0.019   1.526   0.010  0.00  0.00    +0.029 C 
ATOM     11  C   UNL     1       0.002  -0.004   0.002  0.00  0.00    +0.137 C 
BRANCH  11  12
ATOM     12  C   UNL     1       0.731  -0.503   1.223  0.00  0.00    +0.227 C 
ATOM     13  O   UNL     1       0.105  -0.891   2.187  0.00  0.00    -0.275 OA
ATOM     14  N   UNL     1       2.079  -0.519   1.244  0.00  0.00    -0.296 N 
ATOM     15  H   UNL     1       2.579  -0.208   0.473  0.00  0.00    +0.150 HD
BRANCH  14  16
ATOM     16  C   UNL     1       2.787  -1.004   2.431  0.00  0.00    +0.121 C 
ATOM     17  C   UNL     1       2.397  -2.459   2.699  0.00  0.00    +0.048 C 
BRANCH  16  18
ATOM     18  C   UNL     1       4.296  -0.916   2.195  0.00  0.00    +0.020 C 
ATOM     19  C   UNL     1       4.705   0.551   2.051  0.00  0.00    +0.010 C 
ATOM     20  C   UNL     1       5.035  -1.537   3.382  0.00  0.00    +0.010 C 
ENDBRANCH  16  18
BRANCH  16  21
ATOM     21  C   UNL     1       2.423  -0.176   3.592  0.00  0.00    +0.088 C 
ATOM     22  N   UNL     1       2.141   0.462   4.489  0.00  0.00    -0.194 NA
ENDBRANCH  16  21
ENDBRANCH  14  16
ENDBRANCH  11  12
ENDBRANCH   9  11
ENDBRANCH   1   9
BRANCH   4  23
ATOM     23  C   UNL     1      -4.882   0.320  -4.133  0.00  0.00    +0.306 C 
BRANCH  23  24
ATOM     24  O   UNL     1      -4.849  -0.815  -5.002  0.00  0.00    -0.484 OA
BRANCH  24  25
ATOM     25  C   UNL     1      -5.861  -0.934  -5.901  0.00  0.00    +0.121 A 
ATOM     26  C   UNL     1      -6.863   0.025  -5.950  0.00  0.00    +0.046 A 
ATOM     27  C   UNL     1      -7.891  -0.098  -6.865  0.00  0.00    +0.007 A 
ATOM     28  C   UNL     1      -7.922  -1.176  -7.731  0.00  0.00    -0.045 A 
ATOM     29  C   UNL     1      -6.925  -2.133  -7.683  0.00  0.00    +0.007 A 
ATOM     30  C   UNL     1      -5.892  -2.011  -6.774  0.00  0.00    +0.046 A 
BRANCH  28  31
ATOM     31  C   UNL     1      -9.044  -1.308  -8.727  0.00  0.00    +0.013 C 
ATOM     32  C   UNL     1      -8.469  -1.313 -10.145  0.00  0.00    +0.012 C 
ATOM     33  C   UNL     1      -9.797  -2.616  -8.477  0.00  0.00    +0.012 C 
ENDBRANCH  28  31
ENDBRANCH  24  25
ENDBRANCH  23  24
ENDBRANCH   4  23
TORSDOF 11
