REMARK  Name = ZINC08790390
REMARK  6 active torsions:
REMARK  status: ('A' for Active; 'I' for Inactive)
REMARK    1  A    between atoms: C_1  and  C_2
REMARK    2  A    between atoms: C_18  and  C_20
REMARK    3  A    between atoms: C_20  and  N_68
REMARK    4  A    between atoms: C_21  and  N_68
REMARK    5  A    between atoms: C_26  and  C_27
REMARK    6  A    between atoms: C_26  and  N_71
REMARK                            x       y       z     vdW  Elec       q    Type
REMARK                         _______ _______ _______ _____ _____    ______ ____
ROOT
ATOM      1  C   UNL     1       0.425   3.561  -2.285  0.00  0.00    -0.067 C 
ENDROOT
BRANCH   1  16
ATOM      2  C   UNL     1      -2.818   1.487   2.574  0.00  0.00    +0.011 C 
ATOM      3  C   UNL     1      -2.138   1.058   1.272  0.00  0.00    -0.023 C 
ATOM      4  C   UNL     1      -2.153  -0.466   1.173  0.00  0.00    +0.007 C 
ATOM      5  C   UNL     1      -1.514  -1.068   2.427  0.00  0.00    +0.003 C 
ATOM      6  C   UNL     1      -0.050  -0.629   2.521  0.00  0.00    +0.037 C 
ATOM      7  C   UNL     1       0.022   0.899   2.482  0.00  0.00    +0.096 C 
ATOM      8  C   UNL     1      -0.704   1.567   1.286  0.00  0.00    +0.030 C 
ATOM      9  C   UNL     1      -0.013   1.086   0.008  0.00  0.00    +0.014 C 
ATOM     10  C   UNL     1      -0.717   1.573  -1.231  0.00  0.00    +0.042 C 
ATOM     11  C   UNL     1      -2.231   1.283  -1.240  0.00  0.00    +0.181 C 
ATOM     12  C   UNL     1      -2.867   1.684   0.093  0.00  0.00    +0.052 C 
ATOM     13  O   UNL     1      -2.698   2.265  -2.242  0.00  0.00    -0.461 OA
ATOM     14  C   UNL     1      -2.044   3.422  -2.002  0.00  0.00    +0.309 C 
ATOM     15  O   UNL     1      -2.463   4.530  -2.242  0.00  0.00    -0.251 OA
ATOM     16  C   UNL     1      -0.712   3.106  -1.367  0.00  0.00    +0.087 C 
ATOM     17  C   UNL     1       0.021   1.653   3.809  0.00  0.00    +0.196 C 
ATOM     18  O   UNL     1       1.190   1.532   2.996  0.00  0.00    -0.368 OA
ENDBRANCH   1  16
BRANCH   1  19
ATOM     19  N   UNL     1       0.475   5.036  -2.297  0.00  0.00    +0.381 N 
ATOM     20  H   UNL     1       0.639   5.377  -1.343  0.00  0.00    -0.086 HD
ATOM     21  H   UNL     1      -0.420   5.402  -2.642  0.00  0.00    -0.086 HD
BRANCH  19  22
ATOM     22  C   UNL     1       1.563   5.504  -3.176  0.00  0.00    -0.075 C 
ATOM     23  C   UNL     1       2.878   5.536  -2.391  0.00  0.00    -0.034 C 
ATOM     24  C   UNL     1       3.988   6.088  -3.287  0.00  0.00    -0.080 C 
ATOM     25  C   UNL     1       2.397   7.428  -4.530  0.00  0.00    -0.080 C 
ATOM     26  C   UNL     1       1.239   6.916  -3.671  0.00  0.00    -0.034 C 
ATOM     27  N   UNL     1       3.627   7.458  -3.710  0.00  0.00    +0.382 N 
ATOM     28  H   UNL     1       3.456   8.030  -2.874  0.00  0.00    -0.081 HD
BRANCH  27  29
ATOM     29  C   UNL     1       4.735   8.056  -4.483  0.00  0.00    -0.043 C 
BRANCH  29  30
ATOM     30  C   UNL     1       5.907   8.275  -3.561  0.00  0.00    -0.064 A 
ATOM     31  C   UNL     1       6.028   9.465  -2.867  0.00  0.00    +0.002 A 
ATOM     32  C   UNL     1       7.100   9.664  -2.018  0.00  0.00    +0.000 A 
ATOM     33  C   UNL     1       8.057   8.677  -1.870  0.00  0.00    +0.000 A 
ATOM     34  C   UNL     1       7.939   7.490  -2.567  0.00  0.00    +0.000 A 
ATOM     35  C   UNL     1       6.864   7.289  -3.413  0.00  0.00    +0.002 A 
ENDBRANCH  29  30
ENDBRANCH  27  29
ENDBRANCH  19  22
ENDBRANCH   1  19
TORSDOF 5
