REMARK  Name = ZINC38705799
REMARK  17 active torsions:
REMARK  status: ('A' for Active; 'I' for Inactive)
REMARK    1  A    between atoms: C_1  and  C_2
REMARK    2  A    between atoms: C_2  and  C_3
REMARK    3  A    between atoms: C_3  and  O_4
REMARK    4  A    between atoms: O_4  and  C_5
REMARK    5  A    between atoms: C_8  and  C_14
REMARK    6  A    between atoms: C_10  and  O_11
REMARK    7  A    between atoms: O_11  and  C_12
REMARK    8  A    between atoms: C_12  and  C_13
REMARK    9  A    between atoms: C_17  and  C_30
REMARK   10  A    between atoms: N_24  and  C_25
REMARK   11  A    between atoms: C_25  and  C_26
REMARK   12  A    between atoms: C_26  and  C_27
REMARK   13  A    between atoms: C_27  and  O_28
REMARK   14  A    between atoms: O_28  and  C_29
REMARK   15  A    between atoms: C_31  and  C_38
REMARK   16  A    between atoms: C_33  and  C_37
REMARK   17  A    between atoms: C_35  and  O_36
REMARK                            x       y       z     vdW  Elec       q    Type
REMARK                         _______ _______ _______ _____ _____    ______ ____
ROOT
ATOM      1  C   UNL     1       3.360  -4.509   5.556  0.00  0.00    +0.141 C 
ATOM      2  C   UNL     1       2.519  -4.376   6.796  0.00  0.00    +0.035 A 
ATOM      3  C   UNL     1       1.303  -4.651   7.432  0.00  0.00    +0.102 A 
ATOM      4  N   UNL     1       1.367  -4.135   8.644  0.00  0.00    -0.173 NA
ATOM      5  N   UNL     1       2.501  -3.563   8.836  0.00  0.00    -0.272 N 
ATOM      6  H   UNL     1       2.769  -3.117   9.656  0.00  0.00    +0.189 HD
ATOM      7  C   UNL     1       3.275  -3.676   7.717  0.00  0.00    +0.126 A 
ATOM      8  C   UNL     1       4.572  -3.356   7.108  0.00  0.00    +0.265 C 
ATOM      9  O   UNL     1       5.465  -2.744   7.661  0.00  0.00    -0.268 OA
ATOM     10  N   UNL     1       4.632  -3.836   5.852  0.00  0.00    -0.285 N 
ENDROOT
BRANCH   3  11
ATOM     11  C   UNL     1       0.154  -5.386   6.849  0.00  0.00    +0.047 A 
ATOM     12  C   UNL     1      -1.129  -4.849   6.922  0.00  0.00    -0.037 A 
ATOM     13  C   UNL     1      -2.195  -5.537   6.378  0.00  0.00    +0.007 A 
ATOM     14  C   UNL     1      -1.994  -6.759   5.761  0.00  0.00    -0.047 A 
ATOM     15  C   UNL     1      -0.725  -7.301   5.684  0.00  0.00    +0.049 A 
ATOM     16  C   UNL     1       0.355  -6.618   6.220  0.00  0.00    +0.127 A 
ATOM     17  C   UNL     1      -3.164  -7.503   5.170  0.00  0.00    +0.044 C 
ATOM     18  C   UNL     1      -1.353  -3.519   7.593  0.00  0.00    +0.044 C 
BRANCH  16  19
ATOM     19  O   UNL     1       1.604  -7.146   6.139  0.00  0.00    -0.506 OA
ATOM     20  H   UNL     1       1.812  -7.773   6.845  0.00  0.00    +0.292 HD
ENDBRANCH  16  19
ENDBRANCH   3  11
BRANCH   1  24
ATOM     21  C   UNL     1       1.423  -2.601   2.256  0.00  0.00    +0.162 A 
ATOM     22  C   UNL     1       1.919  -1.843   3.304  0.00  0.00    +0.050 A 
ATOM     23  C   UNL     1       2.544  -2.462   4.370  0.00  0.00    +0.009 A 
ATOM     24  C   UNL     1       2.677  -3.838   4.392  0.00  0.00    -0.019 A 
ATOM     25  C   UNL     1       2.185  -4.601   3.349  0.00  0.00    +0.055 A 
ATOM     26  C   UNL     1       1.551  -3.986   2.281  0.00  0.00    +0.162 A 
BRANCH  21  27
ATOM     27  O   UNL     1       0.807  -1.993   1.207  0.00  0.00    -0.488 OA
BRANCH  27  28
ATOM     28  C   UNL     1       0.711  -0.568   1.248  0.00  0.00    +0.229 C 
BRANCH  28  30
ATOM     29  C   UNL     1      -0.109   1.458   0.037  0.00  0.00    +0.007 C 
ATOM     30  C   UNL     1      -0.007  -0.068  -0.007  0.00  0.00    +0.038 C 
ENDBRANCH  28  30
ENDBRANCH  27  28
ENDBRANCH  21  27
BRANCH  26  31
ATOM     31  O   UNL     1       1.061  -4.735   1.257  0.00  0.00    -0.489 OA
BRANCH  31  32
ATOM     32  C   UNL     1       1.229  -6.151   1.351  0.00  0.00    +0.226 C 
ATOM     33  C   UNL     1       0.619  -6.820   0.117  0.00  0.00    +0.048 C 
ENDBRANCH  31  32
ENDBRANCH  26  31
ENDBRANCH   1  24
BRANCH  10  34
ATOM     34  C   UNL     1       5.769  -3.710   4.937  0.00  0.00    +0.111 C 
BRANCH  34  35
ATOM     35  C   UNL     1       5.625  -2.426   4.118  0.00  0.00    +0.047 C 
BRANCH  35  36
ATOM     36  C   UNL     1       6.812  -2.294   3.162  0.00  0.00    +0.161 C 
BRANCH  36  37
ATOM     37  O   UNL     1       6.677  -1.094   2.398  0.00  0.00    -0.383 OA
ATOM     38  C   UNL     1       7.741  -0.874   1.469  0.00  0.00    +0.193 C 
ENDBRANCH  36  37
ENDBRANCH  35  36
ENDBRANCH  34  35
ENDBRANCH  10  34
TORSDOF 12
