REMARK  Name = ZINC22075822
REMARK  12 active torsions:
REMARK  status: ('A' for Active; 'I' for Inactive)
REMARK    1  A    between atoms: C_1  and  C_2
REMARK    2  A    between atoms: C_2  and  C_4
REMARK    3  A    between atoms: C_2  and  O_27
REMARK    4  A    between atoms: C_4  and  N_5
REMARK    5  A    between atoms: N_5  and  C_6
REMARK    6  A    between atoms: C_6  and  C_7
REMARK    7  A    between atoms: C_7  and  N_8
REMARK    8  A    between atoms: N_8  and  C_9
REMARK    9  A    between atoms: C_9  and  C_10
REMARK   10  A    between atoms: C_15  and  O_16
REMARK   11  A    between atoms: O_16  and  C_17
REMARK   12  A    between atoms: C_17  and  C_18
REMARK                            x       y       z     vdW  Elec       q    Type
REMARK                         _______ _______ _______ _____ _____    ______ ____
ROOT
ATOM      1  C   UNL     1       2.859  -6.399  -4.939  0.00  0.00    -0.021 A 
ATOM      2  C   UNL     1       2.126  -6.824  -6.029  0.00  0.00    +0.025 A 
ATOM      3  C   UNL     1       2.773  -7.270  -7.168  0.00  0.00    +0.041 A 
ATOM      4  C   UNL     1       4.156  -7.292  -7.216  0.00  0.00    +0.023 A 
ATOM      5  C   UNL     1       4.893  -6.867  -6.128  0.00  0.00    +0.047 A 
ATOM      6  C   UNL     1       4.245  -6.414  -4.987  0.00  0.00    +0.122 A 
ATOM      7 CL   UNL     1       1.849  -7.804  -8.537  0.00  0.00    -0.084 Cl
ENDROOT
BRANCH   1   8
ATOM      8  C   UNL     1       2.154  -5.912  -3.699  0.00  0.00    -0.043 C 
BRANCH   8   9
ATOM      9  N   UNL     1       2.134  -4.444  -3.691  0.00  0.00    +0.381 N 
ATOM     10  H   UNL     1       1.646  -4.109  -4.508  0.00  0.00    -0.086 HD
ATOM     11  H   UNL     1       3.081  -4.094  -3.698  0.00  0.00    -0.086 HD
BRANCH   9  12
ATOM     12  C   UNL     1       1.446  -3.970  -2.482  0.00  0.00    -0.102 C 
BRANCH  12  13
ATOM     13  C   UNL     1       1.426  -2.440  -2.474  0.00  0.00    -0.102 C 
BRANCH  13  14
ATOM     14  N   UNL     1       0.738  -1.966  -1.265  0.00  0.00    +0.379 N 
ATOM     15  H   UNL     1       1.226  -2.301  -0.447  0.00  0.00    -0.086 HD
ATOM     16  H   UNL     1      -0.208  -2.316  -1.258  0.00  0.00    -0.086 HD
BRANCH  14  17
ATOM     17  C   UNL     1       0.718  -0.497  -1.257  0.00  0.00    -0.051 C 
BRANCH  17  19
ATOM     18  C   UNL     1      -0.019   1.526   0.010  0.00  0.00    +0.035 C 
ATOM     19  C   UNL     1       0.002  -0.004   0.002  0.00  0.00    +0.095 C 
BRANCH  19  20
ATOM     20  O   UNL     1      -1.339  -0.499   0.012  0.00  0.00    -0.394 OA
ATOM     21  H   UNL     1      -1.853  -0.225   0.784  0.00  0.00    +0.210 HD
ENDBRANCH  19  20
ENDBRANCH  17  19
ENDBRANCH  14  17
ENDBRANCH  13  14
ENDBRANCH  12  13
ENDBRANCH   9  12
ENDBRANCH   8   9
ENDBRANCH   1   8
BRANCH   6  22
ATOM     22  O   UNL     1       4.969  -5.991  -3.917  0.00  0.00    -0.487 OA
BRANCH  22  23
ATOM     23  C   UNL     1       6.392  -6.035  -4.038  0.00  0.00    +0.266 C 
BRANCH  23  24
ATOM     24  C   UNL     1       7.020  -5.531  -2.764  0.00  0.00    +0.008 A 
ATOM     25  C   UNL     1       6.220  -5.125  -1.712  0.00  0.00    +0.010 A 
ATOM     26  C   UNL     1       6.795  -4.663  -0.544  0.00  0.00    +0.020 A 
ATOM     27  C   UNL     1       8.172  -4.607  -0.425  0.00  0.00    +0.042 A 
ATOM     28  C   UNL     1       8.974  -5.014  -1.477  0.00  0.00    +0.040 A 
ATOM     29  C   UNL     1       8.397  -5.481  -2.645  0.00  0.00    +0.049 A 
ATOM     30 CL   UNL     1       9.402  -5.997  -3.963  0.00  0.00    -0.083 Cl
ATOM     31 CL   UNL     1       8.895  -4.027   1.043  0.00  0.00    -0.083 Cl
ENDBRANCH  23  24
ENDBRANCH  22  23
ENDBRANCH   6  22
TORSDOF 11
