REMARK  Name = ZINC63818497
REMARK  9 active torsions:
REMARK  status: ('A' for Active; 'I' for Inactive)
REMARK    1  A    between atoms: C_1  and  C_2
REMARK    2  A    between atoms: C_2  and  C_3
REMARK    3  A    between atoms: C_2  and  C_4
REMARK    4  A    between atoms: C_4  and  C_6
REMARK    5  A    between atoms: C_4  and  N_20
REMARK    6  A    between atoms: N_8  and  C_9
REMARK    7  A    between atoms: C_9  and  C_10
REMARK    8  A    between atoms: C_10  and  C_11
REMARK    9  A    between atoms: C_21  and  C_23
REMARK                            x       y       z     vdW  Elec       q    Type
REMARK                         _______ _______ _______ _____ _____    ______ ____
ROOT
ATOM      1  C   UNL     1      -1.386  -0.633  -0.056  0.00  0.00    +0.161 C 
ENDROOT
BRANCH   1   2
ATOM      2  C   UNL     1      -2.074  -0.231  -1.335  0.00  0.00    +0.234 C 
ATOM      3  O   UNL     1      -2.511  -1.081  -2.081  0.00  0.00    -0.274 OA
ATOM      4  N   UNL     1      -2.204   1.073  -1.649  0.00  0.00    -0.313 N 
ATOM      5  H   UNL     1      -1.924   1.754  -1.018  0.00  0.00    +0.149 HD
BRANCH   4   6
ATOM      6  C   UNL     1      -2.768   1.462  -2.944  0.00  0.00    +0.108 C 
BRANCH   6   7
ATOM      7  C   UNL     1      -2.804   2.988  -3.047  0.00  0.00    +0.052 C 
BRANCH   7   8
ATOM      8  C   UNL     1      -3.384   3.388  -4.379  0.00  0.00    -0.040 C 
ATOM      9  C   UNL     1      -4.672   3.706  -4.642  0.00  0.00    -0.001 A 
ATOM     10  C   UNL     1      -5.873   3.771  -3.800  0.00  0.00    +0.010 A 
ATOM     11  C   UNL     1      -7.050   4.128  -4.362  0.00  0.00    +0.001 A 
ATOM     12  C   UNL     1      -7.152   4.438  -5.725  0.00  0.00    +0.002 A 
ATOM     13  C   UNL     1      -6.094   4.401  -6.563  0.00  0.00    +0.026 A 
ATOM     14  C   UNL     1      -4.807   4.038  -6.079  0.00  0.00    +0.043 A 
ATOM     15  N   UNL     1      -3.647   3.929  -6.680  0.00  0.00    -0.380 N 
ATOM     16  C   UNL     1      -2.643   3.522  -5.690  0.00  0.00    +0.144 C 
ATOM     17  H   UNL     1      -3.479   4.095  -7.621  0.00  0.00    +0.160 HD
ENDBRANCH   7   8
ENDBRANCH   6   7
ENDBRANCH   4   6
ENDBRANCH   1   2
BRANCH   1  18
ATOM     18  N   UNL     1      -1.702  -2.030   0.251  0.00  0.00    -0.301 N 
ATOM     19  C   UNL     1      -1.649  -2.470   1.523  0.00  0.00    +0.255 C 
ATOM     20  O   UNL     1      -1.340  -1.709   2.416  0.00  0.00    -0.272 OA
ATOM     21  H   UNL     1      -1.949  -2.639  -0.463  0.00  0.00    +0.150 HD
BRANCH  19  22
ATOM     22  C   UNL     1      -1.974  -3.908   1.838  0.00  0.00    +0.263 C 
ATOM     23  C   UNL     1      -3.471  -4.200   1.583  0.00  0.00    +0.093 C 
ATOM     24  C   UNL     1      -3.797  -5.168   2.703  0.00  0.00    -0.002 A 
ATOM     25  C   UNL     1      -4.858  -6.023   2.907  0.00  0.00    +0.007 A 
ATOM     26  C   UNL     1      -4.899  -6.816   4.040  0.00  0.00    +0.000 A 
ATOM     27  C   UNL     1      -3.873  -6.745   4.965  0.00  0.00    +0.004 A 
ATOM     28  C   UNL     1      -2.812  -5.887   4.764  0.00  0.00    +0.046 A 
ATOM     29  C   UNL     1      -2.765  -5.083   3.628  0.00  0.00    +0.125 A 
ATOM     30  O   UNL     1      -1.831  -4.166   3.245  0.00  0.00    -0.479 OA
ENDBRANCH  19  22
ENDBRANCH   1  18
BRANCH   1  32
ATOM     31  C   UNL     1       0.820  -0.801   1.106  0.00  0.00    +0.009 C 
ATOM     32  C   UNL     1       0.127  -0.476  -0.219  0.00  0.00    +0.012 C 
ATOM     33  C   UNL     1       0.625  -1.434  -1.303  0.00  0.00    +0.009 C 
ENDBRANCH   1  32
TORSDOF 7
