REMARK  Name = ZINC38703293
REMARK  9 active torsions:
REMARK  status: ('A' for Active; 'I' for Inactive)
REMARK    1  A    between atoms: C_1  and  C_2
REMARK    2  A    between atoms: C_2  and  C_3
REMARK    3  A    between atoms: C_3  and  C_4
REMARK    4  A    between atoms: C_4  and  C_5
REMARK    5  A    between atoms: C_5  and  O_6
REMARK    6  A    between atoms: O_6  and  C_7
REMARK    7  A    between atoms: C_11  and  C_13
REMARK    8  A    between atoms: C_20  and  C_30
REMARK    9  A    between atoms: C_22  and  C_29
REMARK                            x       y       z     vdW  Elec       q    Type
REMARK                         _______ _______ _______ _____ _____    ______ ____
ROOT
ATOM      1  C   UNL     1       2.798  -8.051  -4.822  0.00  0.00    +0.142 C 
ATOM      2  C   UNL     1       1.753  -8.554  -5.763  0.00  0.00    +0.072 A 
ATOM      3  C   UNL     1       0.290  -8.446  -5.731  0.00  0.00    +0.199 A 
ATOM      4  O   UNL     1      -0.308  -7.732  -4.947  0.00  0.00    -0.287 OA
ATOM      5  C   UNL     1      -0.390  -9.290  -6.745  0.00  0.00    +0.065 A 
ATOM      6  C   UNL     1      -1.775  -9.453  -6.715  0.00  0.00    +0.018 A 
ATOM      7  C   UNL     1      -2.387 -10.237  -7.652  0.00  0.00    -0.049 A 
ATOM      8  C   UNL     1      -1.634 -10.871  -8.632  0.00  0.00    +0.010 A 
ATOM      9  C   UNL     1      -0.267 -10.720  -8.678  0.00  0.00    -0.007 A 
ATOM     10  C   UNL     1       0.381  -9.923  -7.734  0.00  0.00    +0.142 A 
ATOM     11  O   UNL     1       1.724  -9.781  -7.804  0.00  0.00    -0.449 OA
ATOM     12  C   UNL     1       2.388  -9.210  -6.779  0.00  0.00    +0.199 A 
ATOM     13  C   UNL     1       3.839  -9.158  -6.527  0.00  0.00    +0.281 C 
ATOM     14  O   UNL     1       4.688  -9.652  -7.242  0.00  0.00    -0.267 OA
ATOM     15  N   UNL     1       4.088  -8.482  -5.385  0.00  0.00    -0.298 N 
ATOM     16  C   UNL     1       0.532 -11.417  -9.749  0.00  0.00    +0.047 C 
ATOM     17  C   UNL     1      -3.883 -10.415  -7.623  0.00  0.00    +0.044 C 
ATOM     18  H   UNL     1       4.963  -8.310  -5.002  0.00  0.00    +0.150 HD
ENDROOT
BRANCH   1  23
ATOM     19  C   UNL     1       2.078  -4.553  -3.590  0.00  0.00    +0.121 A 
ATOM     20  C   UNL     1       2.646  -3.785  -4.596  0.00  0.00    +0.045 A 
ATOM     21  C   UNL     1       3.259  -4.400  -5.670  0.00  0.00    +0.004 A 
ATOM     22  C   UNL     1       3.308  -5.780  -5.742  0.00  0.00    +0.006 A 
ATOM     23  C   UNL     1       2.743  -6.548  -4.741  0.00  0.00    -0.019 A 
ATOM     24  C   UNL     1       2.133  -5.937  -3.662  0.00  0.00    +0.051 A 
BRANCH  19  25
ATOM     25  O   UNL     1       1.474  -3.950  -2.532  0.00  0.00    -0.492 OA
BRANCH  25  26
ATOM     26  C   UNL     1       1.455  -2.521  -2.524  0.00  0.00    +0.229 C 
BRANCH  26  27
ATOM     27  C   UNL     1       0.739  -2.027  -1.265  0.00  0.00    +0.041 C 
BRANCH  27  28
ATOM     28  C   UNL     1       0.718  -0.497  -1.257  0.00  0.00    +0.003 C 
BRANCH  28  30
ATOM     29  C   UNL     1      -0.019   1.526   0.010  0.00  0.00    +0.004 C 
ATOM     30  C   UNL     1       0.002  -0.004   0.002  0.00  0.00    -0.003 C 
ENDBRANCH  28  30
ENDBRANCH  27  28
ENDBRANCH  26  27
ENDBRANCH  25  26
ENDBRANCH  19  25
ENDBRANCH   1  23
TORSDOF 6
