REMARK  Name = ZINC67446127
REMARK  7 active torsions:
REMARK  status: ('A' for Active; 'I' for Inactive)
REMARK    1  A    between atoms: C_1  and  C_2
REMARK    2  A    between atoms: C_2  and  C_3
REMARK    3  A    between atoms: C_2  and  C_4
REMARK    4  A    between atoms: C_2  and  N_5
REMARK    5  A    between atoms: C_6  and  C_8
REMARK    6  A    between atoms: C_8  and  N_9
REMARK    7  A    between atoms: C_11  and  C_20
REMARK                            x       y       z     vdW  Elec       q    Type
REMARK                         _______ _______ _______ _____ _____    ______ ____
ROOT
ATOM      1  N   UNL     1       4.051  -0.111  -2.677  0.00  0.00    -0.314 N 
ATOM      2  C   UNL     1       4.381   1.183  -3.299  0.00  0.00    +0.160 C 
ATOM      3  C   UNL     1       5.370   1.904  -2.371  0.00  0.00    +0.276 C 
ATOM      4  O   UNL     1       6.524   1.078  -2.197  0.00  0.00    -0.476 OA
ATOM      5  C   UNL     1       6.326  -0.225  -1.863  0.00  0.00    +0.143 A 
ATOM      6  C   UNL     1       5.098  -0.839  -2.091  0.00  0.00    +0.073 A 
ATOM      7  C   UNL     1       4.912  -2.167  -1.744  0.00  0.00    +0.027 A 
ATOM      8  C   UNL     1       5.946  -2.880  -1.163  0.00  0.00    +0.002 A 
ATOM      9  C   UNL     1       7.162  -2.268  -0.930  0.00  0.00    +0.004 A 
ATOM     10  C   UNL     1       7.357  -0.949  -1.285  0.00  0.00    +0.047 A 
ENDROOT
BRANCH   3  11
ATOM     11  C   UNL     1       5.774   3.218  -2.987  0.00  0.00    +0.258 C 
ATOM     12  O   UNL     1       6.924   3.401  -3.326  0.00  0.00    -0.271 OA
ATOM     13  N   UNL     1       4.858   4.191  -3.161  0.00  0.00    -0.298 N 
ATOM     14  C   UNL     1       3.462   3.987  -2.750  0.00  0.00    +0.108 C 
ATOM     15  C   UNL     1       3.047   5.136  -1.826  0.00  0.00    +0.019 C 
ATOM     16  C   UNL     1       3.306   6.470  -2.529  0.00  0.00    +0.003 C 
ATOM     17  C   UNL     1       4.801   6.608  -2.830  0.00  0.00    +0.019 C 
ATOM     18  C   UNL     1       5.237   5.478  -3.761  0.00  0.00    +0.108 C 
ENDBRANCH   3  11
BRANCH   1  19
ATOM     19  C   UNL     1       2.677  -0.618  -2.667  0.00  0.00    +0.201 C 
BRANCH  19  21
ATOM     20  N   UNL     1       0.688  -0.476  -1.203  0.00  0.00    -0.309 N 
ATOM     21  C   UNL     1       1.972  -0.132  -1.427  0.00  0.00    +0.231 C 
ATOM     22  O   UNL     1       2.559   0.569  -0.630  0.00  0.00    -0.274 OA
ATOM     23  H   UNL     1       0.218  -1.037  -1.840  0.00  0.00    +0.149 HD
BRANCH  20  25
ATOM     24  C   UNL     1      -0.019   1.526   0.010  0.00  0.00    +0.031 C 
ATOM     25  C   UNL     1       0.002  -0.004   0.002  0.00  0.00    +0.026 C 
ATOM     26  C   UNL     1       0.742  -0.511   1.242  0.00  0.00    +0.031 C 
ATOM     27  C   UNL     1      -1.433  -0.534   0.013  0.00  0.00    +0.031 C 
ENDBRANCH  20  25
ENDBRANCH  19  21
ENDBRANCH   1  19
TORSDOF 4
