REMARK  Name = ZINC05128779
REMARK  10 active torsions:
REMARK  status: ('A' for Active; 'I' for Inactive)
REMARK    1  A    between atoms: C_1  and  C_2
REMARK    2  A    between atoms: C_2  and  O_3
REMARK    3  A    between atoms: O_3  and  C_4
REMARK    4  A    between atoms: C_4  and  C_6
REMARK    5  A    between atoms: C_6  and  N_17
REMARK    6  A    between atoms: C_7  and  N_8
REMARK    7  A    between atoms: N_8  and  C_9
REMARK    8  A    between atoms: C_14  and  C_15
REMARK    9  A    between atoms: C_18  and  C_20
REMARK   10  A    between atoms: C_23  and  N_26
REMARK                            x       y       z     vdW  Elec       q    Type
REMARK                         _______ _______ _______ _____ _____    ______ ____
ROOT
ATOM      1  C   UNL     1       1.422  -2.323  -2.477  0.00  0.00    +0.133 C 
ATOM      2  C   UNL     1       1.608  -3.659  -2.589  0.00  0.00    +0.103 C 
ENDROOT
BRANCH   1   3
ATOM      3  N   UNL     1       1.871  -1.463  -3.497  0.00  0.00    -0.275 N 
ATOM      4  C   UNL     1       2.773  -0.500  -3.218  0.00  0.00    +0.248 C 
ATOM      5  O   UNL     1       3.270  -0.436  -2.110  0.00  0.00    -0.270 OA
ATOM      6  H   UNL     1       1.532  -1.562  -4.400  0.00  0.00    +0.155 HD
BRANCH   4   7
ATOM      7  C   UNL     1       3.156   0.477  -4.258  0.00  0.00    +0.037 A 
ATOM      8  C   UNL     1       2.582   0.410  -5.529  0.00  0.00    +0.015 A 
ATOM      9  C   UNL     1       2.944   1.326  -6.495  0.00  0.00    +0.033 A 
ATOM     10  C   UNL     1       3.874   2.309  -6.207  0.00  0.00    +0.126 A 
ATOM     11  C   UNL     1       4.446   2.381  -4.950  0.00  0.00    +0.033 A 
ATOM     12  C   UNL     1       4.089   1.475  -3.973  0.00  0.00    +0.015 A 
BRANCH  10  13
ATOM     13  N   UNL     1       4.258   3.288  -7.249  0.00  0.00    +0.056 N 
ATOM     14  O   UNL     1       3.760   3.227  -8.349  0.00  0.00    -0.126 OA
ATOM     15  O   UNL     1       5.070   4.148  -7.000  0.00  0.00    -0.126 OA
ENDBRANCH  10  13
ENDBRANCH   4   7
ENDBRANCH   1   3
BRANCH   1  16
ATOM     16  C   UNL     1       0.776  -1.791  -1.333  0.00  0.00    +0.355 C 
ATOM     17  O   UNL     1       0.310  -2.539  -0.494  0.00  0.00    -0.243 OA
BRANCH  16  18
ATOM     18  O   UNL     1       0.677  -0.454  -1.175  0.00  0.00    -0.461 OA
BRANCH  18  20
ATOM     19  C   UNL     1      -0.001   1.543   0.005  0.00  0.00    +0.048 C 
ATOM     20  C   UNL     1       0.013   0.013   0.001  0.00  0.00    +0.229 C 
ENDBRANCH  18  20
ENDBRANCH  16  18
ENDBRANCH   1  16
BRANCH   2  21
ATOM     21  N   UNL     1       2.233  -4.174  -3.696  0.00  0.00    -0.318 N 
ATOM     22  H   UNL     1       2.543  -3.581  -4.398  0.00  0.00    +0.152 HD
BRANCH  21  23
ATOM     23  C   UNL     1       2.424  -5.547  -3.810  0.00  0.00    +0.049 A 
ATOM     24  C   UNL     1       1.978  -6.400  -2.809  0.00  0.00    +0.024 A 
ATOM     25  C   UNL     1       2.168  -7.762  -2.925  0.00  0.00    +0.002 A 
ATOM     26  C   UNL     1       2.804  -8.290  -4.038  0.00  0.00    +0.001 A 
ATOM     27  C   UNL     1       3.254  -7.459  -5.042  0.00  0.00    +0.021 A 
ATOM     28  C   UNL     1       3.064  -6.079  -4.941  0.00  0.00    +0.073 A 
BRANCH  28  29
ATOM     29  C   UNL     1       3.524  -5.211  -5.983  0.00  0.00    +0.101 C 
ATOM     30  N   UNL     1       3.889  -4.522  -6.810  0.00  0.00    -0.191 NA
ENDBRANCH  28  29
ENDBRANCH  21  23
ENDBRANCH   2  21
TORSDOF 9
