REMARK  Name = ZINC63807817
REMARK  9 active torsions:
REMARK  status: ('A' for Active; 'I' for Inactive)
REMARK    1  A    between atoms: C_1  and  C_2
REMARK    2  A    between atoms: C_2  and  O_3
REMARK    3  A    between atoms: O_3  and  C_4
REMARK    4  A    between atoms: C_4  and  C_6
REMARK    5  A    between atoms: C_6  and  C_7
REMARK    6  A    between atoms: C_12  and  C_14
REMARK    7  A    between atoms: C_16  and  C_21
REMARK    8  A    between atoms: C_24  and  O_27
REMARK    9  A    between atoms: O_27  and  C_28
REMARK                            x       y       z     vdW  Elec       q    Type
REMARK                         _______ _______ _______ _____ _____    ______ ____
ROOT
ATOM      1  C   UNL     1       1.450  -3.859  -2.489  0.00  0.00    +0.061 A 
ATOM      2  C   UNL     1       0.947  -4.602  -3.506  0.00  0.00    +0.072 A 
ATOM      3  S   UNL     1       1.198  -6.251  -2.868  0.00  0.00    -0.060 S 
ATOM      4  C   UNL     1       1.903  -5.828  -1.400  0.00  0.00    +0.165 A 
ATOM      5  N   UNL     1       2.356  -6.664  -0.386  0.00  0.00    -0.264 N 
ATOM      6  C   UNL     1       2.252  -8.001  -0.518  0.00  0.00    +0.235 C 
ATOM      7  O   UNL     1       1.763  -8.475  -1.522  0.00  0.00    -0.274 OA
ATOM      8  N   UNL     1       1.927  -4.513  -1.447  0.00  0.00    -0.229 NA
ATOM      9  H   UNL     1       2.747  -6.285   0.417  0.00  0.00    +0.157 HD
ENDROOT
BRANCH   6  10
ATOM     10  C   UNL     1       2.742  -8.908   0.581  0.00  0.00    +0.172 C 
ATOM     11  C   UNL     1       3.269 -10.243   0.005  0.00  0.00    +0.123 C 
ATOM     12  N   UNL     1       2.592 -11.409   0.579  0.00  0.00    -0.238 NA
ATOM     13  N   UNL     1       1.184 -11.133   0.922  0.00  0.00    -0.199 NA
ATOM     14  S   UNL     1       1.345  -9.488   1.633  0.00  0.00    -0.051 S 
ATOM     15  H   UNL     1       3.096 -11.764   1.377  0.00  0.00    +0.142 HD
ATOM     16  H   UNL     1       0.606 -11.115   0.095  0.00  0.00    +0.154 HD
BRANCH  11  17
ATOM     17  C   UNL     1       4.745 -10.349   0.293  0.00  0.00    -0.027 A 
ATOM     18  C   UNL     1       5.176 -10.754   1.543  0.00  0.00    +0.009 A 
ATOM     19  C   UNL     1       6.528 -10.852   1.810  0.00  0.00    +0.046 A 
ATOM     20  C   UNL     1       7.453 -10.544   0.823  0.00  0.00    +0.120 A 
ATOM     21  C   UNL     1       7.017 -10.138  -0.430  0.00  0.00    +0.046 A 
ATOM     22  C   UNL     1       5.664 -10.047  -0.694  0.00  0.00    +0.009 A 
BRANCH  20  23
ATOM     23  O   UNL     1       8.784 -10.639   1.083  0.00  0.00    -0.495 OA
ATOM     24  C   UNL     1       9.678 -10.306   0.019  0.00  0.00    +0.277 C 
ENDBRANCH  20  23
ENDBRANCH  11  17
ENDBRANCH   6  10
BRANCH   1  25
ATOM     25  C   UNL     1       1.468  -2.353  -2.550  0.00  0.00    +0.176 C 
BRANCH  25  26
ATOM     26  C   UNL     1       0.775  -1.794  -1.334  0.00  0.00    +0.313 C 
ATOM     27  O   UNL     1       0.314  -2.540  -0.504  0.00  0.00    -0.250 OA
BRANCH  26  28
ATOM     28  O   UNL     1       0.671  -0.465  -1.174  0.00  0.00    -0.465 OA
BRANCH  28  30
ATOM     29  C   UNL     1      -0.019   1.526   0.010  0.00  0.00    +0.048 C 
ATOM     30  C   UNL     1       0.002  -0.004   0.002  0.00  0.00    +0.229 C 
ENDBRANCH  28  30
ENDBRANCH  26  28
ENDBRANCH  25  26
ENDBRANCH   1  25
TORSDOF 7
