REMARK  Name = ZINC45158332
REMARK  9 active torsions:
REMARK  status: ('A' for Active; 'I' for Inactive)
REMARK    1  A    between atoms: C_1  and  C_2
REMARK    2  A    between atoms: C_4  and  C_9
REMARK    3  A    between atoms: C_7  and  O_8
REMARK    4  A    between atoms: C_10  and  C_11
REMARK    5  A    between atoms: C_10  and  C_13
REMARK    6  A    between atoms: C_15  and  C_18
REMARK    7  A    between atoms: C_18  and  S_19
REMARK    8  A    between atoms: S_19  and  C_20
REMARK    9  A    between atoms: C_26  and  N_30
REMARK                            x       y       z     vdW  Elec       q    Type
REMARK                         _______ _______ _______ _____ _____    ______ ____
ROOT
ATOM      1  C   UNL     1       0.264  -4.900  -3.757  0.00  0.00    +0.119 A 
ATOM      2  N   UNL     1       0.383  -6.203  -3.979  0.00  0.00    -0.242 NA
ATOM      3  C   UNL     1       0.474  -6.680  -5.199  0.00  0.00    +0.059 A 
ATOM      4  C   UNL     1       0.446  -5.832  -6.262  0.00  0.00    +0.071 A 
ATOM      5  S   UNL     1       0.271  -4.260  -5.427  0.00  0.00    -0.075 S 
ENDROOT
BRANCH   1   7
ATOM      6  C   UNL     1       0.028  -2.816  -2.473  0.00  0.00    +0.029 C 
ATOM      7  C   UNL     1       0.150  -4.175  -2.478  0.00  0.00    +0.084 C 
BRANCH   6  11
ATOM      8  C   UNL     1       1.633  -2.419   2.227  0.00  0.00    +0.047 C 
ATOM      9  C   UNL     1       0.836  -1.886   1.065  0.00  0.00    -0.008 A 
ATOM     10  C   UNL     1       0.805  -2.579  -0.124  0.00  0.00    +0.015 A 
ATOM     11  C   UNL     1       0.064  -2.082  -1.203  0.00  0.00    -0.023 A 
ATOM     12  C   UNL     1      -0.643  -0.880  -1.066  0.00  0.00    +0.011 A 
ATOM     13  C   UNL     1      -0.605  -0.195   0.127  0.00  0.00    +0.046 A 
ATOM     14  C   UNL     1       0.128  -0.697   1.197  0.00  0.00    +0.120 A 
BRANCH  14  15
ATOM     15  O   UNL     1       0.157  -0.019   2.373  0.00  0.00    -0.507 OA
ATOM     16  H   UNL     1       0.872   0.628   2.437  0.00  0.00    +0.292 HD
ENDBRANCH  14  15
ENDBRANCH   6  11
BRANCH   7  17
ATOM     17  C   UNL     1       0.166  -4.897  -1.242  0.00  0.00    +0.102 C 
ATOM     18  N   UNL     1       0.179  -5.471  -0.261  0.00  0.00    -0.191 NA
ENDBRANCH   7  17
ENDBRANCH   1   7
BRANCH   3  19
ATOM     19  C   UNL     1       0.609  -8.164  -5.420  0.00  0.00    +0.133 C 
BRANCH  19  20
ATOM     20  S   UNL     1      -1.039  -8.904  -5.580  0.00  0.00    -0.082 S 
BRANCH  20  21
ATOM     21  C   UNL     1      -0.715 -10.618  -5.831  0.00  0.00    +0.168 A 
ATOM     22  N   UNL     1      -1.668 -11.580  -6.010  0.00  0.00    -0.333 N 
ATOM     23  H   UNL     1      -2.629 -11.443  -6.020  0.00  0.00    +0.168 HD
ATOM     24  C   UNL     1      -1.008 -12.787  -6.173  0.00  0.00    +0.067 A 
ATOM     25  C   UNL     1      -1.429 -14.091  -6.386  0.00  0.00    +0.030 A 
ATOM     26  C   UNL     1      -0.497 -15.101  -6.510  0.00  0.00    +0.035 A 
ATOM     27  C   UNL     1       0.859 -14.821  -6.423  0.00  0.00    +0.128 A 
ATOM     28  C   UNL     1       1.294 -13.532  -6.210  0.00  0.00    +0.062 A 
ATOM     29  C   UNL     1       0.363 -12.498  -6.083  0.00  0.00    +0.092 A 
ATOM     30  N   UNL     1       0.478 -11.159  -5.879  0.00  0.00    -0.222 NA
BRANCH  27  31
ATOM     31  N   UNL     1       1.845 -15.916  -6.558  0.00  0.00    +0.056 N 
ATOM     32  O   UNL     1       1.468 -17.050  -6.744  0.00  0.00    -0.126 OA
ATOM     33  O   UNL     1       3.028 -15.678  -6.482  0.00  0.00    -0.126 OA
ENDBRANCH  27  31
ENDBRANCH  20  21
ENDBRANCH  19  20
ENDBRANCH   3  19
TORSDOF 8
