REMARK  Name = ZINC41585416
REMARK  9 active torsions:
REMARK  status: ('A' for Active; 'I' for Inactive)
REMARK    1  A    between atoms: C_1  and  C_2
REMARK    2  A    between atoms: C_4  and  O_36
REMARK    3  A    between atoms: C_5  and  C_22
REMARK    4  A    between atoms: C_11  and  C_12
REMARK    5  A    between atoms: C_15  and  N_18
REMARK    6  A    between atoms: N_18  and  C_19
REMARK    7  A    between atoms: N_18  and  C_20
REMARK    8  A    between atoms: C_22  and  N_23
REMARK    9  A    between atoms: N_26  and  C_29
REMARK                            x       y       z     vdW  Elec       q    Type
REMARK                         _______ _______ _______ _____ _____    ______ ____
ROOT
ATOM      1  C   UNL     1       0.228   1.310   0.024  0.00  0.00    +0.045 C 
ATOM      2  C   UNL     1      -0.093  -0.162   0.062  0.00  0.00    -0.033 A 
ATOM      3  C   UNL     1      -0.326  -0.842  -1.100  0.00  0.00    +0.050 A 
ATOM      4  C   UNL     1      -0.622  -2.202  -1.067  0.00  0.00    +0.122 A 
ATOM      5  C   UNL     1      -0.684  -2.881   0.140  0.00  0.00    +0.020 A 
ATOM      6  C   UNL     1      -0.449  -2.205   1.330  0.00  0.00    +0.145 A 
ATOM      7  C   UNL     1      -0.146  -0.834   1.284  0.00  0.00    +0.071 A 
ATOM      8  C   UNL     1       0.054  -0.406   2.680  0.00  0.00    +0.232 C 
ATOM      9  O   UNL     1       0.330   0.710   3.086  0.00  0.00    -0.283 OA
ATOM     10  C   UNL     1      -0.152  -1.625   3.473  0.00  0.00    +0.176 C 
ATOM     11  C   UNL     1      -0.071  -1.726   4.825  0.00  0.00    +0.058 C 
ATOM     12  O   UNL     1      -0.449  -2.628   2.613  0.00  0.00    -0.451 OA
ENDROOT
BRANCH  11  13
ATOM     13  C   UNL     1       0.067  -0.517   5.644  0.00  0.00    -0.021 A 
ATOM     14  C   UNL     1      -0.698   0.621   5.353  0.00  0.00    +0.010 A 
ATOM     15  C   UNL     1      -0.567   1.744   6.118  0.00  0.00    +0.023 A 
ATOM     16  C   UNL     1       0.326   1.760   7.187  0.00  0.00    +0.029 A 
ATOM     17  C   UNL     1       1.089   0.633   7.481  0.00  0.00    +0.023 A 
ATOM     18  C   UNL     1       0.959  -0.498   6.725  0.00  0.00    +0.010 A 
BRANCH  16  19
ATOM     19  N   UNL     1       0.457   2.907   7.964  0.00  0.00    -0.336 N 
ATOM     20  C   UNL     1      -0.247   4.134   7.582  0.00  0.00    +0.129 C 
ATOM     21  C   UNL     1       1.298   2.888   9.163  0.00  0.00    +0.129 C 
ENDBRANCH  16  19
ENDBRANCH  11  13
BRANCH   4  22
ATOM     22  O   UNL     1      -0.853  -2.869  -2.227  0.00  0.00    -0.506 OA
ATOM     23  H   UNL     1      -0.059  -3.251  -2.625  0.00  0.00    +0.292 HD
ENDBRANCH   4  22
BRANCH   5  24
ATOM     24  C   UNL     1      -1.006  -4.353   0.160  0.00  0.00    -0.035 C 
BRANCH  24  25
ATOM     25  N   UNL     1       0.239  -5.128   0.069  0.00  0.00    +0.385 N 
ATOM     26  C   UNL     1       0.875  -4.878  -1.231  0.00  0.00    -0.059 C 
ATOM     27  C   UNL     1       2.228  -5.594  -1.282  0.00  0.00    +0.086 C 
ATOM     28  N   UNL     1       2.015  -7.017  -0.975  0.00  0.00    -0.331 N 
ATOM     29  C   UNL     1       1.241  -7.358   0.229  0.00  0.00    +0.086 C 
ATOM     30  C   UNL     1      -0.066  -6.558   0.209  0.00  0.00    -0.059 C 
ATOM     31  H   UNL     1       0.865  -4.845   0.807  0.00  0.00    -0.081 HD
BRANCH  28  32
ATOM     32  C   UNL     1       2.532  -8.017  -1.805  0.00  0.00    +0.065 A 
ATOM     33  C   UNL     1       3.800  -8.531  -1.567  0.00  0.00    +0.026 A 
ATOM     34  C   UNL     1       4.308  -9.520  -2.388  0.00  0.00    +0.002 A 
ATOM     35  C   UNL     1       3.556  -9.997  -3.446  0.00  0.00    +0.003 A 
ATOM     36  C   UNL     1       2.293  -9.488  -3.687  0.00  0.00    +0.040 A 
ATOM     37  C   UNL     1       1.776  -8.503  -2.866  0.00  0.00    +0.144 A 
ATOM     38  F   UNL     1       0.539  -8.010  -3.097  0.00  0.00    -0.204 F 
ENDBRANCH  28  32
ENDBRANCH  24  25
ENDBRANCH   5  24
TORSDOF 6
