REMARK  Name = ZINC00529953
REMARK  5 active torsions:
REMARK  status: ('A' for Active; 'I' for Inactive)
REMARK    1  A    between atoms: C_1  and  C_2
REMARK    2  A    between atoms: C_2  and  C_3
REMARK    3  A    between atoms: C_2  and  O_4
REMARK    4  A    between atoms: O_4  and  C_5
REMARK    5  A    between atoms: C_8  and  C_11
REMARK                            x       y       z     vdW  Elec       q    Type
REMARK                         _______ _______ _______ _____ _____    ______ ____
ROOT
ATOM      1  C   UNL     1      -2.307  -0.985   5.900  0.00  0.00    +0.190 C 
ATOM      2  N   UNL     1      -1.656  -1.973   6.779  0.00  0.00    -0.316 N 
ATOM      3  C   UNL     1      -1.920  -3.296   6.519  0.00  0.00    +0.080 A 
ATOM      4  C   UNL     1      -3.083  -3.715   5.859  0.00  0.00    +0.068 A 
ATOM      5  C   UNL     1      -3.205  -5.148   5.650  0.00  0.00    -0.023 A 
ATOM      6  C   UNL     1      -2.175  -5.876   6.134  0.00  0.00    -0.005 A 
ATOM      7  S   UNL     1      -1.073  -4.685   6.846  0.00  0.00    -0.078 S 
ATOM      8  C   UNL     1      -2.015  -7.363   6.073  0.00  0.00    +0.043 C 
ATOM      9  C   UNL     1      -3.374  -7.981   5.710  0.00  0.00    +0.005 C 
ATOM     10  C   UNL     1      -3.959  -7.222   4.516  0.00  0.00    +0.005 C 
ATOM     11  C   UNL     1      -4.380  -5.816   4.948  0.00  0.00    +0.037 C 
ATOM     12  C   UNL     1      -4.058  -2.676   5.454  0.00  0.00    +0.248 C 
ATOM     13  O   UNL     1      -5.164  -2.971   5.040  0.00  0.00    -0.270 OA
ATOM     14  N   UNL     1      -3.667  -1.389   5.563  0.00  0.00    -0.289 N 
ATOM     15  H   UNL     1      -1.072  -1.702   7.504  0.00  0.00    +0.149 HD
ATOM     16  H   UNL     1      -4.328  -0.696   5.408  0.00  0.00    +0.151 HD
ENDROOT
BRANCH   1  20
ATOM     17  C   UNL     1      -0.031  -0.600   2.303  0.00  0.00    +0.121 A 
ATOM     18  C   UNL     1      -1.400  -0.376   2.286  0.00  0.00    +0.046 A 
ATOM     19  C   UNL     1      -2.133  -0.502   3.450  0.00  0.00    +0.010 A 
ATOM     20  C   UNL     1      -1.504  -0.849   4.631  0.00  0.00    -0.009 A 
ATOM     21  C   UNL     1      -0.140  -1.072   4.651  0.00  0.00    +0.010 A 
ATOM     22  C   UNL     1       0.598  -0.954   3.489  0.00  0.00    +0.046 A 
BRANCH  17  23
ATOM     23  O   UNL     1       0.693  -0.477   1.160  0.00  0.00    -0.489 OA
BRANCH  23  25
ATOM     24  C   UNL     1      -0.292   1.273  -0.184  0.00  0.00    +0.051 C 
ATOM     25  C   UNL     1      -0.034  -0.229  -0.045  0.00  0.00    +0.167 C 
ATOM     26  C   UNL     1       0.781  -0.720  -1.243  0.00  0.00    +0.051 C 
ENDBRANCH  23  25
ENDBRANCH  17  23
ENDBRANCH   1  20
TORSDOF 3
