REMARK  Name = ZINC20319360
REMARK  6 active torsions:
REMARK  status: ('A' for Active; 'I' for Inactive)
REMARK    1  A    between atoms: C_1  and  C_2
REMARK    2  A    between atoms: C_4  and  C_26
REMARK    3  A    between atoms: C_6  and  N_8
REMARK    4  A    between atoms: N_8  and  C_9
REMARK    5  A    between atoms: N_19  and  C_20
REMARK    6  A    between atoms: C_20  and  C_21
REMARK                            x       y       z     vdW  Elec       q    Type
REMARK                         _______ _______ _______ _____ _____    ______ ____
ROOT
ATOM      1  C   UNL     1       2.862  -0.247  -2.408  0.00  0.00    +0.212 C 
ATOM      2  C   UNL     1       3.546  -0.066  -3.741  0.00  0.00    +0.092 A 
ATOM      3  C   UNL     1       3.906   1.281  -3.816  0.00  0.00    +0.062 A 
ATOM      4  C   UNL     1       4.570   1.740  -4.958  0.00  0.00    +0.016 A 
ATOM      5  C   UNL     1       4.842   0.832  -5.966  0.00  0.00    +0.020 A 
ATOM      6  C   UNL     1       4.452  -0.487  -5.815  0.00  0.00    +0.111 A 
ATOM      7  N   UNL     1       3.826  -0.892  -4.725  0.00  0.00    -0.256 NA
ATOM      8  C   UNL     1       3.466   1.952  -2.579  0.00  0.00    +0.250 C 
ATOM      9  O   UNL     1       3.628   3.131  -2.332  0.00  0.00    -0.270 OA
ATOM     10  N   UNL     1       2.859   1.071  -1.764  0.00  0.00    -0.269 N 
ENDROOT
BRANCH   1  11
ATOM     11  N   UNL     1       3.603  -1.207  -1.585  0.00  0.00    -0.321 N 
ATOM     12  H   UNL     1       4.702  -1.178  -1.562  0.00  0.00    +0.148 HD
BRANCH  11  18
ATOM     13  C   UNL     1      -0.657  -3.018   0.066  0.00  0.00    +0.044 C 
ATOM     14  C   UNL     1       0.848  -3.061  -0.012  0.00  0.00    -0.048 A 
ATOM     15  C   UNL     1       1.547  -4.044   0.663  0.00  0.00    +0.006 A 
ATOM     16  C   UNL     1       2.927  -4.087   0.594  0.00  0.00    -0.048 A 
ATOM     17  C   UNL     1       3.612  -3.148  -0.151  0.00  0.00    +0.026 A 
ATOM     18  C   UNL     1       2.913  -2.159  -0.831  0.00  0.00    +0.029 A 
ATOM     19  C   UNL     1       1.527  -2.115  -0.755  0.00  0.00    +0.026 A 
ATOM     20  C   UNL     1       3.685  -5.160   1.333  0.00  0.00    +0.044 C 
ENDBRANCH  11  18
ENDBRANCH   1  11
BRANCH  10  21
ATOM     21  C   UNL     1       2.294   1.377  -0.448  0.00  0.00    +0.152 C 
BRANCH  21  22
ATOM     22  C   UNL     1       0.850   1.781  -0.602  0.00  0.00    +0.007 A 
ATOM     23  C   UNL     1      -0.261   1.004  -0.583  0.00  0.00    +0.013 A 
ATOM     24  C   UNL     1      -1.497   1.598  -0.753  0.00  0.00    +0.008 A 
ATOM     25  C   UNL     1      -1.563   2.942  -0.924  0.00  0.00    +0.045 A 
ATOM     26  S   UNL     1       0.160   3.407  -0.860  0.00  0.00    -0.100 S 
ENDBRANCH  21  22
ENDBRANCH  10  21
TORSDOF 4
