REMARK  Name = ZINC36206724
REMARK  17 active torsions:
REMARK  status: ('A' for Active; 'I' for Inactive)
REMARK    1  A    between atoms: C_1  and  C_2
REMARK    2  A    between atoms: C_2  and  C_3
REMARK    3  A    between atoms: C_9  and  C_18
REMARK    4  A    between atoms: C_13  and  C_14
REMARK    5  A    between atoms: C_14  and  O_16
REMARK    6  A    between atoms: O_16  and  C_17
REMARK    7  A    between atoms: C_18  and  N_19
REMARK    8  A    between atoms: N_19  and  C_20
REMARK    9  A    between atoms: N_19  and  C_27
REMARK   10  A    between atoms: C_20  and  C_21
REMARK   11  A    between atoms: C_27  and  C_28
REMARK   12  A    between atoms: C_28  and  C_30
REMARK   13  A    between atoms: C_28  and  O_35
REMARK   14  A    between atoms: C_30  and  O_31
REMARK   15  A    between atoms: O_31  and  C_32
REMARK   16  A    between atoms: C_32  and  C_33
REMARK   17  A    between atoms: C_32  and  C_34
REMARK                            x       y       z     vdW  Elec       q    Type
REMARK                         _______ _______ _______ _____ _____    ______ ____
ROOT
ATOM      1  C   UNL     1      -5.025  -1.005   4.495  0.00  0.00    -0.003 C 
ENDROOT
BRANCH   1   8
ATOM      2  C   UNL     1      -2.619   1.103  -0.163  0.00  0.00    -0.012 A 
ATOM      3  C   UNL     1      -3.117   0.665   1.066  0.00  0.00    +0.076 A 
ATOM      4  C   UNL     1      -2.689   1.035   2.434  0.00  0.00    +0.260 A 
ATOM      5  O   UNL     1      -1.780   1.826   2.612  0.00  0.00    -0.267 OA
ATOM      6  N   UNL     1      -3.331   0.473   3.477  0.00  0.00    -0.312 N 
ATOM      7  H   UNL     1      -3.063   0.705   4.380  0.00  0.00    +0.170 HD
ATOM      8  C   UNL     1      -4.344  -0.408   3.291  0.00  0.00    +0.094 A 
ATOM      9  N   UNL     1      -4.747  -0.755   2.099  0.00  0.00    -0.229 NA
ATOM     10  C   UNL     1      -4.183  -0.262   1.003  0.00  0.00    +0.116 A 
ATOM     11  S   UNL     1      -4.435  -0.476  -0.741  0.00  0.00    -0.062 S 
ATOM     12  C   UNL     1      -3.167   0.637  -1.323  0.00  0.00    +0.102 A 
BRANCH   2  14
ATOM     13  C   UNL     1      -2.045   3.515  -0.214  0.00  0.00    +0.009 C 
ATOM     14  C   UNL     1      -1.483   2.092  -0.208  0.00  0.00    +0.034 C 
ENDBRANCH   2  14
BRANCH  12  15
ATOM     15  C   UNL     1      -2.804   0.967  -2.703  0.00  0.00    +0.346 C 
ATOM     16  O   UNL     1      -1.903   1.753  -2.923  0.00  0.00    -0.244 OA
BRANCH  15  17
ATOM     17  O   UNL     1      -3.469   0.398  -3.730  0.00  0.00    -0.464 OA
ATOM     18  C   UNL     1      -3.061   0.765  -5.049  0.00  0.00    +0.280 C 
ENDBRANCH  15  17
ENDBRANCH  12  15
ENDBRANCH   1   8
BRANCH   1  19
ATOM     19  N   UNL     1      -6.083  -1.924   4.054  0.00  0.00    +0.389 N 
ATOM     20  H   UNL     1      -6.714  -1.438   3.435  0.00  0.00    -0.081 HD
BRANCH  19  21
ATOM     21  C   UNL     1      -5.480  -3.061   3.346  0.00  0.00    -0.042 C 
BRANCH  21  22
ATOM     22  C   UNL     1      -4.440  -3.706   4.225  0.00  0.00    -0.064 A 
ATOM     23  C   UNL     1      -3.124  -3.287   4.161  0.00  0.00    +0.002 A 
ATOM     24  C   UNL     1      -2.170  -3.878   4.967  0.00  0.00    +0.000 A 
ATOM     25  C   UNL     1      -2.532  -4.889   5.838  0.00  0.00    +0.000 A 
ATOM     26  C   UNL     1      -3.847  -5.307   5.903  0.00  0.00    +0.000 A 
ATOM     27  C   UNL     1      -4.802  -4.713   5.100  0.00  0.00    +0.002 A 
ENDBRANCH  21  22
ENDBRANCH  19  21
BRANCH  19  28
ATOM     28  C   UNL     1      -6.825  -2.413   5.224  0.00  0.00    -0.044 C 
BRANCH  28  29
ATOM     29  C   UNL     1      -8.133  -3.061   4.763  0.00  0.00    +0.124 C 
BRANCH  29  30
ATOM     30  O   UNL     1      -7.842  -4.254   4.033  0.00  0.00    -0.391 OA
ATOM     31  H   UNL     1      -7.469  -4.965   4.573  0.00  0.00    +0.210 HD
ENDBRANCH  29  30
BRANCH  29  32
ATOM     32  C   UNL     1      -8.989  -3.405   5.984  0.00  0.00    +0.189 C 
BRANCH  32  33
ATOM     33  O   UNL     1     -10.257  -3.902   5.552  0.00  0.00    -0.375 OA
BRANCH  33  34
ATOM     34  C   UNL     1     -11.138  -4.255   6.620  0.00  0.00    +0.112 C 
ATOM     35  C   UNL     1     -12.587  -4.048   6.176  0.00  0.00    +0.037 C 
ATOM     36  C   UNL     1     -10.924  -5.723   6.993  0.00  0.00    +0.037 C 
ENDBRANCH  33  34
ENDBRANCH  32  33
ENDBRANCH  29  32
ENDBRANCH  28  29
ENDBRANCH  19  28
ENDBRANCH   1  19
TORSDOF 13
