REMARK  Name = ZINC02597752
REMARK  9 active torsions:
REMARK  status: ('A' for Active; 'I' for Inactive)
REMARK    1  A    between atoms: C_1  and  C_2
REMARK    2  A    between atoms: C_5  and  C_8
REMARK    3  A    between atoms: C_8  and  O_10
REMARK    4  A    between atoms: O_10  and  C_11
REMARK    5  A    between atoms: C_14  and  C_17
REMARK    6  A    between atoms: N_18  and  N_19
REMARK    7  A    between atoms: C_20  and  C_22
REMARK    8  A    between atoms: C_22  and  N_23
REMARK    9  A    between atoms: C_24  and  C_26
REMARK                            x       y       z     vdW  Elec       q    Type
REMARK                         _______ _______ _______ _____ _____    ______ ____
ROOT
ATOM      1  N   UNL     1       3.930  11.287  -0.019  0.00  0.00    -0.206 N 
ATOM      2  C   UNL     1       3.204  10.155  -0.104  0.00  0.00    +0.249 C 
ATOM      3  O   UNL     1       1.994  10.214  -0.176  0.00  0.00    -0.272 OA
ATOM      4  H   UNL     1       4.898  11.239   0.039  0.00  0.00    +0.177 HD
ENDROOT
BRANCH   1   6
ATOM      5  C   UNL     1       3.989  13.622   0.070  0.00  0.00    +0.138 C 
ATOM      6  N   UNL     1       3.289  12.532  -0.013  0.00  0.00    -0.188 NA
BRANCH   5  10
ATOM      7  C   UNL     1       2.044  17.396   0.088  0.00  0.00    +0.132 A 
ATOM      8  C   UNL     1       3.429  17.330   0.170  0.00  0.00    +0.047 A 
ATOM      9  C   UNL     1       4.065  16.108   0.165  0.00  0.00    +0.013 A 
ATOM     10  C   UNL     1       3.313  14.933   0.076  0.00  0.00    -0.005 A 
ATOM     11  C   UNL     1       1.921  15.004  -0.013  0.00  0.00    +0.013 A 
ATOM     12  C   UNL     1       1.294  16.231  -0.001  0.00  0.00    +0.047 A 
BRANCH   7  13
ATOM     13  O   UNL     1       1.422  18.604   0.095  0.00  0.00    -0.422 OA
BRANCH  13  14
ATOM     14  C   UNL     1       1.591  19.385  -0.990  0.00  0.00    +0.344 C 
ATOM     15  O   UNL     1       2.187  18.957  -1.959  0.00  0.00    -0.245 OA
BRANCH  14  20
ATOM     16  C   UNL     1      -0.509  24.741  -1.036  0.00  0.00    +0.044 C 
ATOM     17  C   UNL     1       0.041  23.338  -1.024  0.00  0.00    -0.050 A 
ATOM     18  C   UNL     1       0.719  22.855  -2.129  0.00  0.00    +0.004 A 
ATOM     19  C   UNL     1       1.225  21.572  -2.125  0.00  0.00    +0.015 A 
ATOM     20  C   UNL     1       1.052  20.760  -1.002  0.00  0.00    +0.059 A 
ATOM     21  C   UNL     1       0.362  21.252   0.108  0.00  0.00    +0.015 A 
ATOM     22  C   UNL     1      -0.134  22.539   0.093  0.00  0.00    +0.004 A 
ENDBRANCH  14  20
ENDBRANCH  13  14
ENDBRANCH   7  13
ENDBRANCH   5  10
ENDBRANCH   1   6
BRANCH   2  23
ATOM     23  C   UNL     1       3.894   8.815  -0.111  0.00  0.00    +0.202 C 
BRANCH  23  24
ATOM     24  N   UNL     1       2.893   7.750  -0.211  0.00  0.00    -0.302 N 
ATOM     25  C   UNL     1       3.281   6.460  -0.234  0.00  0.00    +0.253 C 
ATOM     26  O   UNL     1       4.463   6.179  -0.172  0.00  0.00    -0.270 OA
ATOM     27  H   UNL     1       1.950   7.974  -0.261  0.00  0.00    +0.150 HD
BRANCH  25  28
ATOM     28  C   UNL     1       2.277   5.393  -0.334  0.00  0.00    +0.093 A 
ATOM     29  C   UNL     1       2.472   4.047  -0.371  0.00  0.00    +0.068 A 
ATOM     30  C   UNL     1       1.366   3.181  -0.471  0.00  0.00    +0.008 A 
ATOM     31  C   UNL     1       1.363   1.763  -0.522  0.00  0.00    +0.010 A 
ATOM     32  C   UNL     1       0.197   1.074  -0.618  0.00  0.00    +0.001 A 
ATOM     33  C   UNL     1      -1.030   1.724  -0.675  0.00  0.00    +0.001 A 
ATOM     34  C   UNL     1      -1.073   3.102  -0.623  0.00  0.00    +0.016 A 
ATOM     35  C   UNL     1       0.103   3.815  -0.525  0.00  0.00    +0.021 A 
ATOM     36  S   UNL     1       0.502   5.542  -0.438  0.00  0.00    -0.082 S 
ATOM     37 CL   UNL     1       4.080   3.398  -0.297  0.00  0.00    -0.082 Cl
ENDBRANCH  25  28
ENDBRANCH  23  24
ENDBRANCH   2  23
TORSDOF 8
