REMARK  Name = ZINC40140401
REMARK  7 active torsions:
REMARK  status: ('A' for Active; 'I' for Inactive)
REMARK    1  A    between atoms: C_1  and  C_2
REMARK    2  A    between atoms: C_3  and  C_7
REMARK    3  A    between atoms: N_9  and  N_10
REMARK    4  A    between atoms: C_11  and  C_13
REMARK    5  A    between atoms: C_16  and  C_18
REMARK    6  A    between atoms: C_18  and  O_19
REMARK    7  A    between atoms: O_19  and  C_20
REMARK                            x       y       z     vdW  Elec       q    Type
REMARK                         _______ _______ _______ _____ _____    ______ ____
ROOT
ATOM      1  N   UNL     1      -4.827  -0.946   0.021  0.00  0.00    -0.228 N 
ATOM      2  C   UNL     1      -5.800  -1.878   0.020  0.00  0.00    +0.295 C 
ATOM      3  O   UNL     1      -5.510  -3.060   0.011  0.00  0.00    -0.265 OA
ATOM      4  H   UNL     1      -5.058  -0.004   0.027  0.00  0.00    +0.173 HD
ENDROOT
BRANCH   2   5
ATOM      5  C   UNL     1      -7.208  -1.468   0.029  0.00  0.00    +0.191 A 
ATOM      6  C   UNL     1      -8.287  -2.305   0.035  0.00  0.00    +0.055 A 
ATOM      7  C   UNL     1      -9.430  -1.490   0.043  0.00  0.00    +0.049 A 
ATOM      8  C   UNL     1      -9.004  -0.208   0.042  0.00  0.00    +0.143 A 
ATOM      9  O   UNL     1      -7.664  -0.199   0.040  0.00  0.00    -0.452 OA
BRANCH   8  10
ATOM     10  C   UNL     1      -9.889   1.012   0.049  0.00  0.00    +0.303 C 
BRANCH  10  11
ATOM     11  O   UNL     1     -10.160   1.396   1.399  0.00  0.00    -0.484 OA
BRANCH  11  12
ATOM     12  C   UNL     1     -10.951   2.485   1.583  0.00  0.00    +0.122 A 
ATOM     13  C   UNL     1     -11.460   3.168   0.487  0.00  0.00    +0.046 A 
ATOM     14  C   UNL     1     -12.263   4.276   0.677  0.00  0.00    +0.005 A 
ATOM     15  C   UNL     1     -12.561   4.705   1.957  0.00  0.00    +0.015 A 
ATOM     16  C   UNL     1     -12.055   4.027   3.051  0.00  0.00    +0.021 A 
ATOM     17  C   UNL     1     -11.255   2.914   2.867  0.00  0.00    +0.061 A 
ATOM     18 BR   UNL     1     -12.463   4.617   4.801  0.00  0.00    -0.050 Br
ENDBRANCH  11  12
ENDBRANCH  10  11
ENDBRANCH   8  10
ENDBRANCH   2   5
BRANCH   1  21
ATOM     19  C   UNL     1      -2.508  -0.405   0.012  0.00  0.00    +0.263 C 
ATOM     20  O   UNL     1      -2.798   0.776   0.021  0.00  0.00    -0.269 OA
ATOM     21  N   UNL     1      -3.482  -1.337   0.011  0.00  0.00    -0.230 N 
ATOM     22  H   UNL     1      -3.251  -2.280   0.005  0.00  0.00    +0.173 HD
BRANCH  19  25
ATOM     23  C   UNL     1      -0.018   1.503   0.010  0.00  0.00    +0.087 C 
ATOM     24  C   UNL     1       0.002  -0.004   0.002  0.00  0.00    +0.114 A 
ATOM     25  C   UNL     1      -1.093  -0.817   0.003  0.00  0.00    +0.079 A 
ATOM     26  C   UNL     1      -0.567  -2.190  -0.007  0.00  0.00    +0.054 A 
ATOM     27  C   UNL     1       0.769  -2.073  -0.013  0.00  0.00    +0.196 A 
ATOM     28  O   UNL     1       1.097  -0.771  -0.013  0.00  0.00    -0.467 OA
ENDBRANCH  19  25
ENDBRANCH   1  21
TORSDOF 6
