REMARK  Name = ZINC37379707
REMARK  8 active torsions:
REMARK  status: ('A' for Active; 'I' for Inactive)
REMARK    1  A    between atoms: C_6  and  C_7
REMARK    2  A    between atoms: C_7  and  C_9
REMARK    3  A    between atoms: C_7  and  C_20
REMARK    4  A    between atoms: C_9  and  C_10
REMARK    5  A    between atoms: N_12  and  C_13
REMARK    6  A    between atoms: C_13  and  C_14
REMARK    7  A    between atoms: C_14  and  N_15
REMARK    8  A    between atoms: C_27  and  N_30
REMARK                            x       y       z     vdW  Elec       q    Type
REMARK                         _______ _______ _______ _____ _____    ______ ____
ROOT
ATOM      1  C   UNL     1      -1.293  -0.775   0.011  0.00  0.00    +0.060 C 
ENDROOT
BRANCH   1   2
ATOM      2  C   UNL     1      -1.373  -1.636  -1.224  0.00  0.00    -0.014 A 
ATOM      3  C   UNL     1      -0.519  -2.610  -1.575  0.00  0.00    +0.087 A 
ATOM      4  N   UNL     1      -0.913  -3.172  -2.759  0.00  0.00    -0.360 N 
ATOM      5  H   UNL     1      -0.454  -3.895  -3.212  0.00  0.00    +0.165 HD
ATOM      6  C   UNL     1      -2.060  -2.557  -3.209  0.00  0.00    +0.047 A 
ATOM      7  C   UNL     1      -2.402  -1.572  -2.265  0.00  0.00    +0.006 A 
ATOM      8  C   UNL     1      -3.538  -0.785  -2.459  0.00  0.00    +0.043 A 
ATOM      9  C   UNL     1      -4.316  -0.978  -3.567  0.00  0.00    +0.127 A 
ATOM     10  C   UNL     1      -3.985  -1.951  -4.499  0.00  0.00    +0.035 A 
ATOM     11  C   UNL     1      -2.863  -2.733  -4.332  0.00  0.00    +0.028 A 
BRANCH   9  12
ATOM     12  N   UNL     1      -5.521  -0.142  -3.772  0.00  0.00    +0.056 N 
ATOM     13  O   UNL     1      -5.813   0.706  -2.962  0.00  0.00    -0.126 OA
ATOM     14  O   UNL     1      -6.212  -0.309  -4.750  0.00  0.00    -0.126 OA
ENDBRANCH   9  12
ENDBRANCH   1   2
BRANCH   1  20
ATOM     15  C   UNL     1      -0.017   1.378   0.010  0.00  0.00    +0.006 A 
ATOM     16  C   UNL     1       1.171   2.086   0.002  0.00  0.00    +0.022 A 
ATOM     17  C   UNL     1       2.378   1.412  -0.013  0.00  0.00    +0.059 A 
ATOM     18  C   UNL     1       2.397   0.027  -0.021  0.00  0.00    +0.060 A 
ATOM     19  C   UNL     1       1.208  -0.680  -0.013  0.00  0.00    +0.025 A 
ATOM     20  C   UNL     1       0.002  -0.004   0.002  0.00  0.00    -0.038 A 
ATOM     21 CL   UNL     1       3.912  -0.821  -0.040  0.00  0.00    -0.082 Cl
ATOM     22 CL   UNL     1       3.869   2.301  -0.023  0.00  0.00    -0.082 Cl
ENDBRANCH   1  20
BRANCH   1  23
ATOM     23  C   UNL     1      -1.350  -1.662   1.256  0.00  0.00    +0.108 C 
BRANCH  23  24
ATOM     24  C   UNL     1      -1.393  -0.796   2.488  0.00  0.00    +0.214 C 
ATOM     25  O   UNL     1      -1.380   0.412   2.381  0.00  0.00    -0.276 OA
ATOM     26  N   UNL     1      -1.447  -1.364   3.709  0.00  0.00    -0.317 N 
ATOM     27  H   UNL     1      -1.458  -2.330   3.795  0.00  0.00    +0.149 HD
BRANCH  26  28
ATOM     28  C   UNL     1      -1.489  -0.522   4.908  0.00  0.00    +0.085 C 
BRANCH  28  29
ATOM     29  C   UNL     1      -1.546  -1.409   6.153  0.00  0.00    -0.060 C 
BRANCH  29  30
ATOM     30  N   UNL     1      -1.588  -0.565   7.354  0.00  0.00    +0.381 N 
ATOM     31  C   UNL     1      -2.885   0.155   7.429  0.00  0.00    -0.079 C 
ATOM     32  C   UNL     1      -3.007   0.512   8.932  0.00  0.00    -0.020 C 
ATOM     33  C   UNL     1      -2.414  -0.733   9.631  0.00  0.00    -0.020 C 
ATOM     34  C   UNL     1      -1.523  -1.405   8.570  0.00  0.00    -0.079 C 
ATOM     35  H   UNL     1      -0.824   0.093   7.344  0.00  0.00    -0.082 HD
ENDBRANCH  29  30
ENDBRANCH  28  29
ENDBRANCH  26  28
ENDBRANCH  23  24
ENDBRANCH   1  23
TORSDOF 8
