REMARK  Name = ZINC04354938
REMARK  6 active torsions:
REMARK  status: ('A' for Active; 'I' for Inactive)
REMARK    1  A    between atoms: C_1  and  C_2
REMARK    2  A    between atoms: C_10  and  C_22
REMARK    3  A    between atoms: C_12  and  C_18
REMARK    4  A    between atoms: C_12  and  C_20
REMARK    5  A    between atoms: C_13  and  N_17
REMARK    6  A    between atoms: C_14  and  C_15
REMARK                            x       y       z     vdW  Elec       q    Type
REMARK                         _______ _______ _______ _____ _____    ______ ____
ROOT
ATOM      1  C   UNL     1      -0.389   1.606   0.668  0.00  0.00    +0.008 C 
ATOM      2  C   UNL     1      -0.512   0.098   0.892  0.00  0.00    -0.010 C 
ATOM      3  C   UNL     1      -0.305  -0.641  -0.438  0.00  0.00    +0.030 C 
ATOM      4  C   UNL     1       1.053  -0.258  -0.967  0.00  0.00    -0.021 C 
ATOM      5  C   UNL     1       2.052  -0.000  -0.146  0.00  0.00    -0.029 C 
ATOM      6  C   UNL     1       1.956  -0.112   1.347  0.00  0.00    +0.031 C 
ATOM      7  C   UNL     1       0.563  -0.366   1.873  0.00  0.00    +0.012 C 
ATOM      8  C   UNL     1       2.586   1.139   1.963  0.00  0.00    +0.066 C 
ATOM      9  C   UNL     1       4.070   1.177   1.595  0.00  0.00    +0.188 C 
ATOM     10  C   UNL     1       4.282   0.987   0.124  0.00  0.00    +0.054 C 
ATOM     11  C   UNL     1       3.362   0.430  -0.703  0.00  0.00    +0.074 C 
ENDROOT
BRANCH   8  12
ATOM     12  C   UNL     1       1.898   2.367   1.425  0.00  0.00    -0.039 A 
ATOM     13  C   UNL     1       2.122   2.770   0.122  0.00  0.00    +0.004 A 
ATOM     14  C   UNL     1       1.492   3.897  -0.372  0.00  0.00    +0.002 A 
ATOM     15  C   UNL     1       0.638   4.622   0.438  0.00  0.00    +0.020 A 
ATOM     16  C   UNL     1       0.414   4.220   1.743  0.00  0.00    +0.041 A 
ATOM     17  C   UNL     1       1.041   3.088   2.234  0.00  0.00    +0.024 A 
ATOM     18 CL   UNL     1      -0.657   5.131   2.760  0.00  0.00    -0.084 Cl
ENDBRANCH   8  12
BRANCH  10  19
ATOM     19  N   UNL     1       5.470   1.397  -0.415  0.00  0.00    -0.358 N 
ATOM     20  H   UNL     1       6.146   1.799   0.152  0.00  0.00    +0.142 HD
ATOM     21  H   UNL     1       5.635   1.287  -1.364  0.00  0.00    +0.142 HD
ENDBRANCH  10  19
BRANCH  11  22
ATOM     22  C   UNL     1       3.648   0.260  -2.095  0.00  0.00    +0.101 C 
ATOM     23  N   UNL     1       3.875   0.124  -3.200  0.00  0.00    -0.191 NA
ENDBRANCH  11  22
BRANCH   9  24
ATOM     24  C   UNL     1       4.630   2.477   1.998  0.00  0.00    +0.091 C 
ATOM     25  N   UNL     1       5.063   3.481   2.308  0.00  0.00    -0.194 NA
ENDBRANCH   9  24
BRANCH   9  26
ATOM     26  C   UNL     1       4.772   0.108   2.324  0.00  0.00    +0.091 C 
ATOM     27  N   UNL     1       5.314  -0.718   2.886  0.00  0.00    -0.194 NA
ENDBRANCH   9  26
TORSDOF 5
