REMARK  Name = ZINC13015562
REMARK  7 active torsions:
REMARK  status: ('A' for Active; 'I' for Inactive)
REMARK    1  A    between atoms: C_1  and  C_2
REMARK    2  A    between atoms: C_2  and  C_4
REMARK    3  A    between atoms: C_2  and  O_17
REMARK    4  A    between atoms: N_6  and  C_7
REMARK    5  A    between atoms: C_9  and  N_14
REMARK    6  A    between atoms: O_17  and  C_18
REMARK    7  A    between atoms: C_18  and  C_20
REMARK                            x       y       z     vdW  Elec       q    Type
REMARK                         _______ _______ _______ _____ _____    ______ ____
ROOT
ATOM      1  C   UNL     1      -1.743   5.141  -6.673  0.00  0.00    +0.062 C 
ATOM      2  C   UNL     1      -3.213   4.718  -6.622  0.00  0.00    +0.259 C 
ENDROOT
BRANCH   2   3
ATOM      3  C   UNL     1      -4.071   5.816  -7.196  0.00  0.00    +0.258 C 
ATOM      4  O   UNL     1      -4.861   6.402  -6.487  0.00  0.00    -0.271 OA
ATOM      5  N   UNL     1      -3.961   6.146  -8.498  0.00  0.00    -0.281 N 
ATOM      6  H   UNL     1      -3.285   5.723  -9.050  0.00  0.00    +0.155 HD
BRANCH   5   7
ATOM      7  C   UNL     1      -4.823   7.099  -9.054  0.00  0.00    +0.054 A 
ATOM      8  C   UNL     1      -5.252   8.177  -8.291  0.00  0.00    +0.057 A 
ATOM      9  C   UNL     1      -6.098   9.119  -8.844  0.00  0.00    +0.128 A 
ATOM     10  C   UNL     1      -6.526   8.984 -10.152  0.00  0.00    +0.034 A 
ATOM     11  C   UNL     1      -6.105   7.909 -10.913  0.00  0.00    +0.024 A 
ATOM     12  C   UNL     1      -5.254   6.966 -10.368  0.00  0.00    +0.062 A 
ATOM     13 CL   UNL     1      -4.725   5.617 -11.324  0.00  0.00    -0.082 Cl
BRANCH   9  14
ATOM     14  N   UNL     1      -6.552  10.271  -8.033  0.00  0.00    +0.056 N 
ATOM     15  O   UNL     1      -7.303  11.099  -8.518  0.00  0.00    -0.126 OA
ATOM     16  O   UNL     1      -6.176  10.390  -6.881  0.00  0.00    -0.126 OA
ENDBRANCH   9  14
ENDBRANCH   5   7
ENDBRANCH   2   3
BRANCH   2  17
ATOM     17  O   UNL     1      -3.598   4.473  -5.244  0.00  0.00    -0.452 OA
BRANCH  17  18
ATOM     18  C   UNL     1      -3.435   3.225  -4.778  0.00  0.00    +0.311 C 
ATOM     19  O   UNL     1      -2.984   2.366  -5.498  0.00  0.00    -0.251 OA
BRANCH  18  20
ATOM     20  C   UNL     1      -3.816   2.893  -3.344  0.00  0.00    +0.098 C 
ATOM     21  C   UNL     1      -3.045   3.824  -2.423  0.00  0.00    +0.020 C 
ATOM     22  C   UNL     1      -3.071   3.382  -0.964  0.00  0.00    +0.016 C 
ATOM     23  C   UNL     1      -4.468   3.525  -0.367  0.00  0.00    +0.006 C 
ATOM     24  C   UNL     1      -5.468   2.555  -0.976  0.00  0.00    +0.001 C 
ATOM     25  C   UNL     1      -4.956   1.127  -1.061  0.00  0.00    +0.006 C 
ATOM     26  C   UNL     1      -3.545   1.037  -1.631  0.00  0.00    +0.016 C 
ATOM     27  C   UNL     1      -3.522   1.420  -3.107  0.00  0.00    +0.020 C 
ATOM     28  C   UNL     1      -2.608   1.942  -0.852  0.00  0.00    +0.068 C 
ATOM     29  S   UNL     1      -0.888   1.757  -1.436  0.00  0.00    -0.142 S 
ATOM     30  C   UNL     1       0.034   1.148   0.023  0.00  0.00    +0.081 C 
ATOM     31  C   UNL     1      -0.720   1.661   1.276  0.00  0.00    +0.081 C 
ATOM     32  S   UNL     1      -2.501   1.422   0.899  0.00  0.00    -0.142 S 
ENDBRANCH  18  20
ENDBRANCH  17  18
ENDBRANCH   2  17
TORSDOF 6
