REMARK  Name = ZINC09211540
REMARK  8 active torsions:
REMARK  status: ('A' for Active; 'I' for Inactive)
REMARK    1  A    between atoms: C_3  and  O_33
REMARK    2  A    between atoms: C_6  and  C_7
REMARK    3  A    between atoms: C_9  and  C_21
REMARK    4  A    between atoms: N_13  and  C_14
REMARK    5  A    between atoms: C_21  and  C_22
REMARK    6  A    between atoms: C_22  and  C_23
REMARK    7  A    between atoms: C_23  and  C_25
REMARK    8  A    between atoms: C_23  and  O_32
REMARK                            x       y       z     vdW  Elec       q    Type
REMARK                         _______ _______ _______ _____ _____    ______ ____
ROOT
ATOM      1  C   UNL     1      -1.293  -0.774   0.011  0.00  0.00    +0.123 C 
ATOM      2  C   UNL     1      -1.699  -1.278  -1.374  0.00  0.00    +0.101 C 
ATOM      3  C   UNL     1      -1.493  -2.622  -0.727  0.00  0.00    +0.226 C 
ATOM      4  O   UNL     1      -1.607  -3.752  -1.153  0.00  0.00    -0.275 OA
ATOM      5  N   UNL     1      -1.138  -2.151   0.481  0.00  0.00    -0.263 N 
ENDROOT
BRANCH   5   6
ATOM      6  C   UNL     1      -0.770  -2.741   1.697  0.00  0.00    +0.037 A 
ATOM      7  C   UNL     1      -0.459  -1.943   2.790  0.00  0.00    +0.026 A 
ATOM      8  C   UNL     1      -0.096  -2.526   3.988  0.00  0.00    +0.040 A 
ATOM      9  C   UNL     1      -0.042  -3.905   4.099  0.00  0.00    +0.124 A 
ATOM     10  C   UNL     1      -0.351  -4.703   3.010  0.00  0.00    +0.040 A 
ATOM     11  C   UNL     1      -0.721  -4.123   1.812  0.00  0.00    +0.026 A 
ATOM     12  F   UNL     1       0.315  -4.474   5.272  0.00  0.00    -0.205 F 
ENDBRANCH   5   6
BRANCH   1  18
ATOM     13  C   UNL     1      -0.017   1.378   0.010  0.00  0.00    +0.009 A 
ATOM     14  C   UNL     1       1.169   2.087   0.002  0.00  0.00    +0.046 A 
ATOM     15  C   UNL     1       2.380   1.409  -0.013  0.00  0.00    +0.117 A 
ATOM     16  C   UNL     1       2.396   0.022  -0.021  0.00  0.00    +0.046 A 
ATOM     17  C   UNL     1       1.207  -0.681  -0.013  0.00  0.00    +0.009 A 
ATOM     18  C   UNL     1       0.002  -0.004   0.002  0.00  0.00    -0.026 A 
BRANCH  15  19
ATOM     19  O   UNL     1       3.548   2.104  -0.021  0.00  0.00    -0.507 OA
ATOM     20  H   UNL     1       3.895   2.300   0.860  0.00  0.00    +0.292 HD
ENDBRANCH  15  19
ENDBRANCH   1  18
BRANCH   2  21
ATOM     21  C   UNL     1      -0.698  -0.951  -2.484  0.00  0.00    +0.018 C 
BRANCH  21  22
ATOM     22  C   UNL     1      -1.269  -1.393  -3.833  0.00  0.00    +0.037 C 
BRANCH  22  23
ATOM     23  C   UNL     1      -0.268  -1.066  -4.942  0.00  0.00    +0.145 C 
BRANCH  23  24
ATOM     24  C   UNL     1      -0.775  -1.611  -6.253  0.00  0.00    -0.019 A 
ATOM     25  C   UNL     1      -1.655  -0.867  -7.016  0.00  0.00    +0.009 A 
ATOM     26  C   UNL     1      -2.120  -1.366  -8.219  0.00  0.00    +0.039 A 
ATOM     27  C   UNL     1      -1.704  -2.611  -8.658  0.00  0.00    +0.123 A 
ATOM     28  C   UNL     1      -0.822  -3.355  -7.893  0.00  0.00    +0.039 A 
ATOM     29  C   UNL     1      -0.354  -2.852  -6.693  0.00  0.00    +0.009 A 
ATOM     30  F   UNL     1      -2.158  -3.099  -9.833  0.00  0.00    -0.205 F 
ENDBRANCH  23  24
BRANCH  23  31
ATOM     31  O   UNL     1      -0.116   0.351  -5.043  0.00  0.00    -0.387 OA
ATOM     32  H   UNL     1      -0.935   0.822  -5.250  0.00  0.00    +0.210 HD
ENDBRANCH  23  31
ENDBRANCH  22  23
ENDBRANCH  21  22
ENDBRANCH   2  21
TORSDOF 8
