REMARK  Name = ZINC20685071
REMARK  6 active torsions:
REMARK  status: ('A' for Active; 'I' for Inactive)
REMARK    1  A    between atoms: C_1  and  C_2
REMARK    2  A    between atoms: C_2  and  N_3
REMARK    3  A    between atoms: C_14  and  C_16
REMARK    4  A    between atoms: C_27  and  O_32
REMARK    5  A    between atoms: O_32  and  C_33
REMARK    6  A    between atoms: C_33  and  C_34
REMARK                            x       y       z     vdW  Elec       q    Type
REMARK                         _______ _______ _______ _____ _____    ______ ____
ROOT
ATOM      1  C   UNL     1      -0.767   8.924   0.061  0.00  0.00    +0.105 C 
ATOM      2  C   UNL     1      -0.842   9.488   1.468  0.00  0.00    +0.029 C 
ATOM      3  C   UNL     1      -1.599   8.660   2.515  0.00  0.00    +0.033 C 
ATOM      4  C   UNL     1      -2.111   9.751   3.458  0.00  0.00    -0.030 C 
ATOM      5  C   UNL     1      -2.227  10.899   2.804  0.00  0.00    -0.023 C 
ATOM      6  C   UNL     1      -1.821  10.697   1.379  0.00  0.00    +0.049 C 
ATOM      7  C   UNL     1      -1.168  11.750   0.571  0.00  0.00    -0.016 A 
ATOM      8  C   UNL     1      -1.337  13.093   0.831  0.00  0.00    +0.051 A 
ATOM      9  C   UNL     1      -0.714  14.043   0.036  0.00  0.00    +0.121 A 
ATOM     10  C   UNL     1       0.081  13.640  -1.027  0.00  0.00    +0.047 A 
ATOM     11  C   UNL     1       0.257  12.297  -1.289  0.00  0.00    +0.027 A 
ATOM     12  C   UNL     1      -0.357  11.338  -0.492  0.00  0.00    +0.032 A 
ATOM     13  N   UNL     1      -0.133   9.979  -0.758  0.00  0.00    -0.336 N 
ATOM     14  H   UNL     1       0.529   9.705  -1.593  0.00  0.00    +0.147 HD
ENDROOT
BRANCH   1  26
ATOM     15  N   UNL     1       2.180   4.106   0.004  0.00  0.00    -0.340 N 
ATOM     16  C   UNL     1       1.164   3.167   0.008  0.00  0.00    +0.050 A 
ATOM     17  C   UNL     1       1.175   1.775   0.000  0.00  0.00    +0.026 A 
ATOM     18  C   UNL     1      -0.013   1.076   0.008  0.00  0.00    +0.002 A 
ATOM     19  C   UNL     1      -1.226   1.747   0.017  0.00  0.00    +0.001 A 
ATOM     20  C   UNL     1      -1.257   3.124   0.031  0.00  0.00    +0.010 A 
ATOM     21  C   UNL     1      -0.065   3.844   0.024  0.00  0.00    +0.008 A 
ATOM     22  C   UNL     1       0.252   5.284   0.029  0.00  0.00    +0.008 A 
ATOM     23  C   UNL     1       1.651   5.384   0.016  0.00  0.00    +0.050 A 
ATOM     24  C   UNL     1       2.244   6.643   0.017  0.00  0.00    +0.027 A 
ATOM     25  C   UNL     1       1.459   7.776   0.033  0.00  0.00    +0.007 A 
ATOM     26  C   UNL     1       0.077   7.675   0.045  0.00  0.00    -0.026 A 
ATOM     27  C   UNL     1      -0.529   6.437   0.043  0.00  0.00    +0.016 A 
BRANCH  15  29
ATOM     28  C   UNL     1       4.096   3.690  -1.458  0.00  0.00    +0.027 C 
ATOM     29  C   UNL     1       3.611   3.792  -0.010  0.00  0.00    +0.119 C 
ENDBRANCH  15  29
ENDBRANCH   1  26
BRANCH   9  30
ATOM     30  O   UNL     1      -0.883  15.367   0.297  0.00  0.00    -0.487 OA
BRANCH  30  31
ATOM     31  C   UNL     1      -0.211  16.289  -0.564  0.00  0.00    +0.264 C 
BRANCH  31  32
ATOM     32  C   UNL     1      -0.513  17.698  -0.125  0.00  0.00    -0.010 A 
ATOM     33  C   UNL     1      -1.603  18.367  -0.649  0.00  0.00    +0.007 A 
ATOM     34  C   UNL     1      -1.883  19.659  -0.243  0.00  0.00    +0.000 A 
ATOM     35  C   UNL     1      -1.067  20.284   0.681  0.00  0.00    +0.000 A 
ATOM     36  C   UNL     1       0.026  19.617   1.202  0.00  0.00    +0.000 A 
ATOM     37  C   UNL     1       0.303  18.324   0.799  0.00  0.00    +0.007 A 
ENDBRANCH  31  32
ENDBRANCH  30  31
ENDBRANCH   9  30
TORSDOF 5
