REMARK  Name = ZINC06409882
REMARK  10 active torsions:
REMARK  status: ('A' for Active; 'I' for Inactive)
REMARK    1  A    between atoms: C_1  and  C_2
REMARK    2  A    between atoms: C_7  and  C_14
REMARK    3  A    between atoms: C_14  and  C_16
REMARK    4  A    between atoms: C_14  and  N_68
REMARK    5  A    between atoms: N_20  and  C_21
REMARK    6  A    between atoms: C_21  and  C_22
REMARK    7  A    between atoms: C_28  and  C_29
REMARK    8  A    between atoms: C_28  and  N_68
REMARK    9  A    between atoms: C_35  and  C_36
REMARK   10  A    between atoms: C_35  and  N_68
REMARK                            x       y       z     vdW  Elec       q    Type
REMARK                         _______ _______ _______ _____ _____    ______ ____
ROOT
ATOM      1  C   UNL     1       5.927   1.924   0.533  0.00  0.00    +0.040 C 
ENDROOT
BRANCH   1   8
ATOM      2  C   UNL     1      -0.172   6.817   2.109  0.00  0.00    +0.044 C 
ATOM      3  C   UNL     1       0.817   5.728   1.782  0.00  0.00    -0.048 A 
ATOM      4  C   UNL     1       0.360   4.449   1.493  0.00  0.00    +0.004 A 
ATOM      5  C   UNL     1       1.240   3.446   1.201  0.00  0.00    +0.010 A 
ATOM      6  C   UNL     1       2.613   3.713   1.179  0.00  0.00    -0.001 A 
ATOM      7  C   UNL     1       3.584   2.663   0.863  0.00  0.00    +0.017 A 
ATOM      8  C   UNL     1       4.902   2.981   0.855  0.00  0.00    +0.011 A 
ATOM      9  C   UNL     1       5.318   4.297   1.149  0.00  0.00    +0.251 A 
ATOM     10  O   UNL     1       6.508   4.561   1.137  0.00  0.00    -0.268 OA
ATOM     11  N   UNL     1       4.434   5.268   1.441  0.00  0.00    -0.322 N 
ATOM     12  H   UNL     1       4.754   6.162   1.638  0.00  0.00    +0.169 HD
ATOM     13  C   UNL     1       3.080   5.010   1.464  0.00  0.00    +0.049 A 
ATOM     14  C   UNL     1       2.165   6.014   1.766  0.00  0.00    +0.029 A 
ENDBRANCH   1   8
BRANCH   1  15
ATOM     15  C   UNL     1       6.657   2.301  -0.731  0.00  0.00    +0.143 A 
ATOM     16  N   UNL     1       7.367   3.384  -0.930  0.00  0.00    -0.115 NA
ATOM     17  N   UNL     1       7.829   3.341  -2.132  0.00  0.00    -0.023 NA
ATOM     18  N   UNL     1       7.432   2.259  -2.705  0.00  0.00    -0.044 NA
ATOM     19  N   UNL     1       6.711   1.588  -1.871  0.00  0.00    -0.228 N 
BRANCH  19  20
ATOM     20  C   UNL     1       6.069   0.295  -2.120  0.00  0.00    +0.178 C 
BRANCH  20  21
ATOM     21  C   UNL     1       4.715   0.519  -2.797  0.00  0.00    +0.140 C 
ATOM     22  C   UNL     1       3.981  -0.829  -2.959  0.00  0.00    +0.035 C 
ATOM     23  C   UNL     1       3.328  -0.682  -4.361  0.00  0.00    +0.031 C 
ATOM     24  C   UNL     1       4.400   0.160  -5.098  0.00  0.00    +0.160 C 
ATOM     25  O   UNL     1       4.912   1.065  -4.107  0.00  0.00    -0.375 OA
ENDBRANCH  20  21
ENDBRANCH  19  20
ENDBRANCH   1  15
BRANCH   1  26
ATOM     26  N   UNL     1       6.896   1.845   1.646  0.00  0.00    +0.397 N 
ATOM     27  H   UNL     1       7.219   2.792   1.875  0.00  0.00    -0.079 HD
BRANCH  26  28
ATOM     28  C   UNL     1       6.248   1.258   2.838  0.00  0.00    -0.041 C 
BRANCH  28  29
ATOM     29  C   UNL     1       5.411   2.319   3.505  0.00  0.00    -0.064 A 
ATOM     30  C   UNL     1       6.002   3.487   3.950  0.00  0.00    +0.002 A 
ATOM     31  C   UNL     1       5.233   4.463   4.557  0.00  0.00    +0.000 A 
ATOM     32  C   UNL     1       3.876   4.266   4.728  0.00  0.00    +0.000 A 
ATOM     33  C   UNL     1       3.286   3.096   4.287  0.00  0.00    +0.000 A 
ATOM     34  C   UNL     1       4.054   2.123   3.676  0.00  0.00    +0.002 A 
ENDBRANCH  28  29
ENDBRANCH  26  28
BRANCH  26  35
ATOM     35  C   UNL     1       8.058   1.024   1.247  0.00  0.00    -0.001 C 
BRANCH  35  36
ATOM     36  C   UNL     1       9.109   1.934   0.665  0.00  0.00    +0.089 A 
ATOM     37  C   UNL     1      10.014   2.641   1.366  0.00  0.00    +0.042 A 
ATOM     38  C   UNL     1      10.798   3.349   0.426  0.00  0.00    +0.041 A 
ATOM     39  C   UNL     1      10.321   3.038  -0.792  0.00  0.00    +0.195 A 
ATOM     40  O   UNL     1       9.298   2.181  -0.642  0.00  0.00    -0.470 OA
ENDBRANCH  35  36
ENDBRANCH  26  35
ENDBRANCH   1  26
TORSDOF 9
