REMARK  Name = ZINC20082403
REMARK  10 active torsions:
REMARK  status: ('A' for Active; 'I' for Inactive)
REMARK    1  A    between atoms: C_1  and  C_2
REMARK    2  A    between atoms: C_2  and  C_3
REMARK    3  A    between atoms: C_10  and  C_15
REMARK    4  A    between atoms: C_15  and  C_17
REMARK    5  A    between atoms: C_15  and  N_28
REMARK    6  A    between atoms: N_21  and  C_22
REMARK    7  A    between atoms: N_28  and  C_29
REMARK    8  A    between atoms: N_28  and  C_36
REMARK    9  A    between atoms: C_29  and  C_30
REMARK   10  A    between atoms: C_36  and  C_37
REMARK                            x       y       z     vdW  Elec       q    Type
REMARK                         _______ _______ _______ _____ _____    ______ ____
ROOT
ATOM      1  C   UNL     1       6.339  -0.302  -0.225  0.00  0.00    +0.163 C 
ENDROOT
BRANCH   1   9
ATOM      2  C   UNL     1       0.201   0.182  -0.832  0.00  0.00    -0.047 A 
ATOM      3  C   UNL     1       0.161   1.568  -0.914  0.00  0.00    +0.005 A 
ATOM      4  C   UNL     1       1.320   2.310  -0.846  0.00  0.00    +0.026 A 
ATOM      5  C   UNL     1       2.544   1.665  -0.695  0.00  0.00    +0.049 A 
ATOM      6  C   UNL     1       2.580   0.261  -0.612  0.00  0.00    -0.001 A 
ATOM      7  C   UNL     1       1.391  -0.472  -0.683  0.00  0.00    +0.013 A 
ATOM      8  C   UNL     1       3.873  -0.408  -0.453  0.00  0.00    +0.021 A 
ATOM      9  C   UNL     1       4.993   0.354  -0.389  0.00  0.00    +0.042 A 
ATOM     10  C   UNL     1       4.902   1.760  -0.477  0.00  0.00    +0.254 A 
ATOM     11  O   UNL     1       5.921   2.426  -0.419  0.00  0.00    -0.268 OA
ATOM     12  N   UNL     1       3.719   2.383  -0.624  0.00  0.00    -0.322 N 
ATOM     13  H   UNL     1       3.698   3.481  -0.688  0.00  0.00    +0.169 HD
BRANCH   2  15
ATOM     14  C   UNL     1      -1.380  -0.955  -2.368  0.00  0.00    +0.009 C 
ATOM     15  C   UNL     1      -1.081  -0.607  -0.908  0.00  0.00    +0.032 C 
ENDBRANCH   2  15
ENDBRANCH   1   9
BRANCH   1  16
ATOM     16  C   UNL     1       7.005   0.222   1.021  0.00  0.00    +0.173 A 
ATOM     17  N   UNL     1       7.559   1.400   1.176  0.00  0.00    -0.111 NA
ATOM     18  N   UNL     1       8.016   1.470   2.378  0.00  0.00    -0.023 NA
ATOM     19  N   UNL     1       7.769   0.367   2.995  0.00  0.00    -0.044 NA
ATOM     20  N   UNL     1       7.141  -0.426   2.193  0.00  0.00    -0.224 N 
BRANCH  20  21
ATOM     21  C   UNL     1       6.669  -1.778   2.499  0.00  0.00    +0.111 C 
ATOM     22  C   UNL     1       5.574  -1.707   3.565  0.00  0.00    +0.027 C 
ATOM     23  C   UNL     1       5.081  -3.120   3.885  0.00  0.00    +0.002 C 
ATOM     24  C   UNL     1       6.247  -3.960   4.408  0.00  0.00    +0.000 C 
ATOM     25  C   UNL     1       7.343  -4.032   3.343  0.00  0.00    +0.002 C 
ATOM     26  C   UNL     1       7.836  -2.619   3.023  0.00  0.00    +0.027 C 
ENDBRANCH  20  21
ENDBRANCH   1  16
BRANCH   1  27
ATOM     27  N   UNL     1       7.177   0.001  -1.393  0.00  0.00    -0.277 NA
BRANCH  27  28
ATOM     28  C   UNL     1       8.470  -0.691  -1.306  0.00  0.00    +0.121 C 
BRANCH  28  29
ATOM     29  C   UNL     1       9.371   0.045  -0.348  0.00  0.00    -0.033 A 
ATOM     30  C   UNL     1       9.894   1.276  -0.699  0.00  0.00    +0.005 A 
ATOM     31  C   UNL     1      10.716   1.954   0.182  0.00  0.00    +0.000 A 
ATOM     32  C   UNL     1      11.024   1.395   1.409  0.00  0.00    +0.000 A 
ATOM     33  C   UNL     1      10.506   0.162   1.756  0.00  0.00    +0.000 A 
ATOM     34  C   UNL     1       9.680  -0.513   0.878  0.00  0.00    +0.005 A 
ENDBRANCH  28  29
ENDBRANCH  27  28
BRANCH  27  35
ATOM     35  C   UNL     1       6.482  -0.337  -2.642  0.00  0.00    +0.160 C 
BRANCH  35  36
ATOM     36  C   UNL     1       5.566   0.796  -3.029  0.00  0.00    +0.119 A 
ATOM     37  C   UNL     1       5.933   1.919  -3.673  0.00  0.00    +0.046 A 
ATOM     38  C   UNL     1       4.766   2.700  -3.831  0.00  0.00    +0.041 A 
ATOM     39  C   UNL     1       3.755   2.008  -3.274  0.00  0.00    +0.195 A 
ATOM     40  O   UNL     1       4.245   0.853  -2.795  0.00  0.00    -0.467 OA
ENDBRANCH  35  36
ENDBRANCH  27  35
ENDBRANCH   1  27
TORSDOF 9
