REMARK  Name = ZINC43640148
REMARK  5 active torsions:
REMARK  status: ('A' for Active; 'I' for Inactive)
REMARK    1  A    between atoms: C_1  and  C_2
REMARK    2  A    between atoms: C_2  and  C_3
REMARK    3  A    between atoms: C_6  and  C_8
REMARK    4  A    between atoms: C_9  and  C_15
REMARK    5  A    between atoms: C_10  and  N_14
REMARK                            x       y       z     vdW  Elec       q    Type
REMARK                         _______ _______ _______ _____ _____    ______ ____
ROOT
ATOM      1  C   UNL     1       1.745  -1.800  -5.048  0.00  0.00    +0.109 A 
ATOM      2  C   UNL     1       0.837  -2.572  -5.818  0.00  0.00    +0.049 A 
ATOM      3  C   UNL     1       1.417  -2.770  -7.057  0.00  0.00    +0.120 A 
ATOM      4  N   UNL     1       2.623  -2.148  -7.045  0.00  0.00    -0.263 N 
ATOM      5  H   UNL     1       3.254  -2.119  -7.782  0.00  0.00    +0.190 HD
ATOM      6  N   UNL     1       2.801  -1.551  -5.792  0.00  0.00    -0.171 NA
ENDROOT
BRANCH   2   7
ATOM      7  C   UNL     1      -0.486  -3.073  -5.377  0.00  0.00    -0.007 A 
ATOM      8  C   UNL     1      -0.571  -4.005  -4.343  0.00  0.00    +0.047 A 
ATOM      9  C   UNL     1      -1.807  -4.469  -3.934  0.00  0.00    +0.127 A 
ATOM     10  C   UNL     1      -2.960  -4.011  -4.550  0.00  0.00    +0.076 A 
ATOM     11  C   UNL     1      -2.880  -3.086  -5.578  0.00  0.00    +0.127 A 
ATOM     12  C   UNL     1      -1.649  -2.610  -5.989  0.00  0.00    +0.047 A 
ATOM     13  F   UNL     1      -4.008  -2.643  -6.176  0.00  0.00    -0.205 F 
ATOM     14  F   UNL     1      -1.891  -5.372  -2.932  0.00  0.00    -0.205 F 
ENDBRANCH   2   7
BRANCH   1  18
ATOM     15  C   UNL     1       0.707  -0.490  -1.238  0.00  0.00    -0.010 A 
ATOM     16  C   UNL     1       2.025  -0.761  -1.419  0.00  0.00    +0.012 A 
ATOM     17  C   UNL     1       2.457  -1.200  -2.652  0.00  0.00    +0.018 A 
ATOM     18  C   UNL     1       1.538  -1.350  -3.656  0.00  0.00    +0.040 A 
ATOM     19  S   UNL     1       0.024  -0.865  -2.844  0.00  0.00    -0.092 S 
BRANCH  15  21
ATOM     20  C   UNL     1      -0.019   1.526   0.010  0.00  0.00    +0.009 C 
ATOM     21  C   UNL     1       0.002  -0.004   0.002  0.00  0.00    +0.039 C 
ENDBRANCH  15  21
ENDBRANCH   1  18
BRANCH   3  22
ATOM     22  N   UNL     1       0.867  -3.476  -8.119  0.00  0.00    -0.343 N 
ATOM     23  H   UNL     1      -0.007  -3.887  -8.027  0.00  0.00    +0.144 HD
ATOM     24  H   UNL     1       1.356  -3.558  -8.952  0.00  0.00    +0.144 HD
ENDBRANCH   3  22
TORSDOF 4
