REMARK  Name = ZINC34749087
REMARK  11 active torsions:
REMARK  status: ('A' for Active; 'I' for Inactive)
REMARK    1  A    between atoms: C_1  and  C_2
REMARK    2  A    between atoms: C_2  and  C_3
REMARK    3  A    between atoms: C_4  and  C_34
REMARK    4  A    between atoms: N_10  and  C_23
REMARK    5  A    between atoms: N_16  and  C_19
REMARK    6  A    between atoms: C_19  and  C_20
REMARK    7  A    between atoms: C_20  and  C_21
REMARK    8  A    between atoms: C_20  and  C_22
REMARK    9  A    between atoms: C_23  and  C_24
REMARK   10  A    between atoms: N_26  and  C_27
REMARK   11  A    between atoms: C_30  and  C_33
REMARK                            x       y       z     vdW  Elec       q    Type
REMARK                         _______ _______ _______ _____ _____    ______ ____
ROOT
ATOM      1  C   UNL     1      -1.504  -0.535   0.071  0.00  0.00    -0.023 A 
ATOM      2  C   UNL     1      -2.177  -0.778   1.206  0.00  0.00    -0.007 A 
ATOM      3  S   UNL     1      -3.759  -1.367   0.631  0.00  0.00    -0.073 S 
ATOM      4  C   UNL     1      -3.470  -1.270  -1.117  0.00  0.00    +0.117 A 
ATOM      5  C   UNL     1      -2.155  -0.776  -1.205  0.00  0.00    +0.076 A 
ATOM      6  C   UNL     1      -1.648  -0.589  -2.530  0.00  0.00    +0.264 A 
ATOM      7  O   UNL     1      -0.516  -0.170  -2.704  0.00  0.00    -0.267 OA
ATOM      8  N   UNL     1      -2.436  -0.882  -3.580  0.00  0.00    -0.271 N 
ATOM      9  C   UNL     1      -3.704  -1.351  -3.404  0.00  0.00    +0.202 A 
ATOM     10  N   UNL     1      -4.193  -1.543  -2.197  0.00  0.00    -0.208 NA
ATOM     11  N   UNL     1      -4.478  -1.639  -4.501  0.00  0.00    -0.304 N 
ATOM     12  C   UNL     1      -4.544  -3.005  -5.043  0.00  0.00    +0.089 C 
ATOM     13  C   UNL     1      -6.018  -3.390  -5.209  0.00  0.00    -0.060 C 
ATOM     14  N   UNL     1      -6.698  -2.379  -6.028  0.00  0.00    +0.382 N 
ATOM     15  C   UNL     1      -6.704  -1.089  -5.327  0.00  0.00    -0.060 C 
ATOM     16  C   UNL     1      -5.269  -0.590  -5.164  0.00  0.00    +0.089 C 
ATOM     17  C   UNL     1      -1.708  -0.597   2.627  0.00  0.00    +0.052 C 
ATOM     18  H   UNL     1      -6.215  -2.280  -6.908  0.00  0.00    -0.082 HD
ENDROOT
BRANCH   1  20
ATOM     19  C   UNL     1      -0.116   1.519   0.137  0.00  0.00    +0.009 C 
ATOM     20  C   UNL     1      -0.092  -0.011   0.120  0.00  0.00    +0.033 C 
ENDBRANCH   1  20
BRANCH  14  21
ATOM     21  C   UNL     1      -8.082  -2.805  -6.278  0.00  0.00    -0.076 C 
BRANCH  21  22
ATOM     22  C   UNL     1      -8.755  -1.816  -7.233  0.00  0.00    -0.034 C 
ATOM     23  C   UNL     1      -8.061  -1.872  -8.596  0.00  0.00    +0.005 C 
ATOM     24  C   UNL     1     -10.230  -2.188  -7.396  0.00  0.00    +0.005 C 
ENDBRANCH  21  22
ENDBRANCH  14  21
BRANCH   8  25
ATOM     25  C   UNL     1      -1.922  -0.692  -4.939  0.00  0.00    +0.224 C 
BRANCH  25  26
ATOM     26  C   UNL     1      -1.147  -1.914  -5.358  0.00  0.00    +0.237 C 
ATOM     27  O   UNL     1      -1.034  -2.852  -4.596  0.00  0.00    -0.274 OA
ATOM     28  N   UNL     1      -0.578  -1.966  -6.579  0.00  0.00    -0.284 N 
ATOM     29  H   UNL     1      -0.611  -1.191  -7.162  0.00  0.00    +0.155 HD
BRANCH  28  30
ATOM     30  C   UNL     1       0.059  -3.136  -7.005  0.00  0.00    +0.033 A 
ATOM     31  C   UNL     1       0.006  -3.510  -8.341  0.00  0.00    +0.023 A 
ATOM     32  C   UNL     1       0.636  -4.667  -8.759  0.00  0.00    +0.005 A 
ATOM     33  C   UNL     1       1.319  -5.451  -7.848  0.00  0.00    -0.050 A 
ATOM     34  C   UNL     1       1.374  -5.082  -6.516  0.00  0.00    +0.005 A 
ATOM     35  C   UNL     1       0.751  -3.924  -6.093  0.00  0.00    +0.023 A 
ATOM     36  C   UNL     1       2.006  -6.712  -8.307  0.00  0.00    +0.044 C 
ENDBRANCH  28  30
ENDBRANCH  25  26
ENDBRANCH   8  25
TORSDOF 6
