REMARK  Name = ZINC00075155
REMARK  7 active torsions:
REMARK  status: ('A' for Active; 'I' for Inactive)
REMARK    1  A    between atoms: C_1  and  C_2
REMARK    2  A    between atoms: C_3  and  C_17
REMARK    3  A    between atoms: C_4  and  C_10
REMARK    4  A    between atoms: C_17  and  O_19
REMARK    5  A    between atoms: O_19  and  C_20
REMARK    6  A    between atoms: C_20  and  C_21
REMARK    7  A    between atoms: C_20  and  C_22
REMARK                            x       y       z     vdW  Elec       q    Type
REMARK                         _______ _______ _______ _____ _____    ______ ____
ROOT
ATOM      1  C   UNL     1      -0.872  -0.848   0.844  0.00  0.00    +0.061 C 
ATOM      2  C   UNL     1       0.336  -0.030   0.466  0.00  0.00    +0.019 C 
ATOM      3  C   UNL     1       0.176   1.262   0.104  0.00  0.00    +0.078 C 
ATOM      4  C   UNL     1       1.417   2.049  -0.268  0.00  0.00    +0.144 C 
ATOM      5  N   UNL     1       2.703   1.335  -0.203  0.00  0.00    -0.315 N 
ATOM      6  C   UNL     1       2.701   0.042   0.179  0.00  0.00    +0.135 C 
ATOM      7  S   UNL     1       4.189  -0.799   0.260  0.00  0.00    -0.019 S 
ATOM      8  N   UNL     1       1.573  -0.605   0.496  0.00  0.00    -0.300 N 
ATOM      9  H   UNL     1       3.532   1.785  -0.428  0.00  0.00    +0.149 HD
ATOM     10  H   UNL     1       1.638  -1.535   0.763  0.00  0.00    +0.154 HD
ENDROOT
BRANCH   4  11
ATOM     11  C   UNL     1       1.501   3.243   0.647  0.00  0.00    +0.013 A 
ATOM     12  C   UNL     1       1.218   4.506   0.163  0.00  0.00    +0.008 A 
ATOM     13  C   UNL     1       1.289   5.601   1.003  0.00  0.00    +0.001 A 
ATOM     14  C   UNL     1       1.655   5.436   2.327  0.00  0.00    +0.003 A 
ATOM     15  C   UNL     1       1.943   4.175   2.812  0.00  0.00    +0.039 A 
ATOM     16  C   UNL     1       1.867   3.076   1.972  0.00  0.00    +0.129 A 
ATOM     17  F   UNL     1       2.148   1.842   2.445  0.00  0.00    -0.205 F 
ENDBRANCH   4  11
BRANCH   3  18
ATOM     18  C   UNL     1      -1.106   1.858   0.066  0.00  0.00    +0.339 C 
ATOM     19  O   UNL     1      -2.099   1.178   0.249  0.00  0.00    -0.245 OA
BRANCH  18  20
ATOM     20  O   UNL     1      -1.229   3.180  -0.171  0.00  0.00    -0.459 OA
BRANCH  20  21
ATOM     21  C   UNL     1      -2.554   3.715  -0.195  0.00  0.00    +0.171 C 
ATOM     22  C   UNL     1      -2.946   4.168   1.213  0.00  0.00    +0.052 C 
ATOM     23  C   UNL     1      -2.604   4.911  -1.148  0.00  0.00    +0.052 C 
ENDBRANCH  20  21
ENDBRANCH  18  20
ENDBRANCH   3  18
TORSDOF 4
