REMARK  Name = ZINC09076629
REMARK  5 active torsions:
REMARK  status: ('A' for Active; 'I' for Inactive)
REMARK    1  A    between atoms: C_1  and  C_2
REMARK    2  A    between atoms: C_9  and  C_13
REMARK    3  A    between atoms: C_13  and  N_56
REMARK    4  A    between atoms: N_16  and  C_19
REMARK    5  A    between atoms: N_22  and  C_27
REMARK                            x       y       z     vdW  Elec       q    Type
REMARK                         _______ _______ _______ _____ _____    ______ ____
ROOT
ATOM      1  C   UNL     1       0.076   1.063   7.689  0.00  0.00    -0.059 C 
ATOM      2  C   UNL     1       0.702  -0.268   8.112  0.00  0.00    +0.086 C 
ATOM      3  N   UNL     1       1.318  -0.118   9.438  0.00  0.00    -0.331 N 
ATOM      4  C   UNL     1       2.354   0.924   9.418  0.00  0.00    +0.086 C 
ATOM      5  C   UNL     1       1.729   2.255   8.996  0.00  0.00    -0.059 C 
ATOM      6  N   UNL     1       1.132   2.096   7.652  0.00  0.00    +0.385 N 
ATOM      7  H   UNL     1       1.864   1.801   6.995  0.00  0.00    -0.081 HD
ENDROOT
BRANCH   3   8
ATOM      8  C   UNL     1       1.834  -1.323   9.885  0.00  0.00    +0.074 A 
ATOM      9  C   UNL     1       2.881  -1.954   9.182  0.00  0.00    +0.158 A 
ATOM     10  N   UNL     1       3.372  -3.086   9.605  0.00  0.00    -0.170 NA
ATOM     11  N   UNL     1       2.868  -3.706  10.753  0.00  0.00    -0.195 N 
ATOM     12  C   UNL     1       1.864  -3.142  11.452  0.00  0.00    +0.292 A 
ATOM     13  O   UNL     1       1.429  -3.689  12.453  0.00  0.00    -0.264 OA
ATOM     14  C   UNL     1       1.322  -1.922  11.023  0.00  0.00    +0.129 A 
ATOM     15 CL   UNL     1       0.028  -1.174  11.906  0.00  0.00    -0.076 Cl
BRANCH  11  16
ATOM     16  C   UNL     1       3.411  -4.923  11.179  0.00  0.00    +0.069 A 
ATOM     17  C   UNL     1       3.778  -5.095  12.508  0.00  0.00    +0.028 A 
ATOM     18  C   UNL     1       4.308  -6.300  12.926  0.00  0.00    +0.002 A 
ATOM     19  C   UNL     1       4.486  -7.330  12.021  0.00  0.00    +0.000 A 
ATOM     20  C   UNL     1       4.127  -7.161  10.696  0.00  0.00    +0.002 A 
ATOM     21  C   UNL     1       3.591  -5.961  10.273  0.00  0.00    +0.028 A 
ENDBRANCH  11  16
ENDBRANCH   3   8
BRANCH   6  22
ATOM     22  C   UNL     1       0.566   3.382   7.195  0.00  0.00    -0.022 C 
BRANCH  22  31
ATOM     23  C   UNL     1       2.517   2.303   0.241  0.00  0.00    +0.044 C 
ATOM     24  C   UNL     1       1.447   2.554   1.273  0.00  0.00    -0.046 A 
ATOM     25  C   UNL     1       0.105   2.667   0.884  0.00  0.00    +0.021 A 
ATOM     26  C   UNL     1      -0.854   2.887   1.812  0.00  0.00    +0.096 A 
ATOM     27  N   UNL     1      -0.533   3.011   3.129  0.00  0.00    -0.268 N 
ATOM     28  C   UNL     1       0.767   2.911   3.538  0.00  0.00    +0.141 A 
ATOM     29  C   UNL     1       1.779   2.677   2.589  0.00  0.00    +0.050 A 
ATOM     30  N   UNL     1       1.089   3.033   4.825  0.00  0.00    -0.236 NA
ATOM     31  C   UNL     1       0.166   3.252   5.748  0.00  0.00    +0.032 A 
ATOM     32  C   UNL     1      -1.162   3.361   5.386  0.00  0.00    +0.092 A 
ATOM     33  C   UNL     1      -1.508   3.236   4.036  0.00  0.00    +0.258 A 
ATOM     34  O   UNL     1      -2.674   3.327   3.684  0.00  0.00    -0.267 OA
ENDBRANCH  22  31
ENDBRANCH   6  22
TORSDOF 4
