REMARK  Name = ZINC63572464
REMARK  2 active torsions:
REMARK  status: ('A' for Active; 'I' for Inactive)
REMARK    1  A    between atoms: C_6  and  C_7
REMARK    2  A    between atoms: N_25  and  C_26
REMARK                            x       y       z     vdW  Elec       q    Type
REMARK                         _______ _______ _______ _____ _____    ______ ____
ROOT
ATOM      1  C   UNL     1      -0.736  -0.563  -0.411  0.00  0.00    +0.134 C 
ATOM      2  C   UNL     1      -1.093  -0.832   1.055  0.00  0.00    +0.131 C 
ATOM      3  C   UNL     1      -0.373  -2.116   1.448  0.00  0.00    -0.035 C 
ATOM      4  C   UNL     1       0.369  -1.820   2.509  0.00  0.00    +0.001 A 
ATOM      5  C   UNL     1       1.224  -2.654   3.369  0.00  0.00    +0.030 A 
ATOM      6  C   UNL     1       1.863  -2.011   4.383  0.00  0.00    +0.042 A 
ATOM      7  C   UNL     1       1.737  -0.638   4.623  0.00  0.00    +0.022 A 
ATOM      8  C   UNL     1       0.970   0.202   3.885  0.00  0.00    +0.027 A 
ATOM      9  C   UNL     1       0.245  -0.358   2.793  0.00  0.00    +0.043 A 
ATOM     10  N   UNL     1      -0.584   0.217   1.940  0.00  0.00    -0.375 N 
ATOM     11 CL   UNL     1       2.886  -2.941   5.432  0.00  0.00    -0.084 Cl
ATOM     12  C   UNL     1      -0.500  -3.393   0.653  0.00  0.00    +0.052 C 
ATOM     13  C   UNL     1      -0.218  -3.029  -0.816  0.00  0.00    +0.114 C 
ATOM     14  N   UNL     1      -0.952  -1.807  -1.166  0.00  0.00    -0.276 N 
ATOM     15  C   UNL     1      -1.833  -1.825  -2.186  0.00  0.00    +0.307 C 
ATOM     16  O   UNL     1      -2.376  -0.796  -2.538  0.00  0.00    -0.252 OA
ATOM     17  N   UNL     1      -2.112  -2.984  -2.815  0.00  0.00    -0.269 N 
ATOM     18  H   UNL     1      -1.729  -3.815  -2.494  0.00  0.00    +0.156 HD
ATOM     19  H   UNL     1      -0.815   1.158   1.896  0.00  0.00    +0.160 HD
ENDROOT
BRANCH  17  20
ATOM     20  C   UNL     1      -2.957  -2.988  -3.933  0.00  0.00    +0.036 A 
ATOM     21  C   UNL     1      -3.857  -1.948  -4.128  0.00  0.00    +0.026 A 
ATOM     22  C   UNL     1      -4.688  -1.954  -5.230  0.00  0.00    +0.041 A 
ATOM     23  C   UNL     1      -4.626  -2.994  -6.141  0.00  0.00    +0.142 A 
ATOM     24  C   UNL     1      -3.729  -4.033  -5.949  0.00  0.00    +0.078 A 
ATOM     25  C   UNL     1      -2.890  -4.028  -4.849  0.00  0.00    +0.046 A 
ATOM     26 CL   UNL     1      -3.653  -5.337  -7.092  0.00  0.00    -0.081 Cl
ATOM     27  F   UNL     1      -5.440  -2.998  -7.219  0.00  0.00    -0.204 F 
ENDBRANCH  17  20
BRANCH   1  33
ATOM     28  C   UNL     1       1.712  -1.059  -0.242  0.00  0.00    +0.008 A 
ATOM     29  C   UNL     1       3.037  -0.679  -0.339  0.00  0.00    +0.038 A 
ATOM     30  C   UNL     1       3.360   0.616  -0.710  0.00  0.00    +0.123 A 
ATOM     31  C   UNL     1       2.355   1.528  -0.984  0.00  0.00    +0.038 A 
ATOM     32  C   UNL     1       1.030   1.145  -0.887  0.00  0.00    +0.008 A 
ATOM     33  C   UNL     1       0.709  -0.147  -0.517  0.00  0.00    -0.025 A 
ATOM     34  F   UNL     1       4.655   0.988  -0.804  0.00  0.00    -0.205 F 
ENDBRANCH   1  33
TORSDOF 2
