REMARK  Name = ZINC36595199
REMARK  9 active torsions:
REMARK  status: ('A' for Active; 'I' for Inactive)
REMARK    1  A    between atoms: C_1  and  C_2
REMARK    2  A    between atoms: C_5  and  C_7
REMARK    3  A    between atoms: C_7  and  N_8
REMARK    4  A    between atoms: N_8  and  C_9
REMARK    5  A    between atoms: C_9  and  C_11
REMARK    6  A    between atoms: C_9  and  C_16
REMARK    7  A    between atoms: N_18  and  C_19
REMARK    8  A    between atoms: C_25  and  C_27
REMARK    9  A    between atoms: C_27  and  C_28
REMARK                            x       y       z     vdW  Elec       q    Type
REMARK                         _______ _______ _______ _____ _____    ______ ____
ROOT
ATOM      1  N   UNL     1       1.905  -3.737  -1.538  0.00  0.00    -0.276 N 
ATOM      2  C   UNL     1       1.155  -4.750  -2.016  0.00  0.00    +0.221 C 
ATOM      3  O   UNL     1       1.528  -5.376  -2.986  0.00  0.00    -0.275 OA
ENDROOT
BRANCH   1   4
ATOM      4  C   UNL     1       1.516  -3.059  -0.299  0.00  0.00    +0.183 C 
BRANCH   4   9
ATOM      5  C   UNL     1       2.007  -6.769   3.082  0.00  0.00    +0.086 C 
ATOM      6  C   UNL     1       2.219  -5.467   2.354  0.00  0.00    +0.102 A 
ATOM      7  C   UNL     1       3.104  -4.512   2.692  0.00  0.00    +0.045 A 
ATOM      8  C   UNL     1       2.966  -3.472   1.744  0.00  0.00    +0.046 A 
ATOM      9  C   UNL     1       2.006  -3.854   0.884  0.00  0.00    +0.122 A 
ATOM     10  O   UNL     1       1.561  -5.065   1.255  0.00  0.00    -0.463 OA
ENDBRANCH   4   9
ENDBRANCH   1   4
BRANCH   1  11
ATOM     11  C   UNL     1       3.110  -3.316  -2.257  0.00  0.00    +0.229 C 
BRANCH  11  12
ATOM     12  C   UNL     1       3.036  -1.837  -2.537  0.00  0.00    +0.134 A 
ATOM     13  C   UNL     1       3.298  -1.245  -3.716  0.00  0.00    +0.047 A 
ATOM     14  C   UNL     1       3.106   0.143  -3.529  0.00  0.00    +0.041 A 
ATOM     15  C   UNL     1       2.739   0.317  -2.247  0.00  0.00    +0.195 A 
ATOM     16  O   UNL     1       2.692  -0.886  -1.652  0.00  0.00    -0.465 OA
ENDBRANCH  11  12
BRANCH  11  17
ATOM     17  C   UNL     1       4.325  -3.608  -1.415  0.00  0.00    +0.241 C 
ATOM     18  O   UNL     1       4.197  -4.118  -0.323  0.00  0.00    -0.273 OA
ATOM     19  N   UNL     1       5.554  -3.302  -1.877  0.00  0.00    -0.311 N 
ATOM     20  H   UNL     1       5.656  -2.894  -2.751  0.00  0.00    +0.149 HD
BRANCH  19  21
ATOM     21  C   UNL     1       6.735  -3.586  -1.059  0.00  0.00    +0.073 C 
ATOM     22  C   UNL     1       6.973  -2.429  -0.087  0.00  0.00    +0.022 C 
ATOM     23  C   UNL     1       8.207  -2.725   0.768  0.00  0.00    +0.002 C 
ATOM     24  C   UNL     1       9.428  -2.888  -0.139  0.00  0.00    +0.000 C 
ATOM     25  C   UNL     1       9.191  -4.046  -1.111  0.00  0.00    +0.002 C 
ATOM     26  C   UNL     1       7.957  -3.749  -1.966  0.00  0.00    +0.022 C 
ENDBRANCH  19  21
ENDBRANCH  11  17
ENDBRANCH   1  11
BRANCH   2  27
ATOM     27  C   UNL     1      -0.149  -5.103  -1.347  0.00  0.00    +0.131 C 
BRANCH  27  28
ATOM     28  C   UNL     1      -0.774  -6.279  -2.054  0.00  0.00    -0.039 A 
ATOM     29  C   UNL     1      -1.635  -6.069  -3.114  0.00  0.00    +0.005 A 
ATOM     30  C   UNL     1      -2.208  -7.146  -3.763  0.00  0.00    +0.015 A 
ATOM     31  C   UNL     1      -1.920  -8.435  -3.350  0.00  0.00    +0.018 A 
ATOM     32  C   UNL     1      -1.058  -8.644  -2.289  0.00  0.00    +0.015 A 
ATOM     33  C   UNL     1      -0.481  -7.566  -1.645  0.00  0.00    +0.005 A 
ATOM     34 BR   UNL     1      -2.704  -9.910  -4.237  0.00  0.00    -0.050 Br
ENDBRANCH  27  28
ENDBRANCH   2  27
TORSDOF 8
