REMARK  Name = ZINC08419772
REMARK  8 active torsions:
REMARK  status: ('A' for Active; 'I' for Inactive)
REMARK    1  A    between atoms: C_1  and  C_2
REMARK    2  A    between atoms: C_7  and  N_12
REMARK    3  A    between atoms: C_9  and  C_11
REMARK    4  A    between atoms: N_12  and  C_13
REMARK    5  A    between atoms: C_13  and  N_15
REMARK    6  A    between atoms: N_15  and  N_16
REMARK    7  A    between atoms: C_17  and  C_19
REMARK    8  A    between atoms: C_20  and  C_21
REMARK                            x       y       z     vdW  Elec       q    Type
REMARK                         _______ _______ _______ _____ _____    ______ ____
ROOT
ATOM      1  N   UNL     1       2.366   1.220  -0.014  0.00  0.00    -0.246 N 
ATOM      2  H   UNL     1       2.379   0.250  -0.019  0.00  0.00    +0.172 HD
ENDROOT
BRANCH   1   3
ATOM      3  N   UNL     1       1.143   1.903   0.001  0.00  0.00    -0.232 N 
ATOM      4  C   UNL     1      -0.014   1.214   0.009  0.00  0.00    +0.253 C 
ATOM      5  O   UNL     1       0.002  -0.004   0.002  0.00  0.00    -0.269 OA
ATOM      6  H   UNL     1       1.130   2.873   0.007  0.00  0.00    +0.173 HD
BRANCH   4   7
ATOM      7  C   UNL     1      -1.249   1.904   0.018  0.00  0.00    +0.070 C 
ATOM      8  C   UNL     1      -2.415   1.210   0.020  0.00  0.00    +0.020 C 
BRANCH   8   9
ATOM      9  C   UNL     1      -3.650   1.901   0.030  0.00  0.00    +0.012 A 
ATOM     10  C   UNL     1      -4.942   1.387   0.033  0.00  0.00    +0.015 A 
ATOM     11  C   UNL     1      -5.973   2.293   0.043  0.00  0.00    +0.008 A 
ATOM     12  C   UNL     1      -5.689   3.623   0.050  0.00  0.00    +0.046 A 
ATOM     13  S   UNL     1      -3.956   3.659   0.049  0.00  0.00    -0.097 S 
ENDBRANCH   8   9
ENDBRANCH   4   7
ENDBRANCH   1   3
BRANCH   1  14
ATOM     14  C   UNL     1       3.524   1.909  -0.021  0.00  0.00    +0.147 C 
ATOM     15  S   UNL     1       5.018   1.073  -0.040  0.00  0.00    -0.017 S 
BRANCH  14  16
ATOM     16  N   UNL     1       3.506   3.257  -0.014  0.00  0.00    -0.322 N 
ATOM     17  H   UNL     1       2.659   3.730  -0.003  0.00  0.00    +0.148 HD
BRANCH  16  23
ATOM     18  C   UNL     1       5.629   7.551   1.208  0.00  0.00    +0.008 C 
ATOM     19  C   UNL     1       5.854   6.170   0.589  0.00  0.00    -0.009 C 
ATOM     20  C   UNL     1       6.343   6.331  -0.852  0.00  0.00    +0.003 C 
ATOM     21  C   UNL     1       6.568   4.950  -1.471  0.00  0.00    +0.002 C 
ATOM     22  C   UNL     1       5.253   4.167  -1.463  0.00  0.00    +0.022 C 
ATOM     23  C   UNL     1       4.764   4.006  -0.022  0.00  0.00    +0.075 C 
ATOM     24  C   UNL     1       4.539   5.387   0.597  0.00  0.00    +0.009 C 
ATOM     25  C   UNL     1       3.489   6.146  -0.216  0.00  0.00    +0.009 C 
ENDBRANCH  16  23
ENDBRANCH  14  16
ENDBRANCH   1  14
TORSDOF 6
