REMARK  Name = ZINC61363550
REMARK  7 active torsions:
REMARK  status: ('A' for Active; 'I' for Inactive)
REMARK    1  A    between atoms: C_4  and  C_7
REMARK    2  A    between atoms: C_9  and  C_12
REMARK    3  A    between atoms: C_12  and  S_13
REMARK    4  A    between atoms: S_13  and  C_14
REMARK    5  A    between atoms: C_15  and  C_23
REMARK    6  A    between atoms: C_17  and  C_21
REMARK    7  A    between atoms: C_18  and  N_20
REMARK                            x       y       z     vdW  Elec       q    Type
REMARK                         _______ _______ _______ _____ _____    ______ ____
ROOT
ATOM      1  S   UNL     1       6.115  -4.200  -1.802  0.00  0.00    -0.098 S 
ENDROOT
BRANCH   1   2
ATOM      2  C   UNL     1       6.856  -5.792  -1.655  0.00  0.00    +0.117 A 
ATOM      3  C   UNL     1       7.193  -6.513  -2.818  0.00  0.00    +0.085 A 
ATOM      4  C   UNL     1       7.779  -7.774  -2.689  0.00  0.00    +0.043 A 
ATOM      5  C   UNL     1       8.009  -8.270  -1.403  0.00  0.00    +0.092 A 
ATOM      6  C   UNL     1       7.644  -7.487  -0.291  0.00  0.00    +0.135 A 
ATOM      7  N   UNL     1       7.095  -6.294  -0.453  0.00  0.00    -0.224 NA
BRANCH   6   8
ATOM      8  N   UNL     1       7.866  -7.968   0.984  0.00  0.00    -0.342 N 
ATOM      9  H   UNL     1       8.272  -8.840   1.109  0.00  0.00    +0.144 HD
ATOM     10  H   UNL     1       7.617  -7.433   1.754  0.00  0.00    +0.144 HD
ENDBRANCH   6   8
BRANCH   5  11
ATOM     11  C   UNL     1       8.608  -9.558  -1.219  0.00  0.00    +0.103 C 
ATOM     12  N   UNL     1       9.083 -10.579  -1.073  0.00  0.00    -0.191 NA
ENDBRANCH   5  11
BRANCH   3  13
ATOM     13  C   UNL     1       6.936  -5.962  -4.114  0.00  0.00    +0.102 C 
ATOM     14  N   UNL     1       6.733  -5.524  -5.143  0.00  0.00    -0.191 NA
ENDBRANCH   3  13
ENDBRANCH   1   2
BRANCH   1  15
ATOM     15  C   UNL     1       5.875  -3.667  -0.085  0.00  0.00    +0.134 C 
BRANCH  15  18
ATOM     16  C   UNL     1       3.695  -0.685  -0.038  0.00  0.00    +0.167 A 
ATOM     17  C   UNL     1       3.863  -2.035  -0.053  0.00  0.00    +0.077 A 
ATOM     18  C   UNL     1       5.240  -2.301  -0.067  0.00  0.00    +0.094 A 
ATOM     19  N   UNL     1       5.876  -1.163  -0.062  0.00  0.00    -0.082 NA
ATOM     20  O   UNL     1       4.918  -0.120  -0.049  0.00  0.00    -0.354 OA
BRANCH  16  24
ATOM     21  C   UNL     1      -0.017   1.379   0.010  0.00  0.00    +0.000 A 
ATOM     22  C   UNL     1       1.168   2.093   0.002  0.00  0.00    +0.001 A 
ATOM     23  C   UNL     1       2.377   1.429  -0.013  0.00  0.00    +0.011 A 
ATOM     24  C   UNL     1       2.403   0.034  -0.021  0.00  0.00    +0.020 A 
ATOM     25  C   UNL     1       1.204  -0.681  -0.013  0.00  0.00    +0.011 A 
ATOM     26  C   UNL     1       0.002  -0.004   0.002  0.00  0.00    +0.001 A 
ENDBRANCH  16  24
ENDBRANCH  15  18
ENDBRANCH   1  15
TORSDOF 7
