REMARK  Name = ZINC06088426
REMARK  7 active torsions:
REMARK  status: ('A' for Active; 'I' for Inactive)
REMARK    1  A    between atoms: C_1  and  C_2
REMARK    2  A    between atoms: C_2  and  C_4
REMARK    3  A    between atoms: C_2  and  O_22
REMARK    4  A    between atoms: N_6  and  C_7
REMARK    5  A    between atoms: C_10  and  S_13
REMARK    6  A    between atoms: S_13  and  N_16
REMARK    7  A    between atoms: O_22  and  C_23
REMARK                            x       y       z     vdW  Elec       q    Type
REMARK                         _______ _______ _______ _____ _____    ______ ____
ROOT
ATOM      1  C   UNL     1       4.238   2.739   0.272  0.00  0.00    +0.034 A 
ATOM      2  C   UNL     1       3.374   3.421   1.119  0.00  0.00    +0.025 A 
ATOM      3  C   UNL     1       2.048   3.044   1.201  0.00  0.00    +0.030 A 
ATOM      4  C   UNL     1       1.580   1.988   0.441  0.00  0.00    +0.109 A 
ATOM      5  C   UNL     1       2.438   1.303  -0.399  0.00  0.00    +0.030 A 
ATOM      6  C   UNL     1       3.764   1.678  -0.490  0.00  0.00    +0.025 A 
ENDROOT
BRANCH   1   9
ATOM      7  C   UNL     1       6.214   3.606   1.272  0.00  0.00    +0.258 C 
ATOM      8  O   UNL     1       5.649   3.629   2.344  0.00  0.00    -0.271 OA
ATOM      9  N   UNL     1       5.582   3.118   0.186  0.00  0.00    -0.282 N 
ATOM     10  H   UNL     1       6.058   3.030  -0.654  0.00  0.00    +0.155 HD
BRANCH   7  12
ATOM     11  C   UNL     1       7.639   5.360   0.249  0.00  0.00    +0.062 C 
ATOM     12  C   UNL     1       7.624   4.125   1.152  0.00  0.00    +0.256 C 
BRANCH  12  13
ATOM     13  O   UNL     1       8.114   4.476   2.448  0.00  0.00    -0.478 OA
BRANCH  13  14
ATOM     14  C   UNL     1       9.462   4.466   2.622  0.00  0.00    +0.140 A 
ATOM     15  C   UNL     1      10.300   4.237   1.541  0.00  0.00    +0.048 A 
ATOM     16  C   UNL     1      11.670   4.230   1.719  0.00  0.00    +0.023 A 
ATOM     17  C   UNL     1      12.207   4.442   2.977  0.00  0.00    +0.043 A 
ATOM     18  C   UNL     1      11.373   4.666   4.058  0.00  0.00    +0.043 A 
ATOM     19  C   UNL     1      10.002   4.678   3.883  0.00  0.00    +0.084 A 
ATOM     20 CL   UNL     1       8.955   4.958   5.240  0.00  0.00    -0.080 Cl
ATOM     21 CL   UNL     1      13.928   4.428   3.198  0.00  0.00    -0.083 Cl
ENDBRANCH  13  14
ENDBRANCH  12  13
ENDBRANCH   7  12
ENDBRANCH   1   9
BRANCH   4  22
ATOM     22  S   UNL     1      -0.112   1.509   0.550  0.00  0.00    +0.074 S 
ATOM     23  O   UNL     1      -0.580   1.953   1.816  0.00  0.00    -0.150 OA
ATOM     24  O   UNL     1      -0.176   0.147   0.149  0.00  0.00    -0.150 OA
BRANCH  22  25
ATOM     25  N   UNL     1      -0.941   2.378  -0.591  0.00  0.00    -0.194 N 
ATOM     26  C   UNL     1      -0.680   2.179  -1.938  0.00  0.00    +0.177 A 
ATOM     27  N   UNL     1       0.185   1.358  -2.502  0.00  0.00    -0.232 NA
ATOM     28  C   UNL     1       0.305   1.290  -3.815  0.00  0.00    +0.120 A 
ATOM     29  C   UNL     1      -0.474   2.093  -4.578  0.00  0.00    +0.068 A 
ATOM     30  S   UNL     1      -1.401   2.952  -3.315  0.00  0.00    -0.059 S 
ATOM     31  H   UNL     1      -1.609   3.026  -0.317  0.00  0.00    +0.176 HD
ENDBRANCH  22  25
ENDBRANCH   4  22
TORSDOF 6
