REMARK  Name = ZINC63168671
REMARK  6 active torsions:
REMARK  status: ('A' for Active; 'I' for Inactive)
REMARK    1  A    between atoms: C_1  and  N_2
REMARK    2  A    between atoms: N_2  and  C_3
REMARK    3  A    between atoms: C_3  and  C_4
REMARK    4  A    between atoms: N_10  and  C_11
REMARK    5  A    between atoms: C_11  and  C_12
REMARK    6  A    between atoms: C_15  and  C_17
REMARK                            x       y       z     vdW  Elec       q    Type
REMARK                         _______ _______ _______ _____ _____    ______ ____
ROOT
ATOM      1  C   UNL     1       0.878  -2.115   1.205  0.00  0.00    -0.086 C 
ATOM      2  C   UNL     1       1.466  -2.515   2.560  0.00  0.00    -0.017 C 
ATOM      3  C   UNL     1       1.467  -4.042   2.678  0.00  0.00    -0.003 C 
ATOM      4  C   UNL     1       0.039  -4.560   2.490  0.00  0.00    -0.019 C 
ATOM      5  C   UNL     1      -0.497  -4.084   1.138  0.00  0.00    -0.078 C 
ATOM      6  N   UNL     1      -0.497  -2.616   1.098  0.00  0.00    +0.386 N 
ATOM      7  H   UNL     1      -1.045  -2.260   1.866  0.00  0.00    -0.081 HD
ENDROOT
BRANCH   1   8
ATOM      8  C   UNL     1       0.875  -0.590   1.082  0.00  0.00    -0.099 C 
BRANCH   8  10
ATOM      9  C   UNL     1       0.028   1.446   2.027  0.00  0.00    -0.101 C 
ATOM     10  N   UNL     1      -0.054  -0.021   2.067  0.00  0.00    +0.376 N 
ATOM     11  H   UNL     1       0.194  -0.346   2.990  0.00  0.00    -0.086 HD
ATOM     12  H   UNL     1      -0.995  -0.311   1.849  0.00  0.00    -0.086 HD
ENDBRANCH   8  10
ENDBRANCH   1   8
BRANCH   6  13
ATOM     13  C   UNL     1      -1.085  -2.163  -0.170  0.00  0.00    +0.021 C 
BRANCH  13  14
ATOM     14  C   UNL     1      -2.533  -2.576  -0.229  0.00  0.00    +0.202 A 
ATOM     15  N   UNL     1      -3.549  -1.876   0.189  0.00  0.00    -0.114 NA
ATOM     16  N   UNL     1      -4.638  -2.531  -0.016  0.00  0.00    -0.107 NA
ATOM     17  C   UNL     1      -4.349  -3.685  -0.578  0.00  0.00    +0.255 A 
ATOM     18  O   UNL     1      -3.009  -3.732  -0.727  0.00  0.00    -0.422 OA
BRANCH  17  19
ATOM     19  C   UNL     1      -5.309  -4.727  -0.974  0.00  0.00    +0.077 A 
ATOM     20  C   UNL     1      -6.686  -4.732  -0.857  0.00  0.00    +0.022 A 
ATOM     21  C   UNL     1      -7.376  -5.835  -1.304  0.00  0.00    +0.024 A 
ATOM     22  C   UNL     1      -6.688  -6.877  -1.843  0.00  0.00    +0.056 A 
ATOM     23  S   UNL     1      -4.998  -6.311  -1.737  0.00  0.00    -0.077 S 
ATOM     24 BR   UNL     1      -7.352  -8.507  -2.534  0.00  0.00    -0.043 Br
ENDBRANCH  17  19
ENDBRANCH  13  14
ENDBRANCH   6  13
TORSDOF 5
