REMARK  Name = ZINC06798037
REMARK  4 active torsions:
REMARK  status: ('A' for Active; 'I' for Inactive)
REMARK    1  A    between atoms: C_1  and  C_2
REMARK    2  A    between atoms: C_5  and  C_8
REMARK    3  A    between atoms: C_11  and  C_12
REMARK    4  A    between atoms: C_16  and  N_18
REMARK                            x       y       z     vdW  Elec       q    Type
REMARK                         _______ _______ _______ _____ _____    ______ ____
ROOT
ATOM      1  C   UNL     1       2.107   0.824  -0.010  0.00  0.00    +0.140 C 
ATOM      2  C   UNL     1       1.434  -0.346   0.022  0.00  0.00    +0.062 C 
ATOM      3  C   UNL     1       0.001  -0.003  -0.008  0.00  0.00    +0.063 C 
ATOM      4  C   UNL     1      -1.075  -0.865   0.008  0.00  0.00    +0.023 C 
ATOM      5  C   UNL     1      -0.020   1.473  -0.059  0.00  0.00    +0.345 C 
ATOM      6  O   UNL     1      -1.005   2.185  -0.101  0.00  0.00    -0.245 OA
ATOM      7  O   UNL     1       1.264   1.874  -0.057  0.00  0.00    -0.422 OA
ENDROOT
BRANCH   1  12
ATOM      8  C   UNL     1       7.843   1.267   0.054  0.00  0.00    +0.044 C 
ATOM      9  C   UNL     1       6.340   1.151   0.037  0.00  0.00    -0.050 A 
ATOM     10  C   UNL     1       5.562   2.294  -0.013  0.00  0.00    +0.004 A 
ATOM     11  C   UNL     1       4.186   2.195  -0.029  0.00  0.00    +0.012 A 
ATOM     12  C   UNL     1       3.579   0.937   0.006  0.00  0.00    +0.017 A 
ATOM     13  C   UNL     1       4.371  -0.212   0.063  0.00  0.00    +0.012 A 
ATOM     14  C   UNL     1       5.746  -0.098   0.073  0.00  0.00    +0.004 A 
ENDBRANCH   1  12
BRANCH   4  15
ATOM     15  C   UNL     1      -0.859  -2.310  -0.113  0.00  0.00    -0.022 A 
ATOM     16  C   UNL     1       0.292  -2.801  -0.744  0.00  0.00    +0.008 A 
ATOM     17  C   UNL     1       0.490  -4.160  -0.848  0.00  0.00    +0.003 A 
ATOM     18  C   UNL     1      -0.452  -5.042  -0.343  0.00  0.00    +0.033 A 
ATOM     19  C   UNL     1      -1.595  -4.566   0.277  0.00  0.00    +0.127 A 
ATOM     20  C   UNL     1      -1.806  -3.209   0.395  0.00  0.00    +0.040 A 
BRANCH  19  21
ATOM     21  N   UNL     1      -2.593  -5.518   0.813  0.00  0.00    +0.056 N 
ATOM     22  O   UNL     1      -3.600  -5.102   1.359  0.00  0.00    -0.126 OA
ATOM     23  O   UNL     1      -2.409  -6.718   0.709  0.00  0.00    -0.126 OA
ENDBRANCH  19  21
ENDBRANCH   4  15
TORSDOF 3
