REMARK  Name = ZINC13407015
REMARK  4 active torsions:
REMARK  status: ('A' for Active; 'I' for Inactive)
REMARK    1  A    between atoms: C_1  and  C_2
REMARK    2  A    between atoms: C_2  and  C_15
REMARK    3  A    between atoms: N_3  and  C_4
REMARK    4  A    between atoms: C_7  and  N_11
REMARK                            x       y       z     vdW  Elec       q    Type
REMARK                         _______ _______ _______ _____ _____    ______ ____
ROOT
ATOM      1  C   UNL     1       4.840   5.482  -0.016  0.00  0.00    +0.066 C 
ATOM      2  C   UNL     1       4.831   3.975  -0.023  0.00  0.00    +0.053 C 
ATOM      3  N   UNL     1       5.957   3.316  -0.037  0.00  0.00    -0.249 NA
ENDROOT
BRANCH   2   4
ATOM      4  C   UNL     1       3.556   3.249  -0.014  0.00  0.00    +0.081 A 
ATOM      5  C   UNL     1       2.353   3.936  -0.000  0.00  0.00    +0.028 A 
ATOM      6  C   UNL     1       1.145   3.193   0.008  0.00  0.00    +0.018 A 
ATOM      7  C   UNL     1      -0.091   3.857   0.023  0.00  0.00    +0.011 A 
ATOM      8  C   UNL     1      -1.250   3.136   0.030  0.00  0.00    +0.001 A 
ATOM      9  C   UNL     1      -1.216   1.749   0.017  0.00  0.00    +0.004 A 
ATOM     10  C   UNL     1      -0.013   1.076   0.008  0.00  0.00    +0.047 A 
ATOM     11  C   UNL     1       1.182   1.787   0.000  0.00  0.00    +0.139 A 
ATOM     12  O   UNL     1       2.359   1.125  -0.013  0.00  0.00    -0.422 OA
ATOM     13  C   UNL     1       3.532   1.780  -0.021  0.00  0.00    +0.346 A 
ATOM     14  O   UNL     1       4.576   1.155  -0.033  0.00  0.00    -0.244 OA
ENDBRANCH   2   4
BRANCH   3  15
ATOM     15  C   UNL     1       7.146   3.993  -0.045  0.00  0.00    +0.101 A 
ATOM     16  C   UNL     1       7.748   4.342  -1.258  0.00  0.00    +0.070 A 
ATOM     17  C   UNL     1       8.944   5.030  -1.258  0.00  0.00    +0.055 A 
ATOM     18  C   UNL     1       9.554   5.364  -0.061  0.00  0.00    +0.129 A 
ATOM     19  C   UNL     1       8.968   5.018   1.143  0.00  0.00    +0.055 A 
ATOM     20  C   UNL     1       7.768   4.335   1.159  0.00  0.00    +0.070 A 
ATOM     21 CL   UNL     1       7.033   3.903   2.671  0.00  0.00    -0.081 Cl
ATOM     22 CL   UNL     1       6.988   3.917  -2.760  0.00  0.00    -0.081 Cl
BRANCH  18  23
ATOM     23  N   UNL     1      10.841   6.097  -0.070  0.00  0.00    +0.057 N 
ATOM     24  O   UNL     1      11.380   6.393   0.981  0.00  0.00    -0.126 OA
ATOM     25  O   UNL     1      11.360   6.403  -1.129  0.00  0.00    -0.126 OA
ENDBRANCH  18  23
ENDBRANCH   3  15
TORSDOF 3
