REMARK  Name = ZINC02744805
REMARK  6 active torsions:
REMARK  status: ('A' for Active; 'I' for Inactive)
REMARK    1  A    between atoms: C_1  and  C_2
REMARK    2  A    between atoms: C_2  and  C_4
REMARK    3  A    between atoms: C_2  and  O_19
REMARK    4  A    between atoms: N_6  and  C_7
REMARK    5  A    between atoms: C_8  and  C_16
REMARK    6  A    between atoms: O_19  and  C_20
REMARK                            x       y       z     vdW  Elec       q    Type
REMARK                         _______ _______ _______ _____ _____    ______ ____
ROOT
ATOM      1  C   UNL     1      -2.129   1.063   1.033  0.00  0.00    +0.258 C 
ATOM      2  O   UNL     1      -3.029   1.839   0.787  0.00  0.00    -0.271 OA
ATOM      3  N   UNL     1      -2.378  -0.260   1.091  0.00  0.00    -0.276 N 
ATOM      4  H   UNL     1      -1.659  -0.881   1.288  0.00  0.00    +0.155 HD
ENDROOT
BRANCH   3   5
ATOM      5  C   UNL     1      -3.661  -0.735   0.869  0.00  0.00    +0.084 A 
ATOM      6  C   UNL     1      -4.109  -2.049   0.880  0.00  0.00    +0.068 A 
ATOM      7  C   UNL     1      -5.519  -2.280   0.618  0.00  0.00    -0.023 A 
ATOM      8  C   UNL     1      -6.249  -1.169   0.378  0.00  0.00    -0.004 A 
ATOM      9  S   UNL     1      -5.095   0.167   0.503  0.00  0.00    -0.077 S 
ATOM     10  C   UNL     1      -7.714  -1.100   0.073  0.00  0.00    +0.043 C 
ATOM     11  C   UNL     1      -8.199  -2.509  -0.296  0.00  0.00    +0.005 C 
ATOM     12  C   UNL     1      -7.677  -3.500   0.748  0.00  0.00    +0.005 C 
ATOM     13  C   UNL     1      -6.163  -3.661   0.602  0.00  0.00    +0.037 C 
BRANCH   6  14
ATOM     14  C   UNL     1      -3.193  -3.162   1.150  0.00  0.00    +0.244 C 
ATOM     15  O   UNL     1      -3.021  -3.545   2.292  0.00  0.00    -0.270 OA
ATOM     16  N   UNL     1      -2.542  -3.760   0.133  0.00  0.00    -0.325 N 
ATOM     17  H   UNL     1      -2.679  -3.455  -0.777  0.00  0.00    +0.145 HD
ATOM     18  H   UNL     1      -1.936  -4.497   0.312  0.00  0.00    +0.145 HD
ENDBRANCH   6  14
ENDBRANCH   3   5
BRANCH   1  20
ATOM     19  C   UNL     1       0.194   1.078   0.166  0.00  0.00    +0.062 C 
ATOM     20  C   UNL     1      -0.734   1.579   1.274  0.00  0.00    +0.256 C 
BRANCH  20  21
ATOM     21  O   UNL     1      -0.748   3.008   1.275  0.00  0.00    -0.478 OA
BRANCH  21  22
ATOM     22  C   UNL     1       0.242   3.635   1.963  0.00  0.00    +0.140 A 
ATOM     23  C   UNL     1       1.269   2.895   2.530  0.00  0.00    +0.048 A 
ATOM     24  C   UNL     1       2.277   3.534   3.226  0.00  0.00    +0.023 A 
ATOM     25  C   UNL     1       2.258   4.911   3.366  0.00  0.00    +0.043 A 
ATOM     26  C   UNL     1       1.232   5.651   2.806  0.00  0.00    +0.043 A 
ATOM     27  C   UNL     1       0.224   5.016   2.105  0.00  0.00    +0.084 A 
ATOM     28 CL   UNL     1      -1.064   5.944   1.403  0.00  0.00    -0.080 Cl
ATOM     29 CL   UNL     1       3.523   5.710   4.247  0.00  0.00    -0.083 Cl
ENDBRANCH  21  22
ENDBRANCH  20  21
ENDBRANCH   1  20
TORSDOF 5
