REMARK  Name = ZINC58370091
REMARK  8 active torsions:
REMARK  status: ('A' for Active; 'I' for Inactive)
REMARK    1  A    between atoms: C_1  and  C_2
REMARK    2  A    between atoms: C_7  and  C_8
REMARK    3  A    between atoms: C_7  and  C_9
REMARK    4  A    between atoms: N_12  and  N_13
REMARK    5  A    between atoms: C_14  and  C_16
REMARK    6  A    between atoms: C_16  and  O_17
REMARK    7  A    between atoms: O_17  and  N_18
REMARK    8  A    between atoms: C_19  and  C_20
REMARK                            x       y       z     vdW  Elec       q    Type
REMARK                         _______ _______ _______ _____ _____    ______ ____
ROOT
ATOM      1  N   UNL     1      -0.041   1.091  -2.733  0.00  0.00    -0.204 N 
ATOM      2  C   UNL     1       0.247   1.677  -3.912  0.00  0.00    +0.272 C 
ATOM      3  O   UNL     1       0.796   1.042  -4.787  0.00  0.00    -0.270 OA
ATOM      4  H   UNL     1      -0.480   1.599  -2.033  0.00  0.00    +0.177 HD
ENDROOT
BRANCH   1  15
ATOM      5  C   UNL     1      -0.223   1.450  -0.069  0.00  0.00    +0.018 C 
ATOM      6  C   UNL     1      -0.345  -0.075  -0.082  0.00  0.00    +0.013 C 
ATOM      7  C   UNL     1      -1.772  -0.645   0.186  0.00  0.00    +0.013 C 
ATOM      8  C   UNL     1      -1.530  -2.107   0.627  0.00  0.00    +0.005 C 
ATOM      9  C   UNL     1       0.019  -2.280   0.573  0.00  0.00    +0.001 C 
ATOM     10  C   UNL     1       0.485  -0.844   1.006  0.00  0.00    -0.021 C 
ATOM     11  C   UNL     1       1.991  -0.649   0.824  0.00  0.00    +0.012 C 
ATOM     12  C   UNL     1       0.034  -0.497   2.426  0.00  0.00    +0.012 C 
ATOM     13  C   UNL     1       0.357  -2.256  -0.950  0.00  0.00    +0.057 C 
ATOM     14  C   UNL     1       0.136  -0.775  -1.361  0.00  0.00    +0.044 C 
ATOM     15  N   UNL     1       0.294  -0.252  -2.519  0.00  0.00    -0.189 NA
ENDBRANCH   1  15
BRANCH   2  16
ATOM     16  C   UNL     1      -0.114   3.123  -4.142  0.00  0.00    +0.359 C 
BRANCH  16  17
ATOM     17  O   UNL     1       0.290   3.510  -5.457  0.00  0.00    -0.383 OA
BRANCH  17  18
ATOM     18  N   UNL     1      -0.004   4.858  -5.776  0.00  0.00    -0.069 NA
ATOM     19  C   UNL     1       0.314   5.335  -6.943  0.00  0.00    +0.163 C 
ATOM     20  N   UNL     1       0.160   6.686  -7.205  0.00  0.00    -0.340 N 
ATOM     21  H   UNL     1      -0.184   7.277  -6.517  0.00  0.00    +0.144 HD
ATOM     22  H   UNL     1       0.397   7.041  -8.076  0.00  0.00    +0.144 HD
BRANCH  19  23
ATOM     23  C   UNL     1       0.839   4.432  -7.993  0.00  0.00    +0.019 A 
ATOM     24  C   UNL     1       0.537   3.071  -7.961  0.00  0.00    +0.011 A 
ATOM     25  C   UNL     1       1.030   2.234  -8.942  0.00  0.00    +0.002 A 
ATOM     26  C   UNL     1       1.821   2.743  -9.956  0.00  0.00    +0.020 A 
ATOM     27  C   UNL     1       2.125   4.093  -9.993  0.00  0.00    +0.042 A 
ATOM     28  C   UNL     1       1.633   4.941  -9.020  0.00  0.00    +0.031 A 
ATOM     29 CL   UNL     1       3.120   4.723 -11.269  0.00  0.00    -0.084 Cl
ENDBRANCH  19  23
ENDBRANCH  17  18
ENDBRANCH  16  17
ENDBRANCH   2  16
TORSDOF 5
