REMARK  Name = ZINC20762025
REMARK  13 active torsions:
REMARK  status: ('A' for Active; 'I' for Inactive)
REMARK    1  A    between atoms: C_1  and  O_2
REMARK    2  A    between atoms: O_2  and  C_3
REMARK    3  A    between atoms: C_5  and  C_11
REMARK    4  A    between atoms: C_7  and  O_9
REMARK    5  A    between atoms: O_9  and  C_10
REMARK    6  A    between atoms: N_24  and  C_25
REMARK    7  A    between atoms: C_25  and  C_27
REMARK    8  A    between atoms: C_25  and  C_31
REMARK    9  A    between atoms: C_27  and  C_28
REMARK   10  A    between atoms: C_28  and  S_29
REMARK   11  A    between atoms: S_29  and  C_30
REMARK   12  A    between atoms: C_31  and  O_33
REMARK   13  A    between atoms: O_33  and  C_34
REMARK                            x       y       z     vdW  Elec       q    Type
REMARK                         _______ _______ _______ _____ _____    ______ ____
ROOT
ATOM      1  C   UNL     1       1.379  -4.148   2.208  0.00  0.00    +0.156 C 
ATOM      2  C   UNL     1       0.429  -4.669   3.260  0.00  0.00    +0.062 A 
ATOM      3  C   UNL     1       0.829  -5.186   4.441  0.00  0.00    +0.040 A 
ATOM      4  N   UNL     1      -0.297  -5.541   5.121  0.00  0.00    -0.349 N 
ATOM      5  H   UNL     1      -0.336  -5.940   6.005  0.00  0.00    +0.166 HD
ATOM      6  C   UNL     1      -1.351  -5.232   4.331  0.00  0.00    +0.171 A 
ATOM      7  N   UNL     1      -0.905  -4.710   3.219  0.00  0.00    -0.348 N 
ATOM      8  C   UNL     1       2.264  -5.329   4.877  0.00  0.00    +0.074 C 
ATOM      9  C   UNL     1       3.138  -4.417   4.006  0.00  0.00    +0.116 C 
ATOM     10  N   UNL     1       2.738  -4.567   2.598  0.00  0.00    -0.273 N 
ATOM     11  C   UNL     1       3.591  -5.076   1.687  0.00  0.00    +0.304 C 
ATOM     12  O   UNL     1       4.671  -5.507   2.040  0.00  0.00    -0.253 OA
ATOM     13  N   UNL     1       3.246  -5.107   0.384  0.00  0.00    -0.286 N 
ATOM     14  H   UNL     1       2.417  -4.696   0.092  0.00  0.00    +0.151 HD
ATOM     15  H   UNL     1      -1.454  -4.403   2.481  0.00  0.00    +0.167 HD
ENDROOT
BRANCH   1  18
ATOM     16  C   UNL     1       0.994  -0.628   0.885  0.00  0.00    +0.124 A 
ATOM     17  C   UNL     1       1.065  -2.013   0.943  0.00  0.00    +0.051 A 
ATOM     18  C   UNL     1       1.304  -2.644   2.149  0.00  0.00    -0.014 A 
ATOM     19  C   UNL     1       1.474  -1.899   3.300  0.00  0.00    +0.051 A 
ATOM     20  C   UNL     1       1.405  -0.514   3.247  0.00  0.00    +0.124 A 
ATOM     21  C   UNL     1       1.170   0.122   2.038  0.00  0.00    +0.091 A 
BRANCH  16  23
ATOM     22  C   UNL     1       0.705   1.420  -0.286  0.00  0.00    +0.277 C 
ATOM     23  O   UNL     1       0.758  -0.008  -0.300  0.00  0.00    -0.495 OA
ENDBRANCH  16  23
BRANCH  20  24
ATOM     24  O   UNL     1       1.572   0.219   4.380  0.00  0.00    -0.495 OA
ATOM     25  C   UNL     1       1.488   1.640   4.252  0.00  0.00    +0.277 C 
ENDBRANCH  20  24
ENDBRANCH   1  18
BRANCH  13  26
ATOM     26  C   UNL     1       4.122  -5.762  -0.590  0.00  0.00    +0.184 C 
BRANCH  26  27
ATOM     27  C   UNL     1       5.183  -4.793  -1.044  0.00  0.00    +0.327 C 
ATOM     28  O   UNL     1       5.204  -3.670  -0.598  0.00  0.00    -0.249 OA
BRANCH  27  29
ATOM     29  O   UNL     1       6.103  -5.176  -1.942  0.00  0.00    -0.467 OA
ATOM     30  C   UNL     1       7.079  -4.206  -2.326  0.00  0.00    +0.280 C 
ENDBRANCH  27  29
ENDBRANCH  26  27
BRANCH  26  31
ATOM     31  C   UNL     1       3.296  -6.215  -1.796  0.00  0.00    +0.044 C 
BRANCH  31  32
ATOM     32  C   UNL     1       2.301  -7.292  -1.358  0.00  0.00    +0.071 C 
BRANCH  32  33
ATOM     33  S   UNL     1       1.322  -7.828  -2.787  0.00  0.00    -0.164 S 
ATOM     34  C   UNL     1       0.208  -9.088  -2.108  0.00  0.00    +0.084 C 
ENDBRANCH  32  33
ENDBRANCH  31  32
ENDBRANCH  26  31
ENDBRANCH  13  26
TORSDOF 9
