REMARK  Name = ZINC20103299
REMARK  4 active torsions:
REMARK  status: ('A' for Active; 'I' for Inactive)
REMARK    1  A    between atoms: C_1  and  N_2
REMARK    2  A    between atoms: C_13  and  C_16
REMARK    3  A    between atoms: C_19  and  O_23
REMARK    4  A    between atoms: O_23  and  C_24
REMARK                            x       y       z     vdW  Elec       q    Type
REMARK                         _______ _______ _______ _____ _____    ______ ____
ROOT
ATOM      1  C   UNL     1       1.850   4.294  -8.387  0.00  0.00    -0.096 C 
ATOM      2  N   UNL     1       1.581   4.085  -6.958  0.00  0.00    +0.381 N 
ATOM      3  C   UNL     1       0.464   4.925  -6.505  0.00  0.00    -0.074 C 
ATOM      4  C   UNL     1      -0.044   4.435  -5.146  0.00  0.00    +0.018 C 
ATOM      5  C   UNL     1       1.149   4.324  -4.203  0.00  0.00    -0.027 A 
ATOM      6  C   UNL     1       2.406   4.290  -4.705  0.00  0.00    -0.021 A 
ATOM      7  S   UNL     1       3.461   4.168  -3.286  0.00  0.00    -0.080 S 
ATOM      8  C   UNL     1       2.263   4.165  -2.062  0.00  0.00    +0.080 A 
ATOM      9  C   UNL     1       1.047   4.253  -2.756  0.00  0.00    +0.068 A 
ATOM     10  C   UNL     1      -0.199   4.261  -1.956  0.00  0.00    +0.248 C 
ATOM     11  O   UNL     1      -1.285   4.447  -2.474  0.00  0.00    -0.270 OA
ATOM     12  N   UNL     1      -0.082   4.055  -0.627  0.00  0.00    -0.289 N 
ATOM     13  C   UNL     1       1.147   3.593   0.010  0.00  0.00    +0.190 C 
ATOM     14  N   UNL     1       2.339   4.098  -0.695  0.00  0.00    -0.316 N 
ATOM     15  C   UNL     1       2.788   4.344  -6.150  0.00  0.00    -0.036 C 
ATOM     16  H   UNL     1      -0.976   4.255  -0.019  0.00  0.00    +0.151 HD
ATOM     17  H   UNL     1       3.229   4.399  -0.124  0.00  0.00    +0.149 HD
ATOM     18  H   UNL     1       1.293   3.033  -6.823  0.00  0.00    -0.082 HD
ENDROOT
BRANCH  13  19
ATOM     19  C   UNL     1       1.171   2.086   0.002  0.00  0.00    -0.008 A 
ATOM     20  C   UNL     1      -0.017   1.377   0.010  0.00  0.00    +0.011 A 
ATOM     21  C   UNL     1       0.002  -0.004   0.002  0.00  0.00    +0.047 A 
ATOM     22  C   UNL     1       1.213  -0.680  -0.013  0.00  0.00    +0.133 A 
ATOM     23  C   UNL     1       2.404   0.033  -0.021  0.00  0.00    +0.055 A 
ATOM     24  C   UNL     1       2.379   1.415  -0.013  0.00  0.00    +0.025 A 
ATOM     25  I   UNL     1       4.235  -0.983  -0.044  0.00  0.00    -0.040 I 
BRANCH  22  26
ATOM     26  O   UNL     1       1.234  -2.039  -0.020  0.00  0.00    -0.494 OA
ATOM     27  C   UNL     1      -0.029  -2.708  -0.011  0.00  0.00    +0.277 C 
ENDBRANCH  22  26
ENDBRANCH  13  19
TORSDOF 2
