REMARK  Name = ZINC36128815
REMARK  6 active torsions:
REMARK  status: ('A' for Active; 'I' for Inactive)
REMARK    1  A    between atoms: C_1  and  C_2
REMARK    2  A    between atoms: C_2  and  C_3
REMARK    3  A    between atoms: C_7  and  C_22
REMARK    4  A    between atoms: N_10  and  S_11
REMARK    5  A    between atoms: S_11  and  C_14
REMARK    6  A    between atoms: C_18  and  N_20
REMARK                            x       y       z     vdW  Elec       q    Type
REMARK                         _______ _______ _______ _____ _____    ______ ____
ROOT
ATOM      1  S   UNL     1       2.736   1.043  -2.242  0.00  0.00    +0.061 S 
ATOM      2  O   UNL     1       4.133   0.803  -2.346  0.00  0.00    -0.153 OA
ATOM      3  O   UNL     1       1.879   1.058  -3.375  0.00  0.00    -0.153 OA
ENDROOT
BRANCH   1   9
ATOM      4  C   UNL     1       0.718  -0.497  -1.257  0.00  0.00    +0.105 C 
ATOM      5  C   UNL     1       0.644  -2.027  -1.327  0.00  0.00    +0.180 C 
ATOM      6  O   UNL     1       1.422  -2.585  -0.265  0.00  0.00    -0.374 OA
ATOM      7  C   UNL     1       2.816  -2.274  -0.335  0.00  0.00    +0.131 C 
ATOM      8  C   UNL     1       3.001  -0.757  -0.214  0.00  0.00    +0.141 C 
ATOM      9  N   UNL     1       2.135  -0.102  -1.208  0.00  0.00    -0.169 NA
ATOM     10  C   UNL     1       3.553  -2.973   0.810  0.00  0.00    +0.039 C 
BRANCH   4  12
ATOM     11  C   UNL     1      -0.019   1.526   0.010  0.00  0.00    +0.005 C 
ATOM     12  C   UNL     1       0.002  -0.004   0.002  0.00  0.00    +0.019 C 
ENDBRANCH   4  12
ENDBRANCH   1   9
BRANCH   1  13
ATOM     13  C   UNL     1       2.552   2.607  -1.451  0.00  0.00    +0.107 A 
ATOM     14  C   UNL     1       1.393   3.339  -1.631  0.00  0.00    +0.031 A 
ATOM     15  C   UNL     1       1.243   4.567  -1.013  0.00  0.00    +0.042 A 
ATOM     16  C   UNL     1       2.253   5.066  -0.211  0.00  0.00    +0.144 A 
ATOM     17  C   UNL     1       3.419   4.331  -0.028  0.00  0.00    +0.062 A 
ATOM     18  C   UNL     1       3.562   3.096  -0.646  0.00  0.00    +0.054 A 
ATOM     19  F   UNL     1       2.107   6.266   0.393  0.00  0.00    -0.204 F 
BRANCH  17  20
ATOM     20  N   UNL     1       4.443   4.832   0.783  0.00  0.00    -0.356 N 
ATOM     21  H   UNL     1       4.340   5.693   1.218  0.00  0.00    +0.142 HD
ATOM     22  H   UNL     1       5.256   4.318   0.910  0.00  0.00    +0.142 HD
ENDBRANCH  17  20
ENDBRANCH   1  13
TORSDOF 4
