REMARK  Name = ZINC39510629
REMARK  12 active torsions:
REMARK  status: ('A' for Active; 'I' for Inactive)
REMARK    1  A    between atoms: C_1  and  C_2
REMARK    2  A    between atoms: C_4  and  C_8
REMARK    3  A    between atoms: C_8  and  N_9
REMARK    4  A    between atoms: C_10  and  C_12
REMARK    5  A    between atoms: C_12  and  C_13
REMARK    6  A    between atoms: C_15  and  C_33
REMARK    7  A    between atoms: N_17  and  C_29
REMARK    8  A    between atoms: C_25  and  C_27
REMARK    9  A    between atoms: C_25  and  C_28
REMARK   10  A    between atoms: C_29  and  C_30
REMARK   11  A    between atoms: C_30  and  C_31
REMARK   12  A    between atoms: C_30  and  C_32
REMARK                            x       y       z     vdW  Elec       q    Type
REMARK                         _______ _______ _______ _____ _____    ______ ____
ROOT
ATOM      1  C   UNL     1      -2.130  -6.207   4.165  0.00  0.00    -0.007 C 
ATOM      2  C   UNL     1      -2.110  -6.131   5.718  0.00  0.00    -0.067 C 
ATOM      3  N   UNL     1      -3.134  -7.092   6.212  0.00  0.00    +0.384 N 
ATOM      4  C   UNL     1      -3.638  -7.800   5.048  0.00  0.00    -0.057 C 
ATOM      5  C   UNL     1      -3.537  -6.758   3.897  0.00  0.00    +0.044 C 
ATOM      6  C   UNL     1      -3.702  -7.548   2.631  0.00  0.00    +0.136 C 
ATOM      7  O   UNL     1      -2.864  -7.558   1.761  0.00  0.00    -0.297 OA
ATOM      8  C   UNL     1      -4.999  -8.336   2.520  0.00  0.00    +0.081 C 
ATOM      9  C   UNL     1      -5.229  -9.178   3.773  0.00  0.00    -0.030 C 
ATOM     10  C   UNL     1      -5.049  -8.334   5.051  0.00  0.00    -0.008 C 
ATOM     11  C   UNL     1      -4.236 -10.341   3.782  0.00  0.00    +0.011 C 
ATOM     12  C   UNL     1      -6.652  -9.739   3.743  0.00  0.00    +0.011 C 
ATOM     13  C   UNL     1      -2.459  -4.714   6.176  0.00  0.00    -0.013 C 
ATOM     14  H   UNL     1      -3.885  -6.594   6.665  0.00  0.00    -0.081 HD
ENDROOT
BRANCH   1  15
ATOM     15  C   UNL     1      -1.958  -4.818   3.547  0.00  0.00    +0.098 C 
BRANCH  15  17
ATOM     16  N   UNL     1      -0.171  -3.122   3.332  0.00  0.00    -0.310 N 
ATOM     17  C   UNL     1      -0.553  -4.330   3.790  0.00  0.00    +0.214 C 
ATOM     18  O   UNL     1       0.233  -5.024   4.398  0.00  0.00    -0.276 OA
ATOM     19  H   UNL     1      -0.800  -2.566   2.845  0.00  0.00    +0.149 HD
BRANCH  16  20
ATOM     20  C   UNL     1       1.194  -2.647   3.568  0.00  0.00    +0.161 C 
BRANCH  20  24
ATOM     21  C   UNL     1       1.400   2.413   3.026  0.00  0.00    +0.065 C 
ATOM     22  C   UNL     1       1.449   0.934   2.739  0.00  0.00    +0.033 A 
ATOM     23  C   UNL     1       1.216  -0.059   3.628  0.00  0.00    +0.049 A 
ATOM     24  C   UNL     1       1.363  -1.279   2.959  0.00  0.00    +0.080 A 
ATOM     25  N   UNL     1       1.673  -1.027   1.713  0.00  0.00    -0.177 NA
ATOM     26  H   UNL     1       1.933   0.833   0.725  0.00  0.00    +0.189 HD
ATOM     27  N   UNL     1       1.728   0.363   1.549  0.00  0.00    -0.282 N 
ENDBRANCH  20  24
ENDBRANCH  16  20
ENDBRANCH  15  17
ENDBRANCH   1  15
BRANCH   3  28
ATOM     28  C   UNL     1      -2.521  -8.042   7.151  0.00  0.00    -0.075 C 
BRANCH  28  29
ATOM     29  C   UNL     1      -3.608  -8.923   7.768  0.00  0.00    -0.034 C 
ATOM     30  C   UNL     1      -2.966  -9.932   8.722  0.00  0.00    +0.005 C 
ATOM     31  C   UNL     1      -4.596  -8.047   8.542  0.00  0.00    +0.005 C 
ENDBRANCH  28  29
ENDBRANCH   3  28
TORSDOF 6
