REMARK  Name = ZINC15449967
REMARK  8 active torsions:
REMARK  status: ('A' for Active; 'I' for Inactive)
REMARK    1  A    between atoms: C_1  and  N_2
REMARK    2  A    between atoms: C_6  and  C_8
REMARK    3  A    between atoms: C_8  and  C_10
REMARK    4  A    between atoms: C_8  and  N_16
REMARK    5  A    between atoms: N_16  and  C_17
REMARK    6  A    between atoms: N_16  and  C_18
REMARK    7  A    between atoms: C_18  and  C_19
REMARK    8  A    between atoms: N_21  and  C_22
REMARK                            x       y       z     vdW  Elec       q    Type
REMARK                         _______ _______ _______ _____ _____    ______ ____
ROOT
ATOM      1  C   UNL     1      -1.307   1.996  -0.196  0.00  0.00    +0.174 C 
ENDROOT
BRANCH   1   7
ATOM      2  C   UNL     1       4.597   0.942   1.067  0.00  0.00    +0.129 C 
ATOM      3  N   UNL     1       3.316   1.653   1.075  0.00  0.00    -0.302 N 
ATOM      4  C   UNL     1       2.252   1.130   0.434  0.00  0.00    +0.306 C 
ATOM      5  O   UNL     1       2.354   0.069  -0.149  0.00  0.00    -0.252 OA
ATOM      6  N   UNL     1       1.073   1.784   0.442  0.00  0.00    -0.239 N 
ATOM      7  C   UNL     1       0.008   1.262  -0.199  0.00  0.00    +0.242 C 
ATOM      8  O   UNL     1       0.111   0.203  -0.781  0.00  0.00    -0.273 OA
ATOM      9  H   UNL     1       3.224   2.613   1.603  0.00  0.00    +0.150 HD
ATOM     10  H   UNL     1       0.981   2.745   0.970  0.00  0.00    +0.159 HD
ENDBRANCH   1   7
BRANCH   1  11
ATOM     11  C   UNL     1      -1.348   2.958  -1.355  0.00  0.00    -0.021 A 
ATOM     12  C   UNL     1      -1.642   2.498  -2.625  0.00  0.00    +0.005 A 
ATOM     13  C   UNL     1      -1.683   3.381  -3.688  0.00  0.00    +0.000 A 
ATOM     14  C   UNL     1      -1.423   4.723  -3.482  0.00  0.00    +0.000 A 
ATOM     15  C   UNL     1      -1.125   5.182  -2.213  0.00  0.00    +0.000 A 
ATOM     16  C   UNL     1      -1.087   4.300  -1.149  0.00  0.00    +0.005 A 
ENDBRANCH   1  11
BRANCH   1  17
ATOM     17  N   UNL     1      -2.407   1.031  -0.321  0.00  0.00    -0.282 NA
ATOM     18  C   UNL     1      -2.388   0.064   0.785  0.00  0.00    +0.106 C 
BRANCH  17  19
ATOM     19  C   UNL     1      -3.704   1.717  -0.398  0.00  0.00    +0.181 C 
BRANCH  19  20
ATOM     20  C   UNL     1      -4.776   0.725  -0.770  0.00  0.00    +0.231 C 
ATOM     21  O   UNL     1      -4.488  -0.439  -0.954  0.00  0.00    -0.274 OA
ATOM     22  N   UNL     1      -6.054   1.132  -0.900  0.00  0.00    -0.284 N 
ATOM     23  H   UNL     1      -6.329   2.169  -0.656  0.00  0.00    +0.155 HD
BRANCH  22  24
ATOM     24  C   UNL     1      -7.032   0.235  -1.345  0.00  0.00    +0.047 A 
ATOM     25  C   UNL     1      -6.662  -0.913  -2.034  0.00  0.00    +0.024 A 
ATOM     26  C   UNL     1      -7.629  -1.798  -2.468  0.00  0.00    +0.002 A 
ATOM     27  C   UNL     1      -8.966  -1.539  -2.225  0.00  0.00    +0.001 A 
ATOM     28  C   UNL     1      -9.339  -0.395  -1.543  0.00  0.00    +0.017 A 
ATOM     29  C   UNL     1      -8.376   0.493  -1.102  0.00  0.00    +0.039 A 
ATOM     30 BR   UNL     1      -8.886   2.057  -0.171  0.00  0.00    -0.048 Br
ENDBRANCH  22  24
ENDBRANCH  19  20
ENDBRANCH  17  19
ENDBRANCH   1  17
TORSDOF 6
