REMARK  Name = ZINC12747452
REMARK  4 active torsions:
REMARK  status: ('A' for Active; 'I' for Inactive)
REMARK    1  A    between atoms: C_9  and  C_18
REMARK    2  A    between atoms: C_18  and  N_19
REMARK    3  A    between atoms: C_20  and  C_22
REMARK    4  A    between atoms: C_22  and  N_23
REMARK                            x       y       z     vdW  Elec       q    Type
REMARK                         _______ _______ _______ _____ _____    ______ ____
ROOT
ATOM      1  C   UNL     1      -6.419   7.306   1.902  0.00  0.00    +0.108 C 
ENDROOT
BRANCH   1  10
ATOM      2  C   UNL     1     -10.601  11.112   4.796  0.00  0.00    +0.000 A 
ATOM      3  C   UNL     1     -11.310  10.143   4.111  0.00  0.00    +0.000 A 
ATOM      4  C   UNL     1     -10.673   9.327   3.184  0.00  0.00    +0.004 A 
ATOM      5  C   UNL     1      -9.337   9.502   2.963  0.00  0.00    -0.036 A 
ATOM      6  C   UNL     1      -8.622  10.479   3.653  0.00  0.00    -0.036 A 
ATOM      7  C   UNL     1      -9.242  11.284   4.565  0.00  0.00    +0.004 A 
ATOM      8  C   UNL     1      -7.145  10.547   3.296  0.00  0.00    +0.050 C 
ATOM      9  C   UNL     1      -6.590   9.136   3.582  0.00  0.00    +0.018 C 
ATOM     10  C   UNL     1      -7.373   8.065   2.827  0.00  0.00    +0.019 C 
ATOM     11  C   UNL     1      -8.506   8.689   1.983  0.00  0.00    +0.054 C 
ATOM     12  C   UNL     1      -7.825   9.717   1.093  0.00  0.00    -0.036 A 
ATOM     13  C   UNL     1      -7.110  10.693   1.783  0.00  0.00    -0.036 A 
ATOM     14  C   UNL     1      -6.448  11.680   1.110  0.00  0.00    +0.004 A 
ATOM     15  C   UNL     1      -6.499  11.694  -0.278  0.00  0.00    +0.000 A 
ATOM     16  C   UNL     1      -7.209  10.726  -0.963  0.00  0.00    +0.000 A 
ATOM     17  C   UNL     1      -7.880   9.725  -0.272  0.00  0.00    +0.004 A 
ENDBRANCH   1  10
BRANCH   1  18
ATOM     18  N   UNL     1      -5.422   6.595   2.706  0.00  0.00    -0.314 N 
ATOM     19  C   UNL     1      -4.473   5.854   2.101  0.00  0.00    +0.231 C 
ATOM     20  O   UNL     1      -4.444   5.776   0.891  0.00  0.00    -0.274 OA
ATOM     21  H   UNL     1      -5.446   6.657   3.674  0.00  0.00    +0.149 HD
BRANCH  19  22
ATOM     22  C   UNL     1      -3.447   5.122   2.928  0.00  0.00    +0.213 C 
BRANCH  22  23
ATOM     23  N   UNL     1      -2.534   4.396   2.042  0.00  0.00    -0.215 N 
ATOM     24  C   UNL     1      -2.731   3.125   1.624  0.00  0.00    +0.247 C 
ATOM     25  O   UNL     1      -3.659   2.394   1.896  0.00  0.00    -0.273 OA
ATOM     26  C   UNL     1      -1.550   2.815   0.748  0.00  0.00    +0.113 C 
ATOM     27  C   UNL     1      -0.763   1.598   1.258  0.00  0.00    +0.035 C 
ATOM     28  C   UNL     1      -0.013   1.086   0.008  0.00  0.00    +0.003 C 
ATOM     29  C   UNL     1      -0.784   1.609  -1.217  0.00  0.00    +0.003 C 
ATOM     30  C   UNL     1      -1.980   2.422  -0.673  0.00  0.00    +0.035 C 
ATOM     31  N   UNL     1      -0.742   4.030   0.758  0.00  0.00    -0.285 N 
ATOM     32  C   UNL     1      -1.399   4.907   1.546  0.00  0.00    +0.310 C 
ATOM     33  O   UNL     1      -1.006   6.033   1.780  0.00  0.00    -0.252 OA
ATOM     34  H   UNL     1       0.097   4.178   0.293  0.00  0.00    +0.151 HD
ENDBRANCH  22  23
ENDBRANCH  19  22
ENDBRANCH   1  18
TORSDOF 4
