REMARK  Name = ZINC13496847
REMARK  6 active torsions:
REMARK  status: ('A' for Active; 'I' for Inactive)
REMARK    1  A    between atoms: N_12  and  C_13
REMARK    2  A    between atoms: C_13  and  C_14
REMARK    3  A    between atoms: C_17  and  C_20
REMARK    4  A    between atoms: N_22  and  C_23
REMARK    5  A    between atoms: C_23  and  C_24
REMARK    6  A    between atoms: C_24  and  C_25
REMARK                            x       y       z     vdW  Elec       q    Type
REMARK                         _______ _______ _______ _____ _____    ______ ____
ROOT
ATOM      1  C   UNL     1      -1.132  -4.978  -0.014  0.00  0.00    +0.006 C 
ATOM      2  C   UNL     1      -1.856  -4.614  -1.312  0.00  0.00    +0.006 C 
ATOM      3  C   UNL     1      -3.259  -5.222  -1.301  0.00  0.00    +0.013 C 
ATOM      4  C   UNL     1      -3.155  -6.744  -1.185  0.00  0.00    +0.075 C 
ATOM      5  C   UNL     1      -2.431  -7.108   0.113  0.00  0.00    +0.013 C 
ATOM      6  C   UNL     1      -1.027  -6.500   0.102  0.00  0.00    +0.006 C 
ENDROOT
BRANCH   4   7
ATOM      7  C   UNL     1      -4.537  -7.344  -1.175  0.00  0.00    +0.216 C 
ATOM      8  O   UNL     1      -5.511  -6.624  -1.252  0.00  0.00    -0.276 OA
ATOM      9  N   UNL     1      -4.692  -8.679  -1.079  0.00  0.00    -0.315 N 
ATOM     10  H   UNL     1      -3.913  -9.254  -1.017  0.00  0.00    +0.149 HD
BRANCH   9  11
ATOM     11  C   UNL     1      -6.036  -9.262  -1.069  0.00  0.00    +0.108 C 
BRANCH  11  12
ATOM     12  C   UNL     1      -5.931 -10.784  -0.953  0.00  0.00    +0.049 C 
BRANCH  12  13
ATOM     13  C   UNL     1      -7.314 -11.383  -0.942  0.00  0.00    -0.072 C 
ATOM     14  C   UNL     1      -7.801 -11.805  -2.065  0.00  0.00    -0.028 C 
ATOM     15  C   UNL     1      -9.164 -12.414  -2.214  0.00  0.00    +0.027 C 
ATOM     16  C   UNL     1      -9.699 -12.849  -0.847  0.00  0.00    +0.004 C 
ATOM     17  C   UNL     1      -9.535 -11.680   0.132  0.00  0.00    +0.005 C 
ATOM     18  C   UNL     1      -8.038 -11.459   0.370  0.00  0.00    +0.030 C 
ENDBRANCH  12  13
ENDBRANCH  11  12
ENDBRANCH   9  11
ENDBRANCH   4   7
BRANCH   1  19
ATOM     19  C   UNL     1       0.272  -4.369  -0.025  0.00  0.00    +0.106 C 
BRANCH  19  31
ATOM     20  C   UNL     1      -0.017   1.374   0.010  0.00  0.00    +0.001 A 
ATOM     21  C   UNL     1       1.169   2.094   0.002  0.00  0.00    +0.002 A 
ATOM     22  C   UNL     1       2.387   1.445  -0.013  0.00  0.00    +0.026 A 
ATOM     23  C   UNL     1       2.427   0.058  -0.021  0.00  0.00    +0.052 A 
ATOM     24  C   UNL     1       1.225  -0.674  -0.013  0.00  0.00    +0.038 A 
ATOM     25  C   UNL     1       0.002  -0.004   0.002  0.00  0.00    +0.013 A 
ATOM     26  C   UNL     1       1.307  -2.141  -0.022  0.00  0.00    +0.131 A 
ATOM     27  N   UNL     1       2.504  -2.706  -0.037  0.00  0.00    -0.207 NA
ATOM     28  C   UNL     1       3.622  -1.982  -0.044  0.00  0.00    +0.179 A 
ATOM     29  N   UNL     1       3.622  -0.637  -0.036  0.00  0.00    -0.333 N 
ATOM     30  S   UNL     1       5.126  -2.800  -0.063  0.00  0.00    -0.011 S 
ATOM     31  N   UNL     1       0.170  -2.907  -0.015  0.00  0.00    -0.328 N 
ATOM     32  H   UNL     1       4.463  -0.153  -0.042  0.00  0.00    +0.168 HD
ATOM     33  H   UNL     1      -0.701  -2.482  -0.004  0.00  0.00    +0.147 HD
ENDBRANCH  19  31
ENDBRANCH   1  19
TORSDOF 6
