REMARK  Name = ZINC00704038
REMARK  6 active torsions:
REMARK  status: ('A' for Active; 'I' for Inactive)
REMARK    1  A    between atoms: C_1  and  C_2
REMARK    2  A    between atoms: C_10  and  S_21
REMARK    3  A    between atoms: C_11  and  N_12
REMARK    4  A    between atoms: N_13  and  C_14
REMARK    5  A    between atoms: C_14  and  C_15
REMARK    6  A    between atoms: S_21  and  C_24
REMARK                            x       y       z     vdW  Elec       q    Type
REMARK                         _______ _______ _______ _____ _____    ______ ____
ROOT
ATOM      1  C   UNL     1      -5.419  -3.517   0.028  0.00  0.00    +0.045 C 
ATOM      2  C   UNL     1      -3.973  -3.095  -0.022  0.00  0.00    -0.034 A 
ATOM      3  C   UNL     1      -2.960  -4.063   0.002  0.00  0.00    +0.008 A 
ATOM      4  C   UNL     1      -1.655  -3.673  -0.045  0.00  0.00    +0.047 A 
ATOM      5  C   UNL     1      -1.343  -2.303  -0.116  0.00  0.00    +0.143 A 
ATOM      6  N   UNL     1      -0.063  -1.932  -0.161  0.00  0.00    -0.211 NA
ATOM      7  C   UNL     1       0.285  -0.654  -0.229  0.00  0.00    +0.150 A 
ATOM      8  C   UNL     1      -0.716   0.338  -0.254  0.00  0.00    +0.084 A 
ATOM      9  C   UNL     1      -0.359   1.703  -0.327  0.00  0.00    +0.047 A 
ATOM     10  C   UNL     1       0.951   2.049  -0.372  0.00  0.00    +0.132 A 
ATOM     11  C   UNL     1       1.952   1.048  -0.348  0.00  0.00    +0.124 A 
ATOM     12  N   UNL     1       1.609  -0.285  -0.276  0.00  0.00    -0.308 N 
ATOM     13  C   UNL     1      -2.071  -0.061  -0.206  0.00  0.00    +0.268 A 
ATOM     14  O   UNL     1      -2.966   0.766  -0.225  0.00  0.00    -0.267 OA
ATOM     15  N   UNL     1      -2.354  -1.382  -0.138  0.00  0.00    -0.267 N 
ATOM     16  C   UNL     1      -3.656  -1.783  -0.091  0.00  0.00    +0.099 A 
ENDROOT
BRANCH  11  17
ATOM     17  N   UNL     1       3.219   1.393  -0.393  0.00  0.00    -0.343 N 
ATOM     18  H   UNL     1       4.000   0.619  -0.375  0.00  0.00    +0.144 HD
ATOM     19  H   UNL     1       3.498   2.455  -0.450  0.00  0.00    +0.144 HD
ENDBRANCH  11  17
BRANCH  10  20
ATOM     20  S   UNL     1       1.409   3.748  -0.463  0.00  0.00    +0.028 S 
ATOM     21  O   UNL     1       0.200   4.495  -0.464  0.00  0.00    -0.164 OA
ATOM     22  O   UNL     1       2.427   3.947   0.508  0.00  0.00    -0.164 OA
BRANCH  20  23
ATOM     23  C   UNL     1       2.159   4.002  -2.038  0.00  0.00    +0.094 A 
ATOM     24  C   UNL     1       3.536   3.988  -2.157  0.00  0.00    +0.029 A 
ATOM     25  C   UNL     1       4.125   4.181  -3.393  0.00  0.00    +0.022 A 
ATOM     26  C   UNL     1       3.335   4.400  -4.508  0.00  0.00    +0.041 A 
ATOM     27  C   UNL     1       1.957   4.420  -4.386  0.00  0.00    +0.022 A 
ATOM     28  C   UNL     1       1.370   4.221  -3.151  0.00  0.00    +0.029 A 
ATOM     29 CL   UNL     1       4.074   4.649  -6.059  0.00  0.00    -0.084 Cl
ENDBRANCH  20  23
ENDBRANCH  10  20
BRANCH  12  30
ATOM     30  C   UNL     1       2.655  -1.310  -0.250  0.00  0.00    +0.161 C 
BRANCH  30  31
ATOM     31  C   UNL     1       2.982  -1.729  -1.660  0.00  0.00    -0.010 A 
ATOM     32  C   UNL     1       3.971  -1.072  -2.376  0.00  0.00    +0.008 A 
ATOM     33  C   UNL     1       4.239  -1.492  -3.670  0.00  0.00    +0.020 A 
ATOM     34  C   UNL     1       3.516  -2.544  -4.199  0.00  0.00    +0.111 A 
ATOM     35  N   UNL     1       2.582  -3.146  -3.489  0.00  0.00    -0.263 NA
ATOM     36  C   UNL     1       2.305  -2.777  -2.253  0.00  0.00    +0.116 A 
ENDBRANCH  30  31
ENDBRANCH  12  30
TORSDOF 5
