REMARK  Name = ZINC44872107
REMARK  7 active torsions:
REMARK  status: ('A' for Active; 'I' for Inactive)
REMARK    1  A    between atoms: C_1  and  C_2
REMARK    2  A    between atoms: C_2  and  C_3
REMARK    3  A    between atoms: C_3  and  C_5
REMARK    4  A    between atoms: C_3  and  C_9
REMARK    5  A    between atoms: N_6  and  O_7
REMARK    6  A    between atoms: N_11  and  C_12
REMARK    7  A    between atoms: C_12  and  C_13
REMARK                            x       y       z     vdW  Elec       q    Type
REMARK                         _______ _______ _______ _____ _____    ______ ____
ROOT
ATOM      1  C   UNL     1       0.870  -2.011   1.172  0.00  0.00    +0.224 C 
ATOM      2  O   UNL     1       0.382  -2.702   2.041  0.00  0.00    -0.275 OA
ATOM      3  N   UNL     1       1.526  -2.584   0.144  0.00  0.00    -0.311 N 
ATOM      4  H   UNL     1       1.916  -2.031  -0.551  0.00  0.00    +0.149 HD
ENDROOT
BRANCH   1   5
ATOM      5  C   UNL     1       0.742  -0.511   1.242  0.00  0.00    +0.141 C 
BRANCH   5   6
ATOM      6  C   UNL     1      -0.030  -0.130   2.478  0.00  0.00    +0.144 C 
ATOM      7  N   UNL     1      -1.304   0.074   2.408  0.00  0.00    -0.076 NA
ATOM      8  N   UNL     1       0.623   0.002   3.684  0.00  0.00    -0.343 N 
ATOM      9  H   UNL     1       1.579  -0.150   3.737  0.00  0.00    +0.144 HD
ATOM     10  H   UNL     1       0.126   0.248   4.480  0.00  0.00    +0.144 HD
BRANCH   7  11
ATOM     11  O   UNL     1      -2.029   0.432   3.570  0.00  0.00    -0.408 OA
ATOM     12  H   UNL     1      -2.975   0.563   3.418  0.00  0.00    +0.328 HD
ENDBRANCH   7  11
ENDBRANCH   5   6
BRANCH   5  14
ATOM     13  C   UNL     1      -0.019   1.526   0.010  0.00  0.00    +0.005 C 
ATOM     14  C   UNL     1       0.002  -0.004   0.002  0.00  0.00    +0.017 C 
ENDBRANCH   5  14
ENDBRANCH   1   5
BRANCH   3  15
ATOM     15  C   UNL     1       1.651  -4.042   0.076  0.00  0.00    +0.140 C 
BRANCH  15  16
ATOM     16  C   UNL     1       2.422  -4.424  -1.161  0.00  0.00    -0.016 A 
ATOM     17  C   UNL     1       1.750  -4.852  -2.291  0.00  0.00    +0.006 A 
ATOM     18  C   UNL     1       2.458  -5.201  -3.425  0.00  0.00    +0.000 A 
ATOM     19  C   UNL     1       3.839  -5.123  -3.431  0.00  0.00    +0.001 A 
ATOM     20  C   UNL     1       4.511  -4.695  -2.302  0.00  0.00    +0.015 A 
ATOM     21  C   UNL     1       3.803  -4.340  -1.168  0.00  0.00    +0.023 A 
ATOM     22 BR   UNL     1       4.722  -3.748   0.375  0.00  0.00    -0.050 Br
ENDBRANCH  15  16
ENDBRANCH   3  15
TORSDOF 6
