REMARK  Name = ZINC19849286
REMARK  8 active torsions:
REMARK  status: ('A' for Active; 'I' for Inactive)
REMARK    1  A    between atoms: C_4  and  N_7
REMARK    2  A    between atoms: C_8  and  C_26
REMARK    3  A    between atoms: C_11  and  S_12
REMARK    4  A    between atoms: S_12  and  C_13
REMARK    5  A    between atoms: C_13  and  C_14
REMARK    6  A    between atoms: N_16  and  N_17
REMARK    7  A    between atoms: C_18  and  C_19
REMARK    8  A    between atoms: C_20  and  C_21
REMARK                            x       y       z     vdW  Elec       q    Type
REMARK                         _______ _______ _______ _____ _____    ______ ____
ROOT
ATOM      1  N   UNL     1      -2.239   1.853  -0.014  0.00  0.00    -0.270 N 
ATOM      2  C   UNL     1      -1.023   1.207   0.041  0.00  0.00    +0.169 A 
ATOM      3  N   UNL     1      -1.273  -0.064   0.256  0.00  0.00    -0.128 NA
ATOM      4  N   UNL     1      -2.541  -0.257   0.333  0.00  0.00    -0.122 NA
ATOM      5  C   UNL     1      -3.182   0.880   0.172  0.00  0.00    +0.197 A 
ENDROOT
BRANCH   2   6
ATOM      6  C   UNL     1       0.310   1.828  -0.108  0.00  0.00    +0.020 A 
ATOM      7  C   UNL     1       0.434   3.088  -0.694  0.00  0.00    +0.012 A 
ATOM      8  C   UNL     1       1.681   3.665  -0.825  0.00  0.00    +0.016 A 
ATOM      9  C   UNL     1       2.807   2.994  -0.380  0.00  0.00    +0.018 A 
ATOM     10  C   UNL     1       2.691   1.741   0.198  0.00  0.00    +0.016 A 
ATOM     11  C   UNL     1       1.450   1.154   0.334  0.00  0.00    +0.012 A 
ATOM     12 BR   UNL     1       4.512   3.792  -0.562  0.00  0.00    -0.050 Br
ENDBRANCH   2   6
BRANCH   1  16
ATOM     13  C   UNL     1      -2.905   5.922  -0.628  0.00  0.00    +0.000 A 
ATOM     14  C   UNL     1      -3.289   5.007  -1.591  0.00  0.00    +0.002 A 
ATOM     15  C   UNL     1      -3.069   3.658  -1.391  0.00  0.00    +0.026 A 
ATOM     16  C   UNL     1      -2.462   3.222  -0.221  0.00  0.00    +0.051 A 
ATOM     17  C   UNL     1      -2.083   4.142   0.747  0.00  0.00    +0.026 A 
ATOM     18  C   UNL     1      -2.300   5.490   0.538  0.00  0.00    +0.002 A 
ENDBRANCH   1  16
BRANCH   5  19
ATOM     19  S   UNL     1      -4.929   1.108   0.198  0.00  0.00    -0.076 S 
BRANCH  19  20
ATOM     20  C   UNL     1      -5.463  -0.596   0.494  0.00  0.00    +0.174 C 
BRANCH  20  21
ATOM     21  C   UNL     1      -6.968  -0.647   0.556  0.00  0.00    +0.242 C 
ATOM     22  O   UNL     1      -7.616   0.369   0.415  0.00  0.00    -0.273 OA
ATOM     23  N   UNL     1      -7.595  -1.821   0.769  0.00  0.00    -0.206 N 
ATOM     24  H   UNL     1      -7.008  -2.742   0.897  0.00  0.00    +0.177 HD
BRANCH  23  25
ATOM     25  N   UNL     1      -8.994  -1.868   0.827  0.00  0.00    -0.188 NA
ATOM     26  C   UNL     1      -9.600  -3.003   1.033  0.00  0.00    +0.130 C 
BRANCH  26  27
ATOM     27  C   UNL     1      -8.845  -4.189   1.198  0.00  0.00    +0.025 C 
ATOM     28  C   UNL     1      -9.474  -5.383   1.304  0.00  0.00    +0.048 C 
BRANCH  28  29
ATOM     29  C   UNL     1     -10.933  -5.436   1.378  0.00  0.00    +0.128 A 
ATOM     30  C   UNL     1     -11.686  -6.556   1.602  0.00  0.00    +0.049 A 
ATOM     31  C   UNL     1     -13.031  -6.146   1.596  0.00  0.00    +0.042 A 
ATOM     32  C   UNL     1     -13.040  -4.817   1.363  0.00  0.00    +0.195 A 
ATOM     33  O   UNL     1     -11.773  -4.392   1.232  0.00  0.00    -0.464 OA
ENDBRANCH  28  29
ENDBRANCH  26  27
ENDBRANCH  23  25
ENDBRANCH  20  21
ENDBRANCH  19  20
ENDBRANCH   5  19
TORSDOF 8
