REMARK  Name = ZINC49896372
REMARK  8 active torsions:
REMARK  status: ('A' for Active; 'I' for Inactive)
REMARK    1  A    between atoms: C_1  and  C_2
REMARK    2  A    between atoms: C_3  and  C_19
REMARK    3  A    between atoms: C_5  and  C_7
REMARK    4  A    between atoms: C_7  and  C_9
REMARK    5  A    between atoms: C_7  and  N_12
REMARK    6  A    between atoms: C_9  and  C_10
REMARK    7  A    between atoms: C_9  and  C_11
REMARK    8  A    between atoms: C_19  and  C_21
REMARK                            x       y       z     vdW  Elec       q    Type
REMARK                         _______ _______ _______ _____ _____    ______ ____
ROOT
ATOM      1  C   UNL     1       0.075  -2.952   2.297  0.00  0.00    -0.009 C 
ENDROOT
BRANCH   1   2
ATOM      2  N   UNL     1      -0.967  -2.377   3.158  0.00  0.00    +0.386 N 
ATOM      3  C   UNL     1      -0.888  -3.013   4.487  0.00  0.00    -0.078 C 
ATOM      4  C   UNL     1      -1.483  -2.068   5.501  0.00  0.00    -0.019 C 
ATOM      5  C   UNL     1      -2.960  -2.401   5.782  0.00  0.00    -0.002 C 
ATOM      6  C   UNL     1      -3.719  -2.773   4.493  0.00  0.00    -0.002 C 
ATOM      7  C   UNL     1      -3.349  -1.885   3.332  0.00  0.00    -0.019 C 
ATOM      8  C   UNL     1      -2.205  -2.548   2.536  0.00  0.00    -0.078 C 
ATOM      9  H   UNL     1      -0.791  -1.389   3.262  0.00  0.00    -0.081 HD
ENDBRANCH   1   2
BRANCH   1  14
ATOM     10  C   UNL     1      -0.445   0.742  -1.035  0.00  0.00    +0.067 C 
ATOM     11  C   UNL     1      -0.258  -0.705  -0.656  0.00  0.00    +0.056 A 
ATOM     12  C   UNL     1      -0.150  -1.708  -1.616  0.00  0.00    +0.077 A 
ATOM     13  S   UNL     1       0.047  -3.140  -0.567  0.00  0.00    -0.071 S 
ATOM     14  C   UNL     1      -0.024  -2.352   0.919  0.00  0.00    +0.066 A 
ATOM     15  N   UNL     1      -0.181  -1.089   0.592  0.00  0.00    -0.250 NA
BRANCH  12  16
ATOM     16  C   UNL     1      -0.188  -1.619  -3.026  0.00  0.00    +0.168 C 
ATOM     17  O   UNL     1      -0.332  -0.539  -3.563  0.00  0.00    -0.292 OA
ATOM     18  C   UNL     1      -0.048  -2.864  -3.864  0.00  0.00    +0.092 C 
ENDBRANCH  12  16
ENDBRANCH   1  14
BRANCH   1  19
ATOM     19  C   UNL     1       1.452  -2.644   2.890  0.00  0.00    -0.025 C 
ATOM     20  C   UNL     1       2.539  -3.196   1.965  0.00  0.00    +0.006 C 
ATOM     21  C   UNL     1       1.621  -1.130   3.029  0.00  0.00    +0.006 C 
ENDBRANCH   1  19
TORSDOF 4
