REMARK  Name = ZINC07185617
REMARK  6 active torsions:
REMARK  status: ('A' for Active; 'I' for Inactive)
REMARK    1  A    between atoms: C_1  and  C_2
REMARK    2  A    between atoms: C_7  and  C_8
REMARK    3  A    between atoms: C_8  and  C_9
REMARK    4  A    between atoms: C_9  and  N_10
REMARK    5  A    between atoms: C_11  and  C_13
REMARK    6  A    between atoms: C_13  and  N_14
REMARK                            x       y       z     vdW  Elec       q    Type
REMARK                         _______ _______ _______ _____ _____    ______ ____
ROOT
ATOM      1  N   UNL     1      -3.949   2.594   6.404  0.00  0.00    -0.215 N 
ATOM      2  C   UNL     1      -4.584   3.727   6.044  0.00  0.00    +0.251 C 
ATOM      3  O   UNL     1      -4.141   4.634   5.372  0.00  0.00    -0.272 OA
ATOM      4  C   UNL     1      -5.964   3.630   6.655  0.00  0.00    +0.138 C 
ATOM      5  C   UNL     1      -6.185   4.767   7.644  0.00  0.00    +0.040 C 
ATOM      6  C   UNL     1      -7.652   4.744   8.092  0.00  0.00    +0.008 C 
ATOM      7  C   UNL     1      -8.525   5.152   6.907  0.00  0.00    +0.035 C 
ATOM      8  C   UNL     1      -8.191   4.328   5.691  0.00  0.00    -0.042 A 
ATOM      9  C   UNL     1      -7.009   3.629   5.574  0.00  0.00    -0.012 A 
ATOM     10  C   UNL     1      -6.758   2.892   4.425  0.00  0.00    +0.006 A 
ATOM     11  C   UNL     1      -7.683   2.852   3.401  0.00  0.00    +0.000 A 
ATOM     12  C   UNL     1      -8.870   3.550   3.521  0.00  0.00    +0.000 A 
ATOM     13  C   UNL     1      -9.121   4.284   4.661  0.00  0.00    +0.004 A 
ATOM     14  N   UNL     1      -5.952   2.337   7.353  0.00  0.00    -0.281 N 
ATOM     15  C   UNL     1      -4.734   1.802   7.145  0.00  0.00    +0.310 C 
ATOM     16  O   UNL     1      -4.386   0.724   7.584  0.00  0.00    -0.252 OA
ATOM     17  H   UNL     1      -6.680   1.944   7.860  0.00  0.00    +0.152 HD
ENDROOT
BRANCH   1  18
ATOM     18  C   UNL     1      -2.571   2.266   6.027  0.00  0.00    +0.213 C 
BRANCH  18  20
ATOM     19  N   UNL     1      -1.411   1.113   4.171  0.00  0.00    -0.314 N 
ATOM     20  C   UNL     1      -2.574   1.519   4.718  0.00  0.00    +0.231 C 
ATOM     21  O   UNL     1      -3.623   1.284   4.155  0.00  0.00    -0.274 OA
ATOM     22  H   UNL     1      -0.572   1.301   4.621  0.00  0.00    +0.149 HD
BRANCH  19  23
ATOM     23  C   UNL     1      -1.413   0.387   2.899  0.00  0.00    +0.109 C 
BRANCH  23  24
ATOM     24  C   UNL     1       0.025   0.045   2.504  0.00  0.00    +0.054 C 
BRANCH  24  31
ATOM     25  C   UNL     1      -0.018   1.503   0.010  0.00  0.00    +0.044 C 
ATOM     26  C   UNL     1       0.002  -0.004   0.002  0.00  0.00    -0.047 A 
ATOM     27  C   UNL     1       0.006  -0.689  -1.199  0.00  0.00    +0.003 A 
ATOM     28  C   UNL     1       0.025  -2.071  -1.207  0.00  0.00    +0.000 A 
ATOM     29  C   UNL     1       0.040  -2.768  -0.013  0.00  0.00    +0.000 A 
ATOM     30  C   UNL     1       0.037  -2.084   1.188  0.00  0.00    +0.004 A 
ATOM     31  C   UNL     1       0.023  -0.702   1.195  0.00  0.00    -0.043 A 
ENDBRANCH  24  31
ENDBRANCH  23  24
ENDBRANCH  19  23
ENDBRANCH  18  20
ENDBRANCH   1  18
TORSDOF 5
