REMARK  Name = ZINC07577157
REMARK  7 active torsions:
REMARK  status: ('A' for Active; 'I' for Inactive)
REMARK    1  A    between atoms: C_1  and  C_2
REMARK    2  A    between atoms: C_2  and  C_3
REMARK    3  A    between atoms: C_2  and  N_4
REMARK    4  A    between atoms: C_8  and  C_10
REMARK    5  A    between atoms: C_10  and  S_11
REMARK    6  A    between atoms: S_11  and  C_12
REMARK    7  A    between atoms: N_17  and  C_18
REMARK                            x       y       z     vdW  Elec       q    Type
REMARK                         _______ _______ _______ _____ _____    ______ ____
ROOT
ATOM      1  C   UNL     1      -1.756  -0.448  -0.571  0.00  0.00    +0.160 A 
ATOM      2  N   UNL     1      -2.804   0.323  -0.348  0.00  0.00    -0.133 NA
ATOM      3  N   UNL     1      -4.039  -0.244  -0.140  0.00  0.00    -0.125 NA
ATOM      4  C   UNL     1      -4.169  -1.557  -0.151  0.00  0.00    +0.187 A 
ATOM      5  S   UNL     1      -2.491  -2.074  -0.478  0.00  0.00    -0.024 S 
ATOM      6  N   UNL     1      -5.309  -2.331   0.040  0.00  0.00    -0.292 N 
ATOM      7  H   UNL     1      -5.236  -3.297   0.090  0.00  0.00    +0.154 HD
ENDROOT
BRANCH   6   8
ATOM      8  C   UNL     1      -6.558  -1.717   0.161  0.00  0.00    +0.036 A 
ATOM      9  C   UNL     1      -6.783  -0.476  -0.422  0.00  0.00    +0.023 A 
ATOM     10  C   UNL     1      -8.019   0.129  -0.302  0.00  0.00    +0.005 A 
ATOM     11  C   UNL     1      -9.033  -0.499   0.398  0.00  0.00    +0.038 A 
ATOM     12  C   UNL     1      -8.813  -1.736   0.980  0.00  0.00    +0.125 A 
ATOM     13  C   UNL     1      -7.579  -2.349   0.859  0.00  0.00    +0.061 A 
ATOM     14  F   UNL     1      -9.806  -2.347   1.663  0.00  0.00    -0.205 F 
ENDBRANCH   6   8
BRANCH   1  15
ATOM     15  S   UNL     1      -0.080   0.004  -0.871  0.00  0.00    -0.088 S 
BRANCH  15  16
ATOM     16  C   UNL     1      -0.098   1.817  -0.818  0.00  0.00    +0.172 C 
BRANCH  16  21
ATOM     17  N   UNL     1       2.995   5.465  -1.296  0.00  0.00    -0.297 N 
ATOM     18  C   UNL     1       2.767   4.137  -1.289  0.00  0.00    +0.306 C 
ATOM     19  O   UNL     1       3.683   3.362  -1.481  0.00  0.00    -0.252 OA
ATOM     20  N   UNL     1       1.522   3.669  -1.070  0.00  0.00    -0.240 N 
ATOM     21  C   UNL     1       1.293   2.341  -1.063  0.00  0.00    +0.231 C 
ATOM     22  O   UNL     1       2.207   1.567  -1.255  0.00  0.00    -0.274 OA
ATOM     23  H   UNL     1       2.264   6.084  -1.142  0.00  0.00    +0.151 HD
ATOM     24  H   UNL     1       0.791   4.288  -0.917  0.00  0.00    +0.159 HD
BRANCH  17  26
ATOM     25  C   UNL     1       4.598   6.073  -3.040  0.00  0.00    +0.027 C 
ATOM     26  C   UNL     1       4.348   5.975  -1.534  0.00  0.00    +0.068 C 
ATOM     27  C   UNL     1       4.490   7.361  -0.902  0.00  0.00    +0.027 C 
ENDBRANCH  17  26
ENDBRANCH  16  21
ENDBRANCH  15  16
ENDBRANCH   1  15
TORSDOF 5
