REMARK  Name = ZINC03389495
REMARK  15 active torsions:
REMARK  status: ('A' for Active; 'I' for Inactive)
REMARK    1  A    between atoms: C_1  and  C_2
REMARK    2  A    between atoms: C_2  and  C_3
REMARK    3  A    between atoms: C_2  and  C_4
REMARK    4  A    between atoms: C_4  and  N_5
REMARK    5  A    between atoms: C_6  and  N_32
REMARK    6  A    between atoms: C_7  and  N_14
REMARK    7  A    between atoms: N_14  and  C_15
REMARK    8  A    between atoms: C_15  and  C_16
REMARK    9  A    between atoms: C_16  and  C_17
REMARK   10  A    between atoms: C_16  and  C_18
REMARK   11  A    between atoms: C_19  and  C_21
REMARK   12  A    between atoms: C_21  and  N_63
REMARK   13  A    between atoms: C_22  and  N_63
REMARK   14  A    between atoms: C_23  and  C_24
REMARK   15  A    between atoms: C_23  and  N_63
REMARK                            x       y       z     vdW  Elec       q    Type
REMARK                         _______ _______ _______ _____ _____    ______ ____
ROOT
ATOM      1  N   UNL     1      -3.215  -1.222  -1.839  0.00  0.00    -0.266 N 
ATOM      2  C   UNL     1      -1.886  -1.041  -1.684  0.00  0.00    +0.203 C 
ATOM      3  O   UNL     1      -1.205  -0.711  -2.632  0.00  0.00    -0.277 OA
ENDROOT
BRANCH   1   6
ATOM      4  N   UNL     1      -4.380   0.586  -4.818  0.00  0.00    -0.280 N 
ATOM      5  C   UNL     1      -3.775   0.338  -3.608  0.00  0.00    +0.127 A 
ATOM      6  C   UNL     1      -3.826  -0.935  -3.078  0.00  0.00    +0.140 A 
ATOM      7  C   UNL     1      -4.493  -1.945  -3.797  0.00  0.00    +0.277 A 
ATOM      8  O   UNL     1      -4.549  -3.079  -3.354  0.00  0.00    -0.266 OA
ATOM      9  N   UNL     1      -5.075  -1.647  -4.975  0.00  0.00    -0.273 N 
ATOM     10  H   UNL     1      -5.556  -2.362  -5.483  0.00  0.00    +0.173 HD
ATOM     11  C   UNL     1      -5.015  -0.401  -5.477  0.00  0.00    +0.331 A 
ATOM     12  O   UNL     1      -5.544  -0.161  -6.545  0.00  0.00    -0.246 OA
BRANCH   5  13
ATOM     13  N   UNL     1      -3.127   1.346  -2.935  0.00  0.00    -0.343 N 
ATOM     14  H   UNL     1      -2.747   1.177  -2.058  0.00  0.00    +0.144 HD
ATOM     15  H   UNL     1      -3.051   2.225  -3.336  0.00  0.00    +0.144 HD
ENDBRANCH   5  13
BRANCH   4  16
ATOM     16  C   UNL     1      -4.334   1.932  -5.393  0.00  0.00    +0.131 C 
BRANCH  16  18
ATOM     17  C   UNL     1      -3.210   1.121  -7.471  0.00  0.00    +0.009 C 
ATOM     18  C   UNL     1      -3.091   2.068  -6.275  0.00  0.00    +0.003 C 
ATOM     19  C   UNL     1      -2.975   3.509  -6.775  0.00  0.00    +0.009 C 
ENDBRANCH  16  18
ENDBRANCH   4  16
ENDBRANCH   1   6
BRANCH   1  20
ATOM     20  C   UNL     1      -4.022  -1.715  -0.720  0.00  0.00    +0.117 C 
BRANCH  20  21
ATOM     21  C   UNL     1      -4.459  -0.536   0.152  0.00  0.00    +0.001 C 
ATOM     22  C   UNL     1      -5.398   0.369  -0.647  0.00  0.00    +0.009 C 
ATOM     23  C   UNL     1      -5.188  -1.061   1.391  0.00  0.00    +0.009 C 
ENDBRANCH  20  21
ENDBRANCH   1  20
BRANCH   2  24
ATOM     24  C   UNL     1      -1.250  -1.250  -0.334  0.00  0.00    +0.019 C 
BRANCH  24  26
ATOM     25  C   UNL     1       0.458   0.421  -0.725  0.00  0.00    -0.095 C 
ATOM     26  N   UNL     1       0.204  -1.009  -0.450  0.00  0.00    +0.386 N 
ATOM     27  H   UNL     1       0.574  -1.569  -1.227  0.00  0.00    -0.081 HD
BRANCH  26  28
ATOM     28  C   UNL     1       0.884  -1.412   0.799  0.00  0.00    -0.038 C 
BRANCH  28  29
ATOM     29  C   UNL     1       2.374  -1.365   0.578  0.00  0.00    -0.010 A 
ATOM     30  C   UNL     1       3.079  -0.205   0.853  0.00  0.00    +0.126 A 
ATOM     31  C   UNL     1       4.448  -0.163   0.649  0.00  0.00    +0.038 A 
ATOM     32  C   UNL     1       5.110  -1.279   0.171  0.00  0.00    +0.004 A 
ATOM     33  C   UNL     1       4.406  -2.436  -0.103  0.00  0.00    +0.020 A 
ATOM     34  C   UNL     1       3.039  -2.481   0.105  0.00  0.00    +0.045 A 
ATOM     35 CL   UNL     1       2.157  -3.938  -0.234  0.00  0.00    -0.083 Cl
ATOM     36  F   UNL     1       2.431   0.885   1.320  0.00  0.00    -0.205 F 
ENDBRANCH  28  29
ENDBRANCH  26  28
ENDBRANCH  24  26
ENDBRANCH   2  24
TORSDOF 10
