REMARK  Name = ZINC49946943
REMARK  10 active torsions:
REMARK  status: ('A' for Active; 'I' for Inactive)
REMARK    1  A    between atoms: C_1  and  C_2
REMARK    2  A    between atoms: C_5  and  C_31
REMARK    3  A    between atoms: C_6  and  C_8
REMARK    4  A    between atoms: C_10  and  C_27
REMARK    5  A    between atoms: C_11  and  C_16
REMARK    6  A    between atoms: C_16  and  N_17
REMARK    7  A    between atoms: C_19  and  C_26
REMARK    8  A    between atoms: C_22  and  C_25
REMARK    9  A    between atoms: C_27  and  O_29
REMARK   10  A    between atoms: O_29  and  C_30
REMARK                            x       y       z     vdW  Elec       q    Type
REMARK                         _______ _______ _______ _____ _____    ______ ____
ROOT
ATOM      1  C   UNL     1      -0.070  -2.825   2.556  0.00  0.00    +0.144 C 
ATOM      2  C   UNL     1       1.369  -3.255   2.757  0.00  0.00    +0.079 C 
ATOM      3  C   UNL     1       2.029  -2.759   3.825  0.00  0.00    +0.038 C 
ATOM      4  N   UNL     1       1.420  -1.899   4.694  0.00  0.00    -0.271 N 
ATOM      5  C   UNL     1       0.153  -1.487   4.564  0.00  0.00    +0.304 C 
ATOM      6  O   UNL     1      -0.302  -0.719   5.389  0.00  0.00    -0.252 OA
ATOM      7  N   UNL     1      -0.633  -1.894   3.549  0.00  0.00    -0.288 N 
ATOM      8  H   UNL     1       1.935  -1.569   5.447  0.00  0.00    +0.156 HD
ATOM      9  H   UNL     1      -1.548  -1.582   3.474  0.00  0.00    +0.151 HD
ENDROOT
BRANCH   1  15
ATOM     10  C   UNL     1       2.047  -0.341  -1.238  0.00  0.00    +0.044 C 
ATOM     11  C   UNL     1       0.836  -0.987  -0.615  0.00  0.00    -0.050 A 
ATOM     12  C   UNL     1      -0.371  -0.985  -1.288  0.00  0.00    +0.003 A 
ATOM     13  C   UNL     1      -1.482  -1.578  -0.716  0.00  0.00    +0.004 A 
ATOM     14  C   UNL     1      -1.384  -2.173   0.528  0.00  0.00    -0.045 A 
ATOM     15  C   UNL     1      -0.177  -2.176   1.200  0.00  0.00    -0.019 A 
ATOM     16  C   UNL     1       0.935  -1.587   0.626  0.00  0.00    +0.009 A 
ATOM     17  C   UNL     1      -2.595  -2.818   1.151  0.00  0.00    +0.044 C 
ENDBRANCH   1  15
BRANCH   2  18
ATOM     18  C   UNL     1       1.998  -4.146   1.856  0.00  0.00    +0.339 C 
ATOM     19  O   UNL     1       1.689  -5.322   1.849  0.00  0.00    -0.245 OA
BRANCH  18  20
ATOM     20  O   UNL     1       2.941  -3.690   1.005  0.00  0.00    -0.465 OA
ATOM     21  C   UNL     1       3.454  -4.619   0.049  0.00  0.00    +0.280 C 
ENDBRANCH  18  20
ENDBRANCH   2  18
BRANCH   3  22
ATOM     22  C   UNL     1       3.462  -3.161   4.062  0.00  0.00    +0.135 C 
BRANCH  22  23
ATOM     23  N   UNL     1       4.323  -1.973   3.988  0.00  0.00    -0.296 NA
ATOM     24  C   UNL     1       4.332  -1.413   2.631  0.00  0.00    +0.088 C 
ATOM     25  C   UNL     1       5.118  -0.100   2.624  0.00  0.00    +0.000 C 
ATOM     26  C   UNL     1       6.550  -0.366   3.096  0.00  0.00    +0.009 C 
ATOM     27  C   UNL     1       6.511  -0.993   4.492  0.00  0.00    +0.000 C 
ATOM     28  C   UNL     1       5.684  -2.280   4.445  0.00  0.00    +0.088 C 
ATOM     29  C   UNL     1       7.935  -1.316   4.948  0.00  0.00    +0.009 C 
ATOM     30  C   UNL     1       4.446   0.902   3.565  0.00  0.00    +0.009 C 
ENDBRANCH  22  23
ENDBRANCH   3  22
TORSDOF 5
