REMARK  Name = ZINC18162214
REMARK  4 active torsions:
REMARK  status: ('A' for Active; 'I' for Inactive)
REMARK    1  A    between atoms: C_1  and  C_2
REMARK    2  A    between atoms: C_5  and  C_7
REMARK    3  A    between atoms: C_5  and  O_11
REMARK    4  A    between atoms: C_12  and  C_14
REMARK                            x       y       z     vdW  Elec       q    Type
REMARK                         _______ _______ _______ _____ _____    ______ ____
ROOT
ATOM      1  C   UNL     1      -3.047   3.557  -1.295  0.00  0.00    +0.062 C 
ATOM      2  C   UNL     1      -1.960   2.829  -0.547  0.00  0.00    +0.039 C 
ATOM      3  N   UNL     1      -1.862   2.762   0.717  0.00  0.00    -0.183 NA
ATOM      4  N   UNL     1      -0.765   2.029   1.176  0.00  0.00    -0.147 N 
ATOM      5  C   UNL     1      -0.019   1.526   0.010  0.00  0.00    +0.257 C 
ATOM      6  C   UNL     1      -0.823   2.066  -1.189  0.00  0.00    +0.118 C 
ATOM      7  C   UNL     1      -0.442   1.815   2.467  0.00  0.00    +0.290 C 
ATOM      8  O   UNL     1       0.541   1.157   2.747  0.00  0.00    -0.266 OA
ENDROOT
BRANCH   7   9
ATOM      9  C   UNL     1      -1.282   2.381   3.541  0.00  0.00    +0.162 A 
ATOM     10  C   UNL     1      -1.074   2.244   4.934  0.00  0.00    +0.063 A 
ATOM     11  C   UNL     1      -2.087   2.926   5.520  0.00  0.00    +0.120 A 
ATOM     12  N   UNL     1      -2.850   3.437   4.530  0.00  0.00    -0.283 N 
ATOM     13  H   UNL     1      -3.674   3.986   4.670  0.00  0.00    +0.188 HD
ATOM     14  N   UNL     1      -2.367   3.115   3.385  0.00  0.00    -0.168 NA
ATOM     15  I   UNL     1       0.476   1.207   5.889  0.00  0.00    -0.040 I 
ENDBRANCH   7   9
BRANCH   5  16
ATOM     16  C   UNL     1       0.002  -0.004   0.002  0.00  0.00    +0.438 C 
ATOM     17  F   UNL     1       0.693  -0.467   1.127  0.00  0.00    -0.166 F 
ATOM     18  F   UNL     1      -1.310  -0.488   0.028  0.00  0.00    -0.166 F 
ATOM     19  F   UNL     1       0.643  -0.455  -1.157  0.00  0.00    -0.166 F 
ENDBRANCH   5  16
BRANCH   5  20
ATOM     20  O   UNL     1       1.312   2.046   0.001  0.00  0.00    -0.363 OA
ATOM     21  H   UNL     1       1.850   1.766   0.753  0.00  0.00    +0.212 HD
ENDBRANCH   5  20
TORSDOF 3
