REMARK  Name = ZINC47397166
REMARK  4 active torsions:
REMARK  status: ('A' for Active; 'I' for Inactive)
REMARK    1  A    between atoms: C_1  and  S_2
REMARK    2  A    between atoms: S_2  and  C_5
REMARK    3  A    between atoms: C_10  and  N_11
REMARK    4  A    between atoms: C_18  and  C_20
REMARK                            x       y       z     vdW  Elec       q    Type
REMARK                         _______ _______ _______ _____ _____    ______ ____
ROOT
ATOM      1  N   UNL     1      -1.052   0.917  -2.494  0.00  0.00    -0.268 N 
ATOM      2  C   UNL     1      -1.474   1.173  -3.748  0.00  0.00    +0.307 C 
ATOM      3  O   UNL     1      -0.793   0.841  -4.698  0.00  0.00    -0.252 OA
ATOM      4  N   UNL     1      -2.652   1.798  -3.948  0.00  0.00    -0.282 N 
ATOM      5  C   UNL     1      -3.522   2.349  -2.893  0.00  0.00    +0.110 C 
ATOM      6  C   UNL     1      -4.938   2.375  -3.522  0.00  0.00    +0.021 C 
ATOM      7  C   UNL     1      -4.620   2.761  -4.990  0.00  0.00    +0.024 C 
ATOM      8  C   UNL     1      -3.277   2.049  -5.255  0.00  0.00    +0.081 C 
ATOM      9  H   UNL     1      -1.621   1.130  -1.737  0.00  0.00    +0.156 HD
ENDROOT
BRANCH   1  15
ATOM     10  C   UNL     1       0.904   0.609  -1.111  0.00  0.00    +0.109 A 
ATOM     11  C   UNL     1       2.144   0.037  -0.903  0.00  0.00    +0.029 A 
ATOM     12  C   UNL     1       2.694  -0.793  -1.863  0.00  0.00    +0.002 A 
ATOM     13  C   UNL     1       2.005  -1.054  -3.033  0.00  0.00    +0.002 A 
ATOM     14  C   UNL     1       0.764  -0.486  -3.247  0.00  0.00    +0.025 A 
ATOM     15  C   UNL     1       0.207   0.344  -2.283  0.00  0.00    +0.060 A 
BRANCH  10  17
ATOM     16  C   UNL     1       0.107   3.295  -0.682  0.00  0.00    +0.200 C 
ATOM     17  S   UNL     1       0.205   1.667   0.112  0.00  0.00    -0.004 S 
ATOM     18  O   UNL     1       1.162   1.691   1.161  0.00  0.00    -0.170 OA
ATOM     19  O   UNL     1      -1.101   1.151   0.334  0.00  0.00    -0.170 OA
ENDBRANCH  10  17
ENDBRANCH   1  15
BRANCH   8  20
ATOM     20  C   UNL     1      -2.370   2.941  -6.104  0.00  0.00    +0.010 C 
ATOM     21  C   UNL     1      -2.094   4.247  -5.355  0.00  0.00    +0.005 C 
ATOM     22  C   UNL     1      -1.186   5.139  -6.204  0.00  0.00    +0.000 C 
ATOM     23  C   UNL     1      -1.876   5.450  -7.533  0.00  0.00    +0.000 C 
ATOM     24  C   UNL     1      -2.152   4.145  -8.282  0.00  0.00    +0.000 C 
ATOM     25  C   UNL     1      -3.060   3.252  -7.433  0.00  0.00    +0.005 C 
ENDBRANCH   8  20
TORSDOF 3
