REMARK  Name = ZINC13399958
REMARK  8 active torsions:
REMARK  status: ('A' for Active; 'I' for Inactive)
REMARK    1  A    between atoms: C_1  and  C_2
REMARK    2  A    between atoms: C_2  and  C_4
REMARK    3  A    between atoms: C_2  and  O_30
REMARK    4  A    between atoms: C_4  and  O_29
REMARK    5  A    between atoms: C_9  and  C_28
REMARK    6  A    between atoms: C_18  and  C_27
REMARK    7  A    between atoms: C_19  and  C_26
REMARK    8  A    between atoms: C_22  and  O_25
REMARK                            x       y       z     vdW  Elec       q    Type
REMARK                         _______ _______ _______ _____ _____    ______ ____
ROOT
ATOM      1  C   UNL     1       3.161   6.937   0.665  0.00  0.00    +0.097 C 
ATOM      2  C   UNL     1       2.681   6.913   2.129  0.00  0.00    +0.038 C 
ATOM      3  C   UNL     1       1.150   6.742   2.086  0.00  0.00    +0.007 C 
ATOM      4  C   UNL     1       0.865   6.035   0.734  0.00  0.00    +0.001 C 
ATOM      5  C   UNL     1       1.949   6.576  -0.199  0.00  0.00    +0.002 C 
ATOM      6  C   UNL     1       2.290   5.680  -1.366  0.00  0.00    +0.010 C 
ATOM      7  C   UNL     1       2.440   4.211  -0.957  0.00  0.00    +0.005 C 
ATOM      8  C   UNL     1       1.124   3.762  -0.340  0.00  0.00    -0.001 C 
ATOM      9  C   UNL     1       0.899   4.534   0.959  0.00  0.00    -0.004 C 
ATOM     10  C   UNL     1       1.950   4.114   1.982  0.00  0.00    +0.004 C 
ATOM     11  C   UNL     1       1.762   2.627   2.293  0.00  0.00    +0.007 C 
ATOM     12  C   UNL     1       1.915   1.774   1.036  0.00  0.00    -0.024 C 
ATOM     13  C   UNL     1       1.022   2.257  -0.092  0.00  0.00    -0.023 C 
ATOM     14  C   UNL     1      -0.458   1.977   0.220  0.00  0.00    +0.010 C 
ATOM     15  C   UNL     1      -0.701   0.507   0.538  0.00  0.00    +0.032 C 
ATOM     16  C   UNL     1       0.146   0.118   1.753  0.00  0.00    +0.115 C 
ATOM     17  C   UNL     1       1.617   0.312   1.406  0.00  0.00    +0.038 C 
ATOM     18  C   UNL     1       1.383   1.512  -1.386  0.00  0.00    +0.012 C 
ATOM     19  C   UNL     1       3.390   1.790   0.594  0.00  0.00    +0.012 C 
ATOM     20  C   UNL     1       1.418   7.898  -0.800  0.00  0.00    +0.014 C 
ENDROOT
BRANCH   1  22
ATOM     21  C   UNL     1       4.776   8.756   1.254  0.00  0.00    +0.040 C 
ATOM     22  C   UNL     1       3.644   8.350   0.308  0.00  0.00    +0.144 C 
BRANCH  22  23
ATOM     23  O   UNL     1       4.121   8.364  -1.039  0.00  0.00    -0.389 OA
ATOM     24  H   UNL     1       4.444   9.227  -1.333  0.00  0.00    +0.210 HD
ENDBRANCH  22  23
ENDBRANCH   1  22
BRANCH  16  25
ATOM     25  O   UNL     1      -0.096  -1.253   2.078  0.00  0.00    -0.392 OA
ATOM     26  H   UNL     1      -1.018  -1.449   2.296  0.00  0.00    +0.210 HD
ENDBRANCH  16  25
BRANCH   1  27
ATOM     27  O   UNL     1       4.229   6.010   0.476  0.00  0.00    -0.385 OA
ATOM     28  H   UNL     1       5.015   6.202   1.006  0.00  0.00    +0.210 HD
ENDBRANCH   1  27
TORSDOF 4
