REMARK  Name = ZINC35632652
REMARK  7 active torsions:
REMARK  status: ('A' for Active; 'I' for Inactive)
REMARK    1  A    between atoms: C_1  and  C_2
REMARK    2  A    between atoms: N_8  and  S_9
REMARK    3  A    between atoms: S_9  and  C_12
REMARK    4  A    between atoms: C_16  and  C_18
REMARK    5  A    between atoms: C_18  and  C_20
REMARK    6  A    between atoms: C_18  and  N_21
REMARK    7  A    between atoms: N_21  and  C_22
REMARK                            x       y       z     vdW  Elec       q    Type
REMARK                         _______ _______ _______ _____ _____    ______ ____
ROOT
ATOM      1  S   UNL     1       0.075  -4.876   1.468  0.00  0.00    +0.101 S 
ATOM      2  O   UNL     1       1.319  -4.577   2.085  0.00  0.00    -0.146 OA
ATOM      3  O   UNL     1      -1.171  -4.611   2.098  0.00  0.00    -0.146 OA
ENDROOT
BRANCH   1  11
ATOM      4  C   UNL     1      -0.018   1.503   0.010  0.00  0.00    +0.045 C 
ATOM      5  C   UNL     1       0.002  -0.004   0.002  0.00  0.00    -0.034 A 
ATOM      6  C   UNL     1       0.006  -0.696  -1.222  0.00  0.00    +0.008 A 
ATOM      7  C   UNL     1       0.024  -2.054  -1.226  0.00  0.00    +0.048 A 
ATOM      8  C   UNL     1       0.039  -2.750   0.006  0.00  0.00    +0.153 A 
ATOM      9  N   UNL     1       0.035  -2.044   1.185  0.00  0.00    -0.345 N 
ATOM     10  C   UNL     1       0.022  -0.681   1.169  0.00  0.00    +0.087 A 
ATOM     11  N   UNL     1       0.057  -4.067   0.023  0.00  0.00    -0.111 NA
ATOM     12  H   UNL     1       0.045  -2.517   2.031  0.00  0.00    +0.167 HD
ENDBRANCH   1  11
BRANCH   1  13
ATOM     13  C   UNL     1       0.096  -6.599   1.100  0.00  0.00    +0.113 A 
ATOM     14  C   UNL     1      -1.093  -7.290   0.956  0.00  0.00    +0.029 A 
ATOM     15  C   UNL     1      -1.077  -8.641   0.667  0.00  0.00    +0.002 A 
ATOM     16  C   UNL     1       0.129  -9.303   0.521  0.00  0.00    +0.002 A 
ATOM     17  C   UNL     1       1.317  -8.612   0.665  0.00  0.00    -0.060 A 
ATOM     18  C   UNL     1       1.301  -7.259   0.949  0.00  0.00    +0.031 A 
BRANCH  17  19
ATOM     19  C   UNL     1       2.631  -9.333   0.507  0.00  0.00    -0.044 C 
ATOM     20  C   UNL     1       2.958 -10.086   1.798  0.00  0.00    -0.009 C 
BRANCH  19  21
ATOM     21  N   UNL     1       2.536 -10.287  -0.606  0.00  0.00    +0.382 N 
ATOM     22  C   UNL     1       3.850 -10.902  -0.837  0.00  0.00    -0.100 C 
ATOM     23  H   UNL     1       1.864 -11.004  -0.378  0.00  0.00    -0.085 HD
ATOM     24  H   UNL     1       2.240  -9.802  -1.440  0.00  0.00    -0.085 HD
ENDBRANCH  19  21
ENDBRANCH  17  19
ENDBRANCH   1  13
TORSDOF 4
