REMARK  Name = ZINC63572000
REMARK  4 active torsions:
REMARK  status: ('A' for Active; 'I' for Inactive)
REMARK    1  A    between atoms: C_1  and  O_2
REMARK    2  A    between atoms: O_2  and  C_3
REMARK    3  A    between atoms: C_6  and  C_9
REMARK    4  A    between atoms: N_26  and  C_27
REMARK                            x       y       z     vdW  Elec       q    Type
REMARK                         _______ _______ _______ _____ _____    ______ ____
ROOT
ATOM      1  C   UNL     1      -4.975  -2.642   0.015  0.00  0.00    +0.134 C 
ATOM      2  C   UNL     1      -5.393  -3.033  -1.407  0.00  0.00    +0.131 C 
ATOM      3  C   UNL     1      -6.591  -3.963  -1.268  0.00  0.00    -0.035 C 
ATOM      4  C   UNL     1      -7.571  -3.421  -1.981  0.00  0.00    -0.001 A 
ATOM      5  C   UNL     1      -8.935  -3.885  -2.283  0.00  0.00    +0.010 A 
ATOM      6  C   UNL     1      -9.693  -3.059  -3.051  0.00  0.00    +0.001 A 
ATOM      7  C   UNL     1      -9.236  -1.832  -3.543  0.00  0.00    +0.002 A 
ATOM      8  C   UNL     1      -7.996  -1.329  -3.317  0.00  0.00    +0.026 A 
ATOM      9  C   UNL     1      -7.105  -2.110  -2.526  0.00  0.00    +0.043 A 
ATOM     10  N   UNL     1      -5.852  -1.876  -2.178  0.00  0.00    -0.375 N 
ATOM     11  C   UNL     1      -6.567  -5.191  -0.391  0.00  0.00    +0.052 C 
ATOM     12  C   UNL     1      -6.054  -4.740   0.989  0.00  0.00    +0.114 C 
ATOM     13  N   UNL     1      -4.884  -3.873   0.815  0.00  0.00    -0.276 N 
ATOM     14  C   UNL     1      -3.713  -4.209   1.391  0.00  0.00    +0.303 C 
ATOM     15  O   UNL     1      -2.770  -3.442   1.345  0.00  0.00    -0.253 OA
ATOM     16  N   UNL     1      -3.586  -5.395   2.018  0.00  0.00    -0.294 N 
ATOM     17  H   UNL     1      -4.312  -6.038   1.991  0.00  0.00    +0.151 HD
ATOM     18  H   UNL     1      -5.327  -1.087  -2.383  0.00  0.00    +0.160 HD
ENDROOT
BRANCH  16  19
ATOM     19  C   UNL     1      -2.352  -5.713   2.742  0.00  0.00    +0.037 C 
ATOM     20  C   UNL     1      -1.169  -5.680   1.772  0.00  0.00    +0.029 C 
ATOM     21  C   UNL     1       0.119  -6.012   2.528  0.00  0.00    -0.008 C 
ATOM     22  C   UNL     1       0.004  -7.408   3.143  0.00  0.00    +0.007 C 
ATOM     23  C   UNL     1      -1.179  -7.441   4.113  0.00  0.00    -0.008 C 
ATOM     24  C   UNL     1      -2.468  -7.109   3.358  0.00  0.00    +0.029 C 
ATOM     25  C   UNL     1      -0.959  -6.411   5.223  0.00  0.00    +0.007 C 
ATOM     26  C   UNL     1      -0.843  -5.015   4.607  0.00  0.00    -0.008 C 
ATOM     27  C   UNL     1       0.340  -4.982   3.637  0.00  0.00    +0.007 C 
ATOM     28  C   UNL     1      -2.132  -4.683   3.851  0.00  0.00    +0.029 C 
ENDBRANCH  16  19
BRANCH   1  32
ATOM     29  C   UNL     1      -1.173  -0.693  -0.079  0.00  0.00    +0.120 A 
ATOM     30  C   UNL     1      -2.131  -0.303   0.846  0.00  0.00    +0.046 A 
ATOM     31  C   UNL     1      -3.360  -0.934   0.874  0.00  0.00    +0.009 A 
ATOM     32  C   UNL     1      -3.635  -1.954  -0.018  0.00  0.00    -0.024 A 
ATOM     33  C   UNL     1      -2.681  -2.345  -0.941  0.00  0.00    +0.009 A 
ATOM     34  C   UNL     1      -1.454  -1.712  -0.977  0.00  0.00    +0.046 A 
BRANCH  29  36
ATOM     35  C   UNL     1       0.254   0.969   0.846  0.00  0.00    +0.277 C 
ATOM     36  O   UNL     1       0.035  -0.072  -0.109  0.00  0.00    -0.495 OA
ENDBRANCH  29  36
ENDBRANCH   1  32
TORSDOF 3
