REMARK  Name = ZINC63361830
REMARK  10 active torsions:
REMARK  status: ('A' for Active; 'I' for Inactive)
REMARK    1  A    between atoms: C_1  and  C_2
REMARK    2  A    between atoms: C_2  and  C_3
REMARK    3  A    between atoms: C_3  and  C_4
REMARK    4  A    between atoms: C_4  and  C_5
REMARK    5  A    between atoms: C_5  and  C_6
REMARK    6  A    between atoms: C_6  and  C_8
REMARK    7  A    between atoms: C_6  and  N_9
REMARK    8  A    between atoms: C_10  and  C_12
REMARK    9  A    between atoms: C_17  and  N_18
REMARK   10  A    between atoms: C_21  and  C_37
REMARK                            x       y       z     vdW  Elec       q    Type
REMARK                         _______ _______ _______ _____ _____    ______ ____
ROOT
ATOM      1  N   UNL     1      -0.890  -8.383   1.155  0.00  0.00    -0.192 N 
ATOM      2  C   UNL     1      -0.105  -9.262   1.812  0.00  0.00    +0.253 C 
ATOM      3  O   UNL     1      -0.094  -9.486   3.003  0.00  0.00    -0.272 OA
ATOM      4  C   UNL     1       0.758  -9.913   0.752  0.00  0.00    +0.137 C 
ATOM      5  C   UNL     1       2.237  -9.614   1.022  0.00  0.00    +0.139 C 
ATOM      6  C   UNL     1       2.964  -9.800  -0.305  0.00  0.00    -0.034 C 
ATOM      7  C   UNL     1       3.905 -10.715  -0.091  0.00  0.00    -0.001 A 
ATOM      8  C   UNL     1       4.952 -11.263  -0.968  0.00  0.00    +0.010 A 
ATOM      9  C   UNL     1       5.756 -12.212  -0.420  0.00  0.00    +0.001 A 
ATOM     10  C   UNL     1       5.624 -12.665   0.896  0.00  0.00    +0.002 A 
ATOM     11  C   UNL     1       4.692 -12.213   1.773  0.00  0.00    +0.026 A 
ATOM     12  C   UNL     1       3.790 -11.210   1.314  0.00  0.00    +0.043 A 
ATOM     13  N   UNL     1       2.820 -10.591   1.945  0.00  0.00    -0.375 N 
ATOM     14  C   UNL     1       2.566  -9.086  -1.574  0.00  0.00    +0.052 C 
ATOM     15  C   UNL     1       1.056  -9.327  -1.777  0.00  0.00    +0.115 C 
ATOM     16  N   UNL     1       0.390  -9.180  -0.480  0.00  0.00    -0.268 N 
ATOM     17  C   UNL     1      -0.623  -8.366  -0.157  0.00  0.00    +0.317 C 
ATOM     18  O   UNL     1      -1.229  -7.686  -0.962  0.00  0.00    -0.252 OA
ATOM     19  C   UNL     1       0.482 -11.413   0.632  0.00  0.00    +0.044 C 
ATOM     20  H   UNL     1       2.533 -10.750   2.858  0.00  0.00    +0.160 HD
ENDROOT
BRANCH   1  26
ATOM     21  C   UNL     1      -1.535  -6.320   2.256  0.00  0.00    +0.059 A 
ATOM     22  C   UNL     1      -2.520  -5.537   2.862  0.00  0.00    +0.015 A 
ATOM     23  C   UNL     1      -3.805  -6.020   2.982  0.00  0.00    +0.001 A 
ATOM     24  C   UNL     1      -4.126  -7.280   2.504  0.00  0.00    +0.002 A 
ATOM     25  C   UNL     1      -3.162  -8.065   1.903  0.00  0.00    +0.025 A 
ATOM     26  C   UNL     1      -1.864  -7.593   1.768  0.00  0.00    +0.058 A 
BRANCH  21  28
ATOM     27  N   UNL     1       0.156  -4.585   2.595  0.00  0.00    -0.309 N 
ATOM     28  C   UNL     1      -0.157  -5.809   2.125  0.00  0.00    +0.246 C 
ATOM     29  O   UNL     1       0.697  -6.492   1.592  0.00  0.00    -0.270 OA
ATOM     30  H   UNL     1      -0.525  -4.040   3.020  0.00  0.00    +0.149 HD
BRANCH  27  31
ATOM     31  C   UNL     1       1.524  -4.077   2.464  0.00  0.00    +0.070 C 
ATOM     32  C   UNL     1       2.369  -4.582   3.635  0.00  0.00    +0.028 C 
BRANCH  31  33
ATOM     33  C   UNL     1       1.503  -2.548   2.473  0.00  0.00    +0.022 C 
BRANCH  33  34
ATOM     34  C   UNL     1       0.763  -2.041   1.233  0.00  0.00    +0.002 C 
BRANCH  34  35
ATOM     35  C   UNL     1       0.742  -0.511   1.242  0.00  0.00    -0.000 C 
BRANCH  35  37
ATOM     36  C   UNL     1      -0.019   1.526   0.010  0.00  0.00    +0.004 C 
ATOM     37  C   UNL     1       0.002  -0.004   0.002  0.00  0.00    -0.003 C 
ENDBRANCH  35  37
ENDBRANCH  34  35
ENDBRANCH  33  34
ENDBRANCH  31  33
ENDBRANCH  27  31
ENDBRANCH  21  28
ENDBRANCH   1  26
TORSDOF 7
