REMARK  Name = ZINC35317836
REMARK  11 active torsions:
REMARK  status: ('A' for Active; 'I' for Inactive)
REMARK    1  A    between atoms: C_1  and  C_2
REMARK    2  A    between atoms: C_2  and  C_4
REMARK    3  A    between atoms: C_2  and  N_7
REMARK    4  A    between atoms: C_4  and  C_5
REMARK    5  A    between atoms: C_4  and  C_6
REMARK    6  A    between atoms: C_8  and  C_10
REMARK    7  A    between atoms: C_10  and  S_11
REMARK    8  A    between atoms: S_11  and  C_12
REMARK    9  A    between atoms: N_22  and  C_25
REMARK   10  A    between atoms: C_25  and  C_26
REMARK   11  A    between atoms: C_27  and  C_28
REMARK                            x       y       z     vdW  Elec       q    Type
REMARK                         _______ _______ _______ _____ _____    ______ ____
ROOT
ATOM      1  C   UNL     1      -5.683  -2.040  -2.661  0.00  0.00    +0.192 A 
ATOM      2  N   UNL     1      -6.431  -2.211  -3.741  0.00  0.00    -0.207 NA
ATOM      3  C   UNL     1      -7.727  -2.485  -3.631  0.00  0.00    +0.127 A 
ATOM      4  C   UNL     1      -8.292  -2.592  -2.359  0.00  0.00    +0.083 A 
ATOM      5  C   UNL     1      -7.476  -2.407  -1.257  0.00  0.00    +0.135 A 
ATOM      6  N   UNL     1      -6.190  -2.141  -1.440  0.00  0.00    -0.210 NA
ATOM      7 CL   UNL     1      -8.127  -2.529   0.347  0.00  0.00    -0.062 Cl
ATOM      8  N   UNL     1      -8.506  -2.662  -4.763  0.00  0.00    -0.319 N 
ATOM      9  C   UNL     1      -7.981  -2.344  -6.100  0.00  0.00    +0.088 C 
ATOM     10  C   UNL     1      -8.231  -3.545  -7.018  0.00  0.00    -0.059 C 
ATOM     11  N   UNL     1      -9.658  -3.891  -6.993  0.00  0.00    +0.384 N 
ATOM     12  C   UNL     1     -10.042  -4.335  -5.647  0.00  0.00    -0.059 C 
ATOM     13  C   UNL     1      -9.880  -3.179  -4.662  0.00  0.00    +0.088 C 
ATOM     14  H   UNL     1     -10.203  -3.080  -7.247  0.00  0.00    -0.081 HD
ENDROOT
BRANCH   1  15
ATOM     15  S   UNL     1      -3.969  -1.679  -2.851  0.00  0.00    -0.077 S 
BRANCH  15  16
ATOM     16  C   UNL     1      -3.357  -1.540  -1.149  0.00  0.00    +0.173 C 
BRANCH  16  18
ATOM     17  N   UNL     1      -1.210  -1.079  -0.010  0.00  0.00    -0.312 N 
ATOM     18  C   UNL     1      -1.883  -1.228  -1.169  0.00  0.00    +0.224 C 
ATOM     19  O   UNL     1      -1.302  -1.111  -2.227  0.00  0.00    -0.275 OA
ATOM     20  H   UNL     1      -1.675  -1.172   0.836  0.00  0.00    +0.149 HD
BRANCH  17  22
ATOM     21  C   UNL     1       0.423   0.735  -0.170  0.00  0.00    +0.028 C 
ATOM     22  C   UNL     1       0.223  -0.775  -0.029  0.00  0.00    +0.072 C 
BRANCH  22  23
ATOM     23  C   UNL     1       0.863  -1.256   1.275  0.00  0.00    +0.003 C 
ATOM     24  C   UNL     1       0.663  -2.766   1.415  0.00  0.00    +0.009 C 
ATOM     25  C   UNL     1       2.360  -0.939   1.255  0.00  0.00    +0.009 C 
ENDBRANCH  22  23
ENDBRANCH  17  22
ENDBRANCH  16  18
ENDBRANCH  15  16
ENDBRANCH   1  15
BRANCH  11  26
ATOM     26  C   UNL     1      -9.915  -4.970  -7.955  0.00  0.00    -0.051 C 
BRANCH  26  27
ATOM     27  C   UNL     1     -11.396  -5.242  -8.021  0.00  0.00    -0.045 C 
ATOM     28  C   UNL     1     -12.027  -5.199  -9.187  0.00  0.00    +0.002 C 
BRANCH  28  29
ATOM     29  C   UNL     1     -13.479  -5.465  -9.251  0.00  0.00    -0.025 A 
ATOM     30  C   UNL     1     -14.190  -5.758  -8.087  0.00  0.00    +0.008 A 
ATOM     31  C   UNL     1     -15.546  -6.006  -8.154  0.00  0.00    +0.001 A 
ATOM     32  C   UNL     1     -16.200  -5.966  -9.372  0.00  0.00    +0.000 A 
ATOM     33  C   UNL     1     -15.501  -5.677 -10.530  0.00  0.00    +0.001 A 
ATOM     34  C   UNL     1     -14.146  -5.420 -10.476  0.00  0.00    +0.008 A 
ENDBRANCH  28  29
ENDBRANCH  26  27
ENDBRANCH  11  26
TORSDOF 8
