REMARK  Name = ZINC37029432
REMARK  6 active torsions:
REMARK  status: ('A' for Active; 'I' for Inactive)
REMARK    1  A    between atoms: C_1  and  C_2
REMARK    2  A    between atoms: C_7  and  N_10
REMARK    3  A    between atoms: N_10  and  C_11
REMARK    4  A    between atoms: C_13  and  N_18
REMARK    5  A    between atoms: N_18  and  S_19
REMARK    6  A    between atoms: S_19  and  C_22
REMARK                            x       y       z     vdW  Elec       q    Type
REMARK                         _______ _______ _______ _____ _____    ______ ____
ROOT
ATOM      1  C   UNL     1       0.971  -3.610   2.762  0.00  0.00    +0.048 A 
ATOM      2  C   UNL     1       0.081  -4.511   2.196  0.00  0.00    +0.049 A 
ATOM      3  C   UNL     1      -0.062  -5.778   2.744  0.00  0.00    +0.049 A 
ATOM      4  C   UNL     1       0.686  -6.140   3.858  0.00  0.00    +0.026 A 
ATOM      5  C   UNL     1       1.571  -5.240   4.420  0.00  0.00    +0.024 A 
ATOM      6  C   UNL     1       1.720  -3.979   3.873  0.00  0.00    +0.062 A 
ATOM      7 CL   UNL     1       2.839  -2.855   4.579  0.00  0.00    -0.082 Cl
ENDROOT
BRANCH   1   8
ATOM      8  N   UNL     1       1.117  -2.333   2.213  0.00  0.00    -0.340 N 
ATOM      9  H   UNL     1       1.743  -1.704   2.607  0.00  0.00    +0.146 HD
BRANCH   8  15
ATOM     10  C   UNL     1      -0.797   1.507  -0.243  0.00  0.00    +0.007 C 
ATOM     11  C   UNL     1      -0.647  -0.015  -0.212  0.00  0.00    -0.012 C 
ATOM     12  C   UNL     1       0.061  -0.485  -1.484  0.00  0.00    +0.003 C 
ATOM     13  C   UNL     1       0.211  -2.007  -1.453  0.00  0.00    +0.002 C 
ATOM     14  C   UNL     1       1.036  -2.413  -0.230  0.00  0.00    +0.022 C 
ATOM     15  C   UNL     1       0.327  -1.944   1.042  0.00  0.00    +0.071 C 
ATOM     16  C   UNL     1       0.178  -0.422   1.011  0.00  0.00    +0.025 C 
ENDBRANCH   8  15
ENDBRANCH   1   8
BRANCH   3  17
ATOM     17  N   UNL     1      -0.957  -6.689   2.177  0.00  0.00    -0.221 N 
ATOM     18  H   UNL     1      -0.733  -7.136   1.346  0.00  0.00    +0.173 HD
BRANCH  17  19
ATOM     19  S   UNL     1      -2.401  -7.004   2.924  0.00  0.00    +0.040 S 
ATOM     20  O   UNL     1      -3.040  -7.960   2.089  0.00  0.00    -0.155 OA
ATOM     21  O   UNL     1      -2.054  -7.328   4.263  0.00  0.00    -0.155 OA
ATOM     22  C   UNL     1      -3.304  -5.431   2.876  0.00  0.00    +0.218 C 
ENDBRANCH  17  19
ENDBRANCH   3  17
TORSDOF 4
