REMARK  Name = ZINC20331996
REMARK  8 active torsions:
REMARK  status: ('A' for Active; 'I' for Inactive)
REMARK    1  A    between atoms: C_1  and  C_2
REMARK    2  A    between atoms: C_2  and  C_3
REMARK    3  A    between atoms: C_9  and  C_13
REMARK    4  A    between atoms: C_13  and  O_14
REMARK    5  A    between atoms: O_14  and  C_15
REMARK    6  A    between atoms: C_18  and  C_23
REMARK    7  A    between atoms: C_20  and  O_21
REMARK    8  A    between atoms: O_21  and  C_22
REMARK                            x       y       z     vdW  Elec       q    Type
REMARK                         _______ _______ _______ _____ _____    ______ ____
ROOT
ATOM      1  C   UNL     1       2.993  -4.629   8.004  0.00  0.00    +0.162 A 
ATOM      2  C   UNL     1       4.353  -4.877   8.146  0.00  0.00    +0.050 A 
ATOM      3  C   UNL     1       4.810  -5.654   9.186  0.00  0.00    +0.012 A 
ATOM      4  C   UNL     1       3.902  -6.198  10.105  0.00  0.00    -0.021 A 
ATOM      5  C   UNL     1       2.530  -5.947   9.960  0.00  0.00    +0.057 A 
ATOM      6  C   UNL     1       2.083  -5.162   8.917  0.00  0.00    +0.162 A 
ENDROOT
BRANCH   4   7
ATOM      7  C   UNL     1       4.385  -7.026  11.213  0.00  0.00    +0.024 C 
ATOM      8  C   UNL     1       5.610  -6.765  11.784  0.00  0.00    +0.081 C 
ATOM      9  C   UNL     1       6.395  -5.547  11.436  0.00  0.00    +0.152 C 
ATOM     10  N   UNL     1       5.846  -4.403  11.127  0.00  0.00    -0.283 NA
ATOM     11  N   UNL     1       7.792  -5.752  11.473  0.00  0.00    -0.152 N 
ATOM     12  C   UNL     1       8.263  -6.785  12.254  0.00  0.00    +0.180 C 
ATOM     13  N   UNL     1       7.561  -7.677  12.907  0.00  0.00    -0.152 NA
ATOM     14  C   UNL     1       6.217  -7.679  12.784  0.00  0.00    +0.273 C 
ATOM     15  O   UNL     1       5.521  -8.410  13.470  0.00  0.00    -0.268 OA
ATOM     16  S   UNL     1      10.019  -6.585  12.113  0.00  0.00    -0.041 S 
ATOM     17  C   UNL     1      10.008  -5.222  10.957  0.00  0.00    +0.179 C 
ATOM     18  N   UNL     1       8.734  -5.001  10.803  0.00  0.00    -0.173 NA
ATOM     19  H   UNL     1       6.404  -3.640  10.909  0.00  0.00    +0.188 HD
ENDBRANCH   4   7
BRANCH   6  20
ATOM     20  O   UNL     1       0.753  -4.912   8.777  0.00  0.00    -0.491 OA
ATOM     21  C   UNL     1      -0.122  -5.489   9.748  0.00  0.00    +0.277 C 
ENDBRANCH   6  20
BRANCH   1  22
ATOM     22  O   UNL     1       2.549  -3.861   6.976  0.00  0.00    -0.482 OA
BRANCH  22  23
ATOM     23  C   UNL     1       3.534  -3.348   6.077  0.00  0.00    +0.284 C 
BRANCH  23  30
ATOM     24  C   UNL     1       0.125  -1.149   1.228  0.00  0.00    +0.102 A 
ATOM     25  N   UNL     1       0.905  -0.455   2.000  0.00  0.00    -0.159 NA
ATOM     26  N   UNL     1       1.612  -1.044   3.044  0.00  0.00    -0.171 N 
ATOM     27  C   UNL     1       2.458  -0.426   3.920  0.00  0.00    +0.275 A 
ATOM     28  O   UNL     1       2.660   0.775   3.832  0.00  0.00    -0.266 OA
ATOM     29  C   UNL     1       3.092  -1.170   4.916  0.00  0.00    +0.099 A 
ATOM     30  C   UNL     1       2.859  -2.526   5.009  0.00  0.00    +0.087 A 
ATOM     31  N   UNL     1       2.029  -3.096   4.140  0.00  0.00    -0.223 NA
ATOM     32  C   UNL     1       1.439  -2.390   3.208  0.00  0.00    +0.199 A 
ATOM     33  S   UNL     1       0.291  -2.791   1.909  0.00  0.00    -0.033 S 
BRANCH  24  35
ATOM     34  C   UNL     1      -0.520   0.819  -0.136  0.00  0.00    +0.011 C 
ATOM     35  C   UNL     1      -0.711  -0.686   0.062  0.00  0.00    +0.061 C 
ENDBRANCH  24  35
ENDBRANCH  23  30
ENDBRANCH  22  23
ENDBRANCH   1  22
TORSDOF 6
