REMARK  Name = ZINC38684672
REMARK  16 active torsions:
REMARK  status: ('A' for Active; 'I' for Inactive)
REMARK    1  A    between atoms: C_1  and  C_2
REMARK    2  A    between atoms: C_6  and  C_39
REMARK    3  A    between atoms: C_7  and  O_8
REMARK    4  A    between atoms: O_8  and  C_9
REMARK    5  A    between atoms: C_9  and  C_10
REMARK    6  A    between atoms: C_10  and  O_12
REMARK    7  A    between atoms: O_12  and  C_13
REMARK    8  A    between atoms: C_20  and  N_38
REMARK    9  A    between atoms: C_21  and  C_36
REMARK   10  A    between atoms: C_22  and  C_24
REMARK   11  A    between atoms: C_28  and  O_30
REMARK   12  A    between atoms: O_30  and  C_31
REMARK   13  A    between atoms: C_31  and  C_32
REMARK   14  A    between atoms: C_32  and  C_33
REMARK   15  A    between atoms: C_33  and  C_34
REMARK   16  A    between atoms: C_33  and  C_35
REMARK                            x       y       z     vdW  Elec       q    Type
REMARK                         _______ _______ _______ _____ _____    ______ ____
ROOT
ATOM      1  C   UNL     1      -1.980   2.042   6.167  0.00  0.00    +0.135 A 
ATOM      2  C   UNL     1      -0.720   2.383   6.639  0.00  0.00    +0.047 A 
ATOM      3  C   UNL     1      -0.590   3.034   7.850  0.00  0.00    +0.012 A 
ATOM      4  C   UNL     1      -1.711   3.348   8.597  0.00  0.00    +0.008 A 
ATOM      5  C   UNL     1      -2.972   3.009   8.131  0.00  0.00    +0.138 A 
ATOM      6  C   UNL     1      -3.105   2.360   6.910  0.00  0.00    +0.093 A 
ATOM      7  O   UNL     1      -4.082   3.308   8.848  0.00  0.00    -0.441 OA
ATOM      8  C   UNL     1      -4.029   4.251   9.804  0.00  0.00    +0.199 C 
ATOM      9  C   UNL     1      -2.857   4.651  10.351  0.00  0.00    +0.098 C 
ATOM     10  C   UNL     1      -1.548   4.057   9.916  0.00  0.00    +0.098 C 
ENDROOT
BRANCH  10  11
ATOM     11  C   UNL     1      -1.075   3.074  10.956  0.00  0.00    -0.031 A 
ATOM     12  C   UNL     1      -1.844   1.964  11.258  0.00  0.00    +0.005 A 
ATOM     13  C   UNL     1      -1.413   1.061  12.212  0.00  0.00    +0.004 A 
ATOM     14  C   UNL     1      -0.213   1.265  12.866  0.00  0.00    +0.045 A 
ATOM     15  C   UNL     1       0.560   2.377  12.564  0.00  0.00    +0.121 A 
ATOM     16  C   UNL     1       0.128   3.279  11.602  0.00  0.00    +0.050 A 
BRANCH  15  17
ATOM     17  O   UNL     1       1.740   2.579  13.206  0.00  0.00    -0.492 OA
BRANCH  17  18
ATOM     18  C   UNL     1       2.125   1.607  14.180  0.00  0.00    +0.229 C 
BRANCH  18  19
ATOM     19  C   UNL     1       3.471   2.001  14.791  0.00  0.00    +0.044 C 
BRANCH  19  20
ATOM     20  C   UNL     1       3.882   0.960  15.834  0.00  0.00    -0.014 C 
ATOM     21  C   UNL     1       5.283   1.286  16.355  0.00  0.00    +0.007 C 
ATOM     22  C   UNL     1       2.887   0.982  16.997  0.00  0.00    +0.007 C 
ENDBRANCH  19  20
ENDBRANCH  18  19
ENDBRANCH  17  18
ENDBRANCH  15  17
ENDBRANCH  10  11
BRANCH   8  23
ATOM     23  N   UNL     1      -5.198   4.826  10.238  0.00  0.00    -0.328 N 
ATOM     24  H   UNL     1      -6.045   4.550   9.855  0.00  0.00    +0.145 HD
ATOM     25  H   UNL     1      -5.176   5.508  10.927  0.00  0.00    +0.145 HD
ENDBRANCH   8  23
BRANCH   9  26
ATOM     26  C   UNL     1      -2.866   5.662  11.366  0.00  0.00    +0.101 C 
ATOM     27  N   UNL     1      -2.873   6.464  12.171  0.00  0.00    -0.191 NA
ENDBRANCH   9  26
BRANCH   1  28
ATOM     28  O   UNL     1      -2.109   1.401   4.976  0.00  0.00    -0.423 OA
BRANCH  28  29
ATOM     29  C   UNL     1      -1.835   0.087   4.933  0.00  0.00    +0.350 C 
ATOM     30  O   UNL     1      -1.399  -0.471   5.912  0.00  0.00    -0.247 OA
BRANCH  29  31
ATOM     31  C   UNL     1      -2.070  -0.691   3.664  0.00  0.00    +0.349 C 
BRANCH  31  32
ATOM     32  O   UNL     1      -1.705  -2.057   3.869  0.00  0.00    -0.480 OA
BRANCH  32  39
ATOM     33  C   UNL     1       0.487  -2.352   2.111  0.00  0.00    +0.047 C 
ATOM     34  C   UNL     1      -0.815  -3.087   1.917  0.00  0.00    -0.009 A 
ATOM     35  C   UNL     1      -0.970  -3.950   0.850  0.00  0.00    +0.007 A 
ATOM     36  C   UNL     1      -2.164  -4.623   0.671  0.00  0.00    +0.001 A 
ATOM     37  C   UNL     1      -3.206  -4.436   1.561  0.00  0.00    +0.007 A 
ATOM     38  C   UNL     1      -3.056  -3.574   2.630  0.00  0.00    -0.009 A 
ATOM     39  C   UNL     1      -1.857  -2.901   2.814  0.00  0.00    +0.127 A 
ATOM     40  C   UNL     1      -4.192  -3.370   3.599  0.00  0.00    +0.047 C 
ENDBRANCH  32  39
ENDBRANCH  31  32
ENDBRANCH  29  31
ENDBRANCH  28  29
ENDBRANCH   1  28
TORSDOF 12
