REMARK  Name = ZINC16147498
REMARK  4 active torsions:
REMARK  status: ('A' for Active; 'I' for Inactive)
REMARK    1  A    between atoms: C_3  and  S_9
REMARK    2  A    between atoms: C_6  and  C_7
REMARK    3  A    between atoms: S_9  and  N_12
REMARK    4  A    between atoms: N_12  and  C_13
REMARK                            x       y       z     vdW  Elec       q    Type
REMARK                         _______ _______ _______ _____ _____    ______ ____
ROOT
ATOM      1  S   UNL     1      -1.613   2.328  -0.003  0.00  0.00    +0.072 S 
ATOM      2  O   UNL     1      -1.436   3.651  -0.493  0.00  0.00    -0.150 OA
ATOM      3  O   UNL     1      -2.563   1.430  -0.560  0.00  0.00    -0.150 OA
ENDROOT
BRANCH   1   6
ATOM      4  C   UNL     1       1.252  -0.472  -0.288  0.00  0.00    +0.021 A 
ATOM      5  C   UNL     1       0.027   0.156  -0.193  0.00  0.00    +0.030 A 
ATOM      6  C   UNL     1      -0.044   1.535  -0.117  0.00  0.00    +0.109 A 
ATOM      7  C   UNL     1       1.112   2.295  -0.135  0.00  0.00    +0.030 A 
ATOM      8  C   UNL     1       2.344   1.681  -0.229  0.00  0.00    +0.021 A 
ATOM      9  C   UNL     1       2.422   0.289  -0.307  0.00  0.00    +0.052 A 
BRANCH   9  10
ATOM     10  C   UNL     1       3.697  -0.355  -0.405  0.00  0.00    +0.099 C 
ATOM     11  N   UNL     1       4.709  -0.866  -0.482  0.00  0.00    -0.191 NA
ENDBRANCH   9  10
ENDBRANCH   1   6
BRANCH   1  12
ATOM     12  N   UNL     1      -1.977   2.465   1.607  0.00  0.00    -0.215 N 
ATOM     13  H   UNL     1      -2.772   2.037   1.962  0.00  0.00    +0.174 HD
BRANCH  12  14
ATOM     14  C   UNL     1      -1.139   3.196   2.454  0.00  0.00    +0.068 A 
ATOM     15  C   UNL     1      -0.505   4.340   1.987  0.00  0.00    +0.047 A 
ATOM     16  C   UNL     1       0.323   5.061   2.826  0.00  0.00    +0.061 A 
ATOM     17  C   UNL     1       0.521   4.644   4.132  0.00  0.00    +0.061 A 
ATOM     18  C   UNL     1      -0.109   3.504   4.599  0.00  0.00    +0.043 A 
ATOM     19  C   UNL     1      -0.943   2.783   3.766  0.00  0.00    +0.065 A 
ATOM     20 CL   UNL     1      -1.739   1.357   4.356  0.00  0.00    -0.082 Cl
ATOM     21 CL   UNL     1       1.561   5.552   5.184  0.00  0.00    -0.082 Cl
ATOM     22 CL   UNL     1       1.116   6.491   2.243  0.00  0.00    -0.082 Cl
ENDBRANCH  12  14
ENDBRANCH   1  12
TORSDOF 4
