REMARK  Name = ZINC06141985
REMARK  8 active torsions:
REMARK  status: ('A' for Active; 'I' for Inactive)
REMARK    1  A    between atoms: C_1  and  C_2
REMARK    2  A    between atoms: C_2  and  C_31
REMARK    3  A    between atoms: C_7  and  C_11
REMARK    4  A    between atoms: C_11  and  S_12
REMARK    5  A    between atoms: S_12  and  N_15
REMARK    6  A    between atoms: N_15  and  C_16
REMARK    7  A    between atoms: C_19  and  S_22
REMARK    8  A    between atoms: S_22  and  N_25
REMARK                            x       y       z     vdW  Elec       q    Type
REMARK                         _______ _______ _______ _____ _____    ______ ____
ROOT
ATOM      1  N   UNL     1      -0.819   1.486  -1.440  0.00  0.00    -0.221 N 
ATOM      2  H   UNL     1      -1.012   0.669  -1.926  0.00  0.00    +0.173 HD
ENDROOT
BRANCH   1   3
ATOM      3  C   UNL     1      -1.311   2.708  -1.905  0.00  0.00    +0.048 A 
ATOM      4  C   UNL     1      -2.657   3.018  -1.755  0.00  0.00    +0.026 A 
ATOM      5  C   UNL     1      -3.139   4.229  -2.212  0.00  0.00    +0.030 A 
ATOM      6  C   UNL     1      -2.287   5.128  -2.826  0.00  0.00    +0.106 A 
ATOM      7  C   UNL     1      -0.947   4.820  -2.981  0.00  0.00    +0.030 A 
ATOM      8  C   UNL     1      -0.457   3.613  -2.522  0.00  0.00    +0.026 A 
BRANCH   6   9
ATOM      9  S   UNL     1      -2.908   6.669  -3.412  0.00  0.00    +0.061 S 
ATOM     10  O   UNL     1      -4.080   6.947  -2.659  0.00  0.00    -0.153 OA
ATOM     11  O   UNL     1      -1.802   7.561  -3.458  0.00  0.00    -0.153 OA
BRANCH   9  12
ATOM     12  N   UNL     1      -3.394   6.437  -4.978  0.00  0.00    -0.172 NA
ATOM     13  C   UNL     1      -2.465   6.648  -6.099  0.00  0.00    +0.137 C 
ATOM     14  C   UNL     1      -2.514   5.405  -7.002  0.00  0.00    +0.177 C 
ATOM     15  O   UNL     1      -3.873   5.130  -7.348  0.00  0.00    -0.377 OA
ATOM     16  C   UNL     1      -4.708   4.813  -6.232  0.00  0.00    +0.177 C 
ATOM     17  C   UNL     1      -4.771   6.020  -5.289  0.00  0.00    +0.137 C 
ENDBRANCH   9  12
ENDBRANCH   6   9
ENDBRANCH   1   3
BRANCH   1  18
ATOM     18  S   UNL     1       0.095   1.433  -0.060  0.00  0.00    +0.044 S 
ATOM     19  O   UNL     1       0.445   0.064   0.090  0.00  0.00    -0.155 OA
ATOM     20  O   UNL     1       1.098   2.420  -0.251  0.00  0.00    -0.155 OA
BRANCH  18  21
ATOM     21  C   UNL     1      -1.035   1.937   1.267  0.00  0.00    +0.203 C 
BRANCH  21  27
ATOM     22  C   UNL     1      -1.560   3.586   3.933  0.00  0.00    +0.012 C 
ATOM     23  C   UNL     1      -1.208   2.098   3.887  0.00  0.00    -0.018 C 
ATOM     24  C   UNL     1      -0.104   1.719   4.936  0.00  0.00    +0.003 C 
ATOM     25  C   UNL     1       0.217   0.257   4.500  0.00  0.00    +0.005 C 
ATOM     26  C   UNL     1       0.057   0.268   2.962  0.00  0.00    +0.017 C 
ATOM     27  C   UNL     1      -0.354   1.733   2.622  0.00  0.00    +0.055 C 
ATOM     28  C   UNL     1       0.919   2.557   2.861  0.00  0.00    +0.142 C 
ATOM     29  O   UNL     1       1.621   3.079   2.029  0.00  0.00    -0.297 OA
ATOM     30  C   UNL     1       1.094   2.556   4.392  0.00  0.00    +0.079 C 
ATOM     31  C   UNL     1      -2.452   1.215   4.015  0.00  0.00    +0.012 C 
ENDBRANCH  21  27
ENDBRANCH  18  21
ENDBRANCH   1  18
TORSDOF 6
