REMARK  Name = ZINC08419774
REMARK  8 active torsions:
REMARK  status: ('A' for Active; 'I' for Inactive)
REMARK    1  A    between atoms: C_1  and  C_2
REMARK    2  A    between atoms: C_7  and  N_12
REMARK    3  A    between atoms: C_9  and  C_11
REMARK    4  A    between atoms: N_12  and  C_13
REMARK    5  A    between atoms: C_13  and  N_15
REMARK    6  A    between atoms: N_15  and  N_16
REMARK    7  A    between atoms: C_17  and  C_19
REMARK    8  A    between atoms: C_20  and  C_21
REMARK                            x       y       z     vdW  Elec       q    Type
REMARK                         _______ _______ _______ _____ _____    ______ ____
ROOT
ATOM      1  N   UNL     1      -2.722   2.568  -2.253  0.00  0.00    -0.246 N 
ATOM      2  H   UNL     1      -3.689   2.647  -2.242  0.00  0.00    +0.172 HD
ENDROOT
BRANCH   1   3
ATOM      3  N   UNL     1      -2.004   2.917  -3.404  0.00  0.00    -0.232 N 
ATOM      4  C   UNL     1      -2.655   3.364  -4.496  0.00  0.00    +0.253 C 
ATOM      5  O   UNL     1      -3.869   3.463  -4.482  0.00  0.00    -0.269 OA
ATOM      6  H   UNL     1      -1.037   2.838  -3.415  0.00  0.00    +0.173 HD
BRANCH   4   7
ATOM      7  C   UNL     1      -1.930   3.716  -5.658  0.00  0.00    +0.070 C 
ATOM      8  C   UNL     1      -2.586   4.166  -6.757  0.00  0.00    +0.020 C 
BRANCH   8   9
ATOM      9  C   UNL     1      -1.860   4.519  -7.920  0.00  0.00    +0.012 A 
ATOM     10  C   UNL     1      -2.333   4.989  -9.139  0.00  0.00    +0.015 A 
ATOM     11  C   UNL     1      -1.399   5.261 -10.107  0.00  0.00    +0.008 A 
ATOM     12  C   UNL     1      -0.083   5.051  -9.838  0.00  0.00    +0.046 A 
ATOM     13  S   UNL     1      -0.099   4.468  -8.205  0.00  0.00    -0.097 S 
ENDBRANCH   8   9
ENDBRANCH   4   7
ENDBRANCH   1   3
BRANCH   1  14
ATOM     14  C   UNL     1      -2.070   2.122  -1.161  0.00  0.00    +0.147 C 
ATOM     15  S   UNL     1      -2.949   1.695   0.245  0.00  0.00    -0.017 S 
BRANCH  14  16
ATOM     16  N   UNL     1      -0.727   2.011  -1.176  0.00  0.00    -0.322 N 
ATOM     17  H   UNL     1      -0.230   2.253  -1.973  0.00  0.00    +0.148 HD
BRANCH  16  23
ATOM     18  C   UNL     1       3.568   2.091  -1.270  0.00  0.00    +0.008 C 
ATOM     19  C   UNL     1       2.133   1.562  -1.259  0.00  0.00    -0.009 C 
ATOM     20  C   UNL     1       2.154   0.032  -1.268  0.00  0.00    +0.003 C 
ATOM     21  C   UNL     1       0.718  -0.497  -1.257  0.00  0.00    +0.002 C 
ATOM     22  C   UNL     1       0.002  -0.004   0.002  0.00  0.00    +0.022 C 
ATOM     23  C   UNL     1      -0.019   1.526   0.010  0.00  0.00    +0.075 C 
ATOM     24  C   UNL     1       1.417   2.055  -0.000  0.00  0.00    +0.009 C 
ATOM     25  C   UNL     1       1.396   3.585   0.008  0.00  0.00    +0.009 C 
ENDBRANCH  16  23
ENDBRANCH  14  16
ENDBRANCH   1  14
TORSDOF 6
