REMARK  Name = ZINC12500739
REMARK  8 active torsions:
REMARK  status: ('A' for Active; 'I' for Inactive)
REMARK    1  A    between atoms: C_4  and  C_7
REMARK    2  A    between atoms: C_8  and  C_9
REMARK    3  A    between atoms: N_11  and  C_12
REMARK    4  A    between atoms: C_12  and  N_14
REMARK    5  A    between atoms: N_14  and  N_15
REMARK    6  A    between atoms: C_16  and  C_18
REMARK    7  A    between atoms: C_18  and  O_19
REMARK    8  A    between atoms: O_19  and  C_20
REMARK                            x       y       z     vdW  Elec       q    Type
REMARK                         _______ _______ _______ _____ _____    ______ ____
ROOT
ATOM      1  N   UNL     1       5.211  -2.710  -0.065  0.00  0.00    -0.245 N 
ATOM      2  H   UNL     1       5.972  -2.108  -0.069  0.00  0.00    +0.172 HD
ENDROOT
BRANCH   1   3
ATOM      3  N   UNL     1       3.909  -2.193  -0.049  0.00  0.00    -0.232 N 
ATOM      4  C   UNL     1       3.713  -0.860  -0.040  0.00  0.00    +0.267 C 
ATOM      5  O   UNL     1       4.664  -0.107  -0.044  0.00  0.00    -0.271 OA
ATOM      6  H   UNL     1       3.148  -2.795  -0.045  0.00  0.00    +0.173 HD
BRANCH   4   7
ATOM      7  C   UNL     1       2.312  -0.304  -0.023  0.00  0.00    +0.326 C 
BRANCH   7   8
ATOM      8  O   UNL     1       2.366   1.123  -0.015  0.00  0.00    -0.481 OA
BRANCH   8   9
ATOM      9  C   UNL     1       1.179   1.786   0.000  0.00  0.00    +0.140 A 
ATOM     10  C   UNL     1      -0.013   1.076   0.008  0.00  0.00    +0.048 A 
ATOM     11  C   UNL     1      -1.218   1.751   0.017  0.00  0.00    +0.023 A 
ATOM     12  C   UNL     1      -1.238   3.134   0.031  0.00  0.00    +0.043 A 
ATOM     13  C   UNL     1      -0.051   3.845   0.023  0.00  0.00    +0.043 A 
ATOM     14  C   UNL     1       1.157   3.174   0.008  0.00  0.00    +0.084 A 
ATOM     15 CL   UNL     1       2.647   4.066  -0.002  0.00  0.00    -0.080 Cl
ATOM     16 CL   UNL     1      -2.754   3.979   0.049  0.00  0.00    -0.083 Cl
ENDBRANCH   8   9
ENDBRANCH   7   8
ENDBRANCH   4   7
ENDBRANCH   1   3
BRANCH   1  17
ATOM     17  C   UNL     1       5.407  -4.043  -0.074  0.00  0.00    +0.153 C 
ATOM     18  S   UNL     1       6.999  -4.674  -0.093  0.00  0.00    -0.017 S 
BRANCH  17  21
ATOM     19  C   UNL     1       4.547  -6.213  -0.078  0.00  0.00    +0.242 C 
ATOM     20  O   UNL     1       5.678  -6.662  -0.092  0.00  0.00    -0.270 OA
ATOM     21  N   UNL     1       4.351  -4.880  -0.069  0.00  0.00    -0.263 N 
ATOM     22  H   UNL     1       3.449  -4.522  -0.058  0.00  0.00    +0.157 HD
BRANCH  19  24
ATOM     23  C   UNL     1       3.596  -8.456  -0.082  0.00  0.00    +0.013 C 
ATOM     24  C   UNL     1       3.400  -7.121  -0.072  0.00  0.00    +0.068 C 
BRANCH  23  28
ATOM     25  C   UNL     1       0.270 -11.089  -0.063  0.00  0.00    +0.000 A 
ATOM     26  C   UNL     1       1.555 -11.603  -0.080  0.00  0.00    +0.001 A 
ATOM     27  C   UNL     1       2.641 -10.754  -0.086  0.00  0.00    +0.008 A 
ATOM     28  C   UNL     1       2.442  -9.369  -0.076  0.00  0.00    -0.025 A 
ATOM     29  C   UNL     1       1.141  -8.858  -0.054  0.00  0.00    +0.008 A 
ATOM     30  C   UNL     1       0.065  -9.720  -0.054  0.00  0.00    +0.001 A 
ENDBRANCH  23  28
ENDBRANCH  19  24
ENDBRANCH  17  21
ENDBRANCH   1  17
TORSDOF 8
