REMARK  Name = ZINC39224752
REMARK  7 active torsions:
REMARK  status: ('A' for Active; 'I' for Inactive)
REMARK    1  A    between atoms: C_1  and  N_2
REMARK    2  A    between atoms: N_9  and  C_12
REMARK    3  A    between atoms: C_14  and  S_25
REMARK    4  A    between atoms: N_16  and  C_17
REMARK    5  A    between atoms: C_17  and  C_18
REMARK    6  A    between atoms: S_25  and  C_26
REMARK    7  A    between atoms: C_26  and  C_27
REMARK                            x       y       z     vdW  Elec       q    Type
REMARK                         _______ _______ _______ _____ _____    ______ ____
ROOT
ATOM      1  C   UNL     1      -0.018   1.461   0.010  0.00  0.00    +0.135 C 
ATOM      2  N   UNL     1       0.002  -0.004   0.002  0.00  0.00    -0.270 N 
ATOM      3  C   UNL     1      -1.216  -0.786   0.003  0.00  0.00    +0.176 C 
ATOM      4  C   UNL     1      -1.024  -1.908  -1.057  0.00  0.00    +0.179 C 
ATOM      5  C   UNL     1       0.108  -2.752  -0.577  0.00  0.00    +0.243 C 
ATOM      6  O   UNL     1       0.078  -3.963  -0.622  0.00  0.00    -0.273 OA
ATOM      7  N   UNL     1       1.179  -2.068  -0.084  0.00  0.00    -0.228 N 
ATOM      8  C   UNL     1       1.167  -0.708  -0.013  0.00  0.00    +0.312 C 
ATOM      9  O   UNL     1       2.220  -0.106   0.058  0.00  0.00    -0.252 OA
ATOM     10  C   UNL     1       2.366  -2.808   0.352  0.00  0.00    +0.143 C 
ATOM     11  N   UNL     1      -2.357  -2.492  -1.130  0.00  0.00    -0.279 NA
ATOM     12  C   UNL     1      -3.291  -1.371  -0.827  0.00  0.00    +0.187 C 
ATOM     13  N   UNL     1      -2.463  -0.181  -0.465  0.00  0.00    -0.254 NA
ATOM     14  H   UNL     1      -2.535  -2.873  -2.047  0.00  0.00    +0.125 HD
ENDROOT
BRANCH  13  15
ATOM     15  C   UNL     1      -3.103   0.600   0.603  0.00  0.00    +0.126 C 
BRANCH  15  16
ATOM     16  C   UNL     1      -4.242   1.400   0.026  0.00  0.00    +0.002 A 
ATOM     17  C   UNL     1      -4.066   2.739  -0.269  0.00  0.00    +0.008 A 
ATOM     18  C   UNL     1      -5.110   3.474  -0.798  0.00  0.00    +0.000 A 
ATOM     19  C   UNL     1      -6.332   2.870  -1.034  0.00  0.00    +0.003 A 
ATOM     20  C   UNL     1      -6.510   1.532  -0.740  0.00  0.00    +0.038 A 
ATOM     21  C   UNL     1      -5.463   0.794  -0.215  0.00  0.00    +0.128 A 
ATOM     22  F   UNL     1      -5.634  -0.516   0.068  0.00  0.00    -0.205 F 
ENDBRANCH  15  16
ENDBRANCH  13  15
BRANCH  12  23
ATOM     23  S   UNL     1      -4.302  -1.000  -2.287  0.00  0.00    -0.120 S 
BRANCH  23  24
ATOM     24  C   UNL     1      -3.087  -0.591  -3.569  0.00  0.00    +0.123 C 
BRANCH  24  25
ATOM     25  C   UNL     1      -3.804  -0.258  -4.852  0.00  0.00    +0.042 C 
ATOM     26  N   UNL     1      -5.092  -0.285  -4.915  0.00  0.00    -0.219 NA
ATOM     27  C   UNL     1      -5.791   0.006  -6.045  0.00  0.00    +0.256 A 
ATOM     28  N   UNL     1      -7.099   0.019  -6.258  0.00  0.00    -0.197 NA
ATOM     29  C   UNL     1      -7.351   0.361  -7.519  0.00  0.00    +0.247 A 
ATOM     30  N   UNL     1      -6.224   0.576  -8.145  0.00  0.00    -0.149 NA
ATOM     31  N   UNL     1      -5.194   0.354  -7.218  0.00  0.00    -0.163 N 
ATOM     32  C   UNL     1      -3.852   0.434  -7.333  0.00  0.00    +0.256 C 
ATOM     33  O   UNL     1      -3.327   0.744  -8.376  0.00  0.00    -0.270 OA
ATOM     34  C   UNL     1      -3.028   0.124  -6.097  0.00  0.00    +0.152 C 
ENDBRANCH  24  25
ENDBRANCH  23  24
ENDBRANCH  12  23
TORSDOF 5
