REMARK  Name = ZINC39639355
REMARK  8 active torsions:
REMARK  status: ('A' for Active; 'I' for Inactive)
REMARK    1  A    between atoms: C_1  and  C_2
REMARK    2  A    between atoms: C_5  and  C_8
REMARK    3  A    between atoms: C_8  and  C_10
REMARK    4  A    between atoms: C_8  and  N_11
REMARK    5  A    between atoms: C_12  and  C_14
REMARK    6  A    between atoms: C_25  and  C_27
REMARK    7  A    between atoms: C_29  and  O_34
REMARK    8  A    between atoms: O_34  and  C_35
REMARK                            x       y       z     vdW  Elec       q    Type
REMARK                         _______ _______ _______ _____ _____    ______ ____
ROOT
ATOM      1  C   UNL     1       2.343  -6.798   2.558  0.00  0.00    +0.100 C 
ATOM      2  C   UNL     1       3.543  -5.838   2.393  0.00  0.00    +0.121 C 
ATOM      3  N   UNL     1       4.737  -6.709   2.503  0.00  0.00    -0.296 N 
ATOM      4  C   UNL     1       4.360  -7.944   1.775  0.00  0.00    +0.115 C 
ATOM      5  C   UNL     1       2.883  -8.179   2.151  0.00  0.00    -0.004 C 
ATOM      6  C   UNL     1       2.112  -8.714   0.949  0.00  0.00    -0.010 C 
ATOM      7  C   UNL     1       2.627 -10.113   0.599  0.00  0.00    -0.082 C 
ATOM      8  N   UNL     1       2.454 -11.003   1.753  0.00  0.00    +0.379 N 
ATOM      9  C   UNL     1       3.273 -10.532   2.876  0.00  0.00    -0.082 C 
ATOM     10  C   UNL     1       2.784  -9.151   3.322  0.00  0.00    -0.010 C 
ATOM     11  C   UNL     1       5.902  -6.439   3.124  0.00  0.00    +0.248 C 
ATOM     12  O   UNL     1       6.829  -7.221   3.044  0.00  0.00    -0.270 OA
ATOM     13  H   UNL     1       1.483 -11.012   2.026  0.00  0.00    -0.086 HD
ATOM     14  H   UNL     1       2.737 -11.938   1.500  0.00  0.00    -0.086 HD
ENDROOT
BRANCH  11  15
ATOM     15  C   UNL     1       6.053  -5.191   3.901  0.00  0.00    +0.054 A 
ATOM     16  C   UNL     1       5.439  -4.016   3.467  0.00  0.00    +0.059 A 
ATOM     17  C   UNL     1       5.584  -2.851   4.200  0.00  0.00    +0.121 A 
ATOM     18  C   UNL     1       6.340  -2.853   5.366  0.00  0.00    +0.047 A 
ATOM     19  C   UNL     1       6.949  -4.015   5.798  0.00  0.00    +0.019 A 
ATOM     20  C   UNL     1       6.807  -5.185   5.077  0.00  0.00    +0.030 A 
ATOM     21 BR   UNL     1       7.637  -6.774   5.677  0.00  0.00    -0.050 Br
BRANCH  17  22
ATOM     22  O   UNL     1       4.987  -1.705   3.780  0.00  0.00    -0.495 OA
ATOM     23  C   UNL     1       5.179  -0.540   4.586  0.00  0.00    +0.277 C 
ENDBRANCH  17  22
ENDBRANCH  11  15
BRANCH   1  25
ATOM     24  N   UNL     1      -0.062  -6.649   1.999  0.00  0.00    -0.308 N 
ATOM     25  C   UNL     1       1.214  -6.387   1.650  0.00  0.00    +0.219 C 
ATOM     26  O   UNL     1       1.452  -5.821   0.604  0.00  0.00    -0.275 OA
ATOM     27  H   UNL     1      -0.252  -7.102   2.835  0.00  0.00    +0.149 HD
BRANCH  24  28
ATOM     28  C   UNL     1      -1.160  -6.250   1.115  0.00  0.00    +0.100 C 
ATOM     29  C   UNL     1      -1.382  -7.332   0.056  0.00  0.00    +0.033 C 
BRANCH  28  34
ATOM     30  C   UNL     1      -5.987  -5.579   4.221  0.00  0.00    +0.044 C 
ATOM     31  C   UNL     1      -4.728  -5.754   3.411  0.00  0.00    -0.050 A 
ATOM     32  C   UNL     1      -4.432  -4.866   2.393  0.00  0.00    +0.004 A 
ATOM     33  C   UNL     1      -3.277  -5.026   1.651  0.00  0.00    +0.006 A 
ATOM     34  C   UNL     1      -2.418  -6.074   1.925  0.00  0.00    -0.027 A 
ATOM     35  C   UNL     1      -2.714  -6.961   2.943  0.00  0.00    +0.006 A 
ATOM     36  C   UNL     1      -3.867  -6.798   3.689  0.00  0.00    +0.004 A 
ENDBRANCH  28  34
ENDBRANCH  24  28
ENDBRANCH   1  25
TORSDOF 5
