REMARK  Name = ZINC08954420
REMARK  7 active torsions:
REMARK  status: ('A' for Active; 'I' for Inactive)
REMARK    1  A    between atoms: C_1  and  C_2
REMARK    2  A    between atoms: C_5  and  C_8
REMARK    3  A    between atoms: C_8  and  N_9
REMARK    4  A    between atoms: C_19  and  S_20
REMARK    5  A    between atoms: S_20  and  C_21
REMARK    6  A    between atoms: C_21  and  C_23
REMARK    7  A    between atoms: C_21  and  C_24
REMARK                            x       y       z     vdW  Elec       q    Type
REMARK                         _______ _______ _______ _____ _____    ______ ____
ROOT
ATOM      1  N   UNL     1       2.281  -7.289  -1.652  0.00  0.00    -0.283 N 
ATOM      2  C   UNL     1       2.146  -8.636  -1.649  0.00  0.00    +0.263 A 
ATOM      3  O   UNL     1       2.938  -9.351  -2.233  0.00  0.00    -0.267 OA
ATOM      4  C   UNL     1       1.004  -9.200  -0.917  0.00  0.00    +0.065 A 
ATOM      5  C   UNL     1       0.774 -10.574  -0.857  0.00  0.00    +0.015 A 
ATOM      6  C   UNL     1      -0.304 -11.047  -0.161  0.00  0.00    +0.001 A 
ATOM      7  C   UNL     1      -1.170 -10.175   0.485  0.00  0.00    +0.002 A 
ATOM      8  C   UNL     1      -0.968  -8.824   0.443  0.00  0.00    +0.028 A 
ATOM      9  C   UNL     1       0.125  -8.309  -0.260  0.00  0.00    +0.079 A 
ATOM     10  N   UNL     1       0.361  -6.984  -0.327  0.00  0.00    -0.223 NA
ATOM     11  C   UNL     1       1.386  -6.501  -0.986  0.00  0.00    +0.173 A 
ENDROOT
BRANCH   1  12
ATOM     12  C   UNL     1       3.399  -6.672  -2.371  0.00  0.00    +0.162 C 
BRANCH  12  17
ATOM     13  C   UNL     1       7.934  -6.179   1.176  0.00  0.00    +0.044 C 
ATOM     14  C   UNL     1       6.751  -6.308   0.251  0.00  0.00    -0.050 A 
ATOM     15  C   UNL     1       6.590  -7.450  -0.510  0.00  0.00    +0.004 A 
ATOM     16  C   UNL     1       5.505  -7.568  -1.359  0.00  0.00    +0.005 A 
ATOM     17  C   UNL     1       4.581  -6.543  -1.446  0.00  0.00    -0.028 A 
ATOM     18  C   UNL     1       4.745  -5.399  -0.689  0.00  0.00    +0.005 A 
ATOM     19  C   UNL     1       5.828  -5.282   0.162  0.00  0.00    +0.004 A 
ENDBRANCH  12  17
ENDBRANCH   1  12
BRANCH  11  20
ATOM     20  S   UNL     1       1.617  -4.755  -1.019  0.00  0.00    -0.077 S 
BRANCH  20  21
ATOM     21  C   UNL     1       0.198  -4.232  -0.024  0.00  0.00    +0.117 C 
ATOM     22  C   UNL     1       0.364  -4.743   1.409  0.00  0.00    +0.027 C 
BRANCH  21  23
ATOM     23  C   UNL     1       0.118  -2.727  -0.015  0.00  0.00    +0.124 A 
ATOM     24  N   UNL     1      -1.110  -2.147  -0.000  0.00  0.00    -0.309 N 
ATOM     25  H   UNL     1      -1.904  -2.703   0.004  0.00  0.00    +0.170 HD
ATOM     26  C   UNL     1      -1.235  -0.799   0.009  0.00  0.00    +0.259 A 
ATOM     27  O   UNL     1      -2.329  -0.266   0.022  0.00  0.00    -0.267 OA
ATOM     28  C   UNL     1       0.002  -0.004   0.002  0.00  0.00    +0.065 A 
ATOM     29  C   UNL     1      -0.017   1.389   0.010  0.00  0.00    +0.015 A 
ATOM     30  C   UNL     1       1.173   2.084   0.002  0.00  0.00    +0.001 A 
ATOM     31  C   UNL     1       2.386   1.408  -0.013  0.00  0.00    +0.002 A 
ATOM     32  C   UNL     1       2.426   0.032  -0.021  0.00  0.00    +0.028 A 
ATOM     33  C   UNL     1       1.234  -0.695  -0.013  0.00  0.00    +0.078 A 
ATOM     34  N   UNL     1       1.227  -2.051  -0.021  0.00  0.00    -0.233 NA
ENDBRANCH  21  23
ENDBRANCH  20  21
ENDBRANCH  11  20
TORSDOF 5
