REMARK  Name = ZINC26980048
REMARK  7 active torsions:
REMARK  status: ('A' for Active; 'I' for Inactive)
REMARK    1  A    between atoms: C_4  and  C_7
REMARK    2  A    between atoms: C_7  and  N_8
REMARK    3  A    between atoms: C_14  and  C_33
REMARK    4  A    between atoms: C_18  and  C_20
REMARK    5  A    between atoms: C_20  and  C_22
REMARK    6  A    between atoms: C_20  and  C_28
REMARK    7  A    between atoms: C_33  and  O_34
REMARK                            x       y       z     vdW  Elec       q    Type
REMARK                         _______ _______ _______ _____ _____    ______ ____
ROOT
ATOM      1  N   UNL     1      -5.000   4.157  -1.716  0.00  0.00    -0.331 N 
ATOM      2  C   UNL     1      -4.065   4.687  -2.538  0.00  0.00    +0.174 A 
ATOM      3  N   UNL     1      -2.991   3.944  -2.488  0.00  0.00    -0.348 N 
ATOM      4  C   UNL     1      -3.200   2.930  -1.645  0.00  0.00    +0.054 A 
ATOM      5  C   UNL     1      -4.451   3.047  -1.150  0.00  0.00    +0.043 A 
ATOM      6  C   UNL     1      -5.074   2.103  -0.155  0.00  0.00    +0.080 C 
ATOM      7  C   UNL     1      -4.270   0.790  -0.147  0.00  0.00    +0.108 C 
ATOM      8  N   UNL     1      -2.836   1.112  -0.116  0.00  0.00    -0.290 N 
ATOM      9  C   UNL     1      -2.250   1.817  -1.270  0.00  0.00    +0.163 C 
ATOM     10  C   UNL     1      -2.073   0.766   0.941  0.00  0.00    +0.224 C 
ATOM     11  O   UNL     1      -2.543   0.091   1.832  0.00  0.00    -0.275 OA
ATOM     12  H   UNL     1      -2.109   4.210  -3.090  0.00  0.00    +0.166 HD
ENDROOT
BRANCH   1  13
ATOM     13  C   UNL     1      -6.348   4.679  -1.479  0.00  0.00    +0.158 C 
BRANCH  13  17
ATOM     14  C   UNL     1      -6.325   7.155   2.003  0.00  0.00    +0.000 A 
ATOM     15  C   UNL     1      -6.079   7.708   0.760  0.00  0.00    +0.000 A 
ATOM     16  C   UNL     1      -6.086   6.907  -0.367  0.00  0.00    +0.005 A 
ATOM     17  C   UNL     1      -6.340   5.553  -0.251  0.00  0.00    -0.028 A 
ATOM     18  C   UNL     1      -6.591   5.001   0.992  0.00  0.00    +0.005 A 
ATOM     19  C   UNL     1      -6.579   5.801   2.119  0.00  0.00    +0.000 A 
ENDBRANCH  13  17
ENDBRANCH   1  13
BRANCH  10  20
ATOM     20  C   UNL     1      -0.638   1.219   1.014  0.00  0.00    +0.108 C 
BRANCH  20  21
ATOM     21  C   UNL     1      -0.566   2.547   1.722  0.00  0.00    -0.035 A 
ATOM     22  C   UNL     1      -1.024   2.665   3.021  0.00  0.00    +0.004 A 
ATOM     23  C   UNL     1      -0.954   3.882   3.671  0.00  0.00    +0.000 A 
ATOM     24  C   UNL     1      -0.433   4.985   3.020  0.00  0.00    +0.000 A 
ATOM     25  C   UNL     1       0.021   4.869   1.720  0.00  0.00    +0.000 A 
ATOM     26  C   UNL     1      -0.045   3.650   1.071  0.00  0.00    +0.004 A 
ENDBRANCH  20  21
BRANCH  20  27
ATOM     27  C   UNL     1       0.184   0.184   1.786  0.00  0.00    +0.005 C 
ATOM     28  C   UNL     1       0.239  -1.156   1.012  0.00  0.00    +0.004 C 
ATOM     29  C   UNL     1       1.523  -1.819   1.567  0.00  0.00    +0.000 C 
ATOM     30  C   UNL     1       2.510  -0.647   1.741  0.00  0.00    +0.000 C 
ATOM     31  C   UNL     1       1.659   0.627   1.880  0.00  0.00    +0.004 C 
ENDBRANCH  20  27
ENDBRANCH  10  20
BRANCH   7  32
ATOM     32  C   UNL     1      -4.637  -0.030   1.091  0.00  0.00    +0.178 C 
BRANCH  32  33
ATOM     33  O   UNL     1      -4.506   0.783   2.258  0.00  0.00    -0.393 OA
ATOM     34  H   UNL     1      -4.728   0.363   3.250  0.00  0.00    +0.209 HD
ENDBRANCH  32  33
ENDBRANCH   7  32
TORSDOF 7
