REMARK  Name = ZINC09111198
REMARK  9 active torsions:
REMARK  status: ('A' for Active; 'I' for Inactive)
REMARK    1  A    between atoms: C_1  and  C_2
REMARK    2  A    between atoms: C_16  and  C_30
REMARK    3  A    between atoms: C_18  and  C_27
REMARK    4  A    between atoms: C_27  and  C_29
REMARK    5  A    between atoms: C_30  and  C_32
REMARK    6  A    between atoms: C_34  and  O_40
REMARK    7  A    between atoms: C_37  and  O_38
REMARK    8  A    between atoms: O_38  and  C_39
REMARK    9  A    between atoms: O_40  and  C_41
REMARK                            x       y       z     vdW  Elec       q    Type
REMARK                         _______ _______ _______ _____ _____    ______ ____
ROOT
ATOM      1  C   UNL     1       2.577   2.186   0.066  0.00  0.00    +0.044 C 
ATOM      2  C   UNL     1       1.149   2.657   0.172  0.00  0.00    -0.044 C 
ATOM      3  C   UNL     1       0.119   1.820  -0.049  0.00  0.00    +0.000 C 
ATOM      4  C   UNL     1      -1.251   2.411   0.084  0.00  0.00    +0.118 C 
ATOM      5  C   UNL     1      -2.372   1.413   0.340  0.00  0.00    +0.108 C 
ATOM      6  C   UNL     1      -3.034   0.959  -0.917  0.00  0.00    -0.008 A 
ATOM      7  C   UNL     1      -3.675   1.651  -1.922  0.00  0.00    +0.006 A 
ATOM      8  C   UNL     1      -4.189   0.903  -2.975  0.00  0.00    +0.000 A 
ATOM      9  C   UNL     1      -4.062  -0.471  -3.011  0.00  0.00    +0.002 A 
ATOM     10  C   UNL     1      -3.419  -1.174  -2.005  0.00  0.00    +0.023 A 
ATOM     11  C   UNL     1      -2.898  -0.436  -0.941  0.00  0.00    +0.038 A 
ATOM     12  N   UNL     1      -2.217  -0.874   0.182  0.00  0.00    -0.284 N 
ATOM     13  C   UNL     1      -1.869   0.150   0.993  0.00  0.00    +0.231 C 
ATOM     14  O   UNL     1      -1.267   0.069   2.043  0.00  0.00    -0.274 OA
ATOM     15  C   UNL     1      -3.361   2.148   1.268  0.00  0.00    +0.109 C 
ATOM     16  C   UNL     1      -2.695   3.528   1.535  0.00  0.00    +0.152 C 
ATOM     17  N   UNL     1      -1.268   3.269   1.305  0.00  0.00    -0.311 N 
ATOM     18  C   UNL     1      -0.425   4.339   1.115  0.00  0.00    +0.038 A 
ATOM     19  C   UNL     1       0.826   4.061   0.523  0.00  0.00    -0.001 A 
ATOM     20  C   UNL     1       1.720   5.095   0.283  0.00  0.00    +0.010 A 
ATOM     21  C   UNL     1       1.380   6.388   0.630  0.00  0.00    +0.001 A 
ATOM     22  C   UNL     1       0.155   6.658   1.217  0.00  0.00    +0.002 A 
ATOM     23  C   UNL     1      -0.747   5.637   1.459  0.00  0.00    +0.024 A 
ATOM     24  H   UNL     1      -2.015  -1.804   0.366  0.00  0.00    +0.155 HD
ENDROOT
BRANCH  16  25
ATOM     25  C   UNL     1      -3.210   4.562   0.568  0.00  0.00    +0.151 C 
ATOM     26  O   UNL     1      -2.593   4.806  -0.441  0.00  0.00    -0.296 OA
ATOM     27  C   UNL     1      -4.495   5.293   0.860  0.00  0.00    +0.088 C 
ENDBRANCH  16  25
BRANCH  15  28
ATOM     28  C   UNL     1      -4.691   2.330   0.584  0.00  0.00    +0.173 C 
ATOM     29  O   UNL     1      -4.814   3.162  -0.291  0.00  0.00    -0.292 OA
BRANCH  28  30
ATOM     30  C   UNL     1      -5.838   1.502   0.976  0.00  0.00    +0.063 A 
ATOM     31  C   UNL     1      -5.699   0.537   1.981  0.00  0.00    +0.060 A 
ATOM     32  C   UNL     1      -6.785  -0.234   2.348  0.00  0.00    +0.121 A 
ATOM     33  C   UNL     1      -8.010  -0.063   1.714  0.00  0.00    +0.049 A 
ATOM     34  C   UNL     1      -8.156   0.881   0.719  0.00  0.00    +0.050 A 
ATOM     35  C   UNL     1      -7.079   1.669   0.341  0.00  0.00    +0.131 A 
BRANCH  35  36
ATOM     36  O   UNL     1      -7.224   2.596  -0.638  0.00  0.00    -0.494 OA
ATOM     37  C   UNL     1      -8.516   2.710  -1.238  0.00  0.00    +0.277 C 
ENDBRANCH  35  36
BRANCH  32  38
ATOM     38  O   UNL     1      -6.652  -1.167   3.328  0.00  0.00    -0.495 OA
ATOM     39  C   UNL     1      -7.813  -1.935   3.654  0.00  0.00    +0.277 C 
ENDBRANCH  32  38
ENDBRANCH  28  30
ENDBRANCH  15  28
TORSDOF 5
