REMARK  Name = ZINC12403551
REMARK  12 active torsions:
REMARK  status: ('A' for Active; 'I' for Inactive)
REMARK    1  A    between atoms: C_1  and  C_2
REMARK    2  A    between atoms: C_2  and  C_3
REMARK    3  A    between atoms: C_2  and  C_4
REMARK    4  A    between atoms: C_2  and  C_5
REMARK    5  A    between atoms: C_8  and  O_12
REMARK    6  A    between atoms: O_12  and  C_13
REMARK    7  A    between atoms: C_13  and  C_14
REMARK    8  A    between atoms: N_16  and  N_17
REMARK    9  A    between atoms: N_17  and  C_18
REMARK   10  A    between atoms: C_18  and  N_20
REMARK   11  A    between atoms: C_21  and  C_23
REMARK   12  A    between atoms: C_26  and  N_29
REMARK                            x       y       z     vdW  Elec       q    Type
REMARK                         _______ _______ _______ _____ _____    ______ ____
ROOT
ATOM      1  C   UNL     1       2.746  -3.029  -6.702  0.00  0.00    +0.267 C 
ATOM      2  O   UNL     1       3.894  -2.644  -6.763  0.00  0.00    -0.271 OA
ATOM      3  N   UNL     1       2.242  -3.805  -7.682  0.00  0.00    -0.232 N 
ATOM      4  H   UNL     1       1.323  -4.113  -7.632  0.00  0.00    +0.173 HD
ENDROOT
BRANCH   3   5
ATOM      5  N   UNL     1       3.044  -4.166  -8.772  0.00  0.00    -0.245 N 
ATOM      6  H   UNL     1       3.963  -3.858  -8.821  0.00  0.00    +0.172 HD
BRANCH   5   7
ATOM      7  C   UNL     1       2.540  -4.942  -9.752  0.00  0.00    +0.153 C 
ATOM      8  S   UNL     1       3.521  -5.383 -11.084  0.00  0.00    -0.017 S 
BRANCH   7   9
ATOM      9  N   UNL     1       1.264  -5.370  -9.683  0.00  0.00    -0.263 N 
ATOM     10  C   UNL     1       0.760  -6.145 -10.664  0.00  0.00    +0.250 C 
ATOM     11  O   UNL     1       1.456  -6.459 -11.609  0.00  0.00    -0.270 OA
ATOM     12  H   UNL     1       0.708  -5.120  -8.929  0.00  0.00    +0.157 HD
BRANCH  10  13
ATOM     13  C   UNL     1      -0.639  -6.615 -10.588  0.00  0.00    +0.037 A 
ATOM     14  C   UNL     1      -1.444  -6.252  -9.506  0.00  0.00    +0.015 A 
ATOM     15  C   UNL     1      -2.749  -6.694  -9.442  0.00  0.00    +0.033 A 
ATOM     16  C   UNL     1      -3.261  -7.495 -10.447  0.00  0.00    +0.126 A 
ATOM     17  C   UNL     1      -2.470  -7.858 -11.522  0.00  0.00    +0.033 A 
ATOM     18  C   UNL     1      -1.165  -7.418 -11.602  0.00  0.00    +0.015 A 
BRANCH  16  19
ATOM     19  N   UNL     1      -4.663  -7.965 -10.372  0.00  0.00    +0.056 N 
ATOM     20  O   UNL     1      -5.357  -7.649  -9.434  0.00  0.00    -0.126 OA
ATOM     21  O   UNL     1      -5.114  -8.665 -11.248  0.00  0.00    -0.126 OA
ENDBRANCH  16  19
ENDBRANCH  10  13
ENDBRANCH   7   9
ENDBRANCH   5   7
ENDBRANCH   3   5
BRANCH   1  22
ATOM     22  C   UNL     1       1.883  -2.640  -5.529  0.00  0.00    +0.326 C 
BRANCH  22  23
ATOM     23  O   UNL     1       2.638  -1.823  -4.633  0.00  0.00    -0.482 OA
BRANCH  23  27
ATOM     24  C   UNL     1       0.707  -0.490  -1.238  0.00  0.00    -0.041 A 
ATOM     25  C   UNL     1       0.035  -1.284  -2.148  0.00  0.00    +0.008 A 
ATOM     26  C   UNL     1       0.679  -1.732  -3.285  0.00  0.00    +0.047 A 
ATOM     27  C   UNL     1       2.002  -1.383  -3.514  0.00  0.00    +0.135 A 
ATOM     28  C   UNL     1       2.675  -0.586  -2.600  0.00  0.00    +0.060 A 
ATOM     29  C   UNL     1       2.024  -0.136  -1.466  0.00  0.00    +0.023 A 
ATOM     30 BR   UNL     1       4.479  -0.108  -2.908  0.00  0.00    -0.047 Br
BRANCH  24  32
ATOM     31  C   UNL     1      -0.019   1.526   0.010  0.00  0.00    +0.015 C 
ATOM     32  C   UNL     1       0.002  -0.004   0.002  0.00  0.00    -0.013 C 
ATOM     33  C   UNL     1       0.742  -0.511   1.242  0.00  0.00    +0.015 C 
ATOM     34  C   UNL     1      -1.433  -0.534   0.013  0.00  0.00    +0.015 C 
ENDBRANCH  24  32
ENDBRANCH  23  27
ENDBRANCH  22  23
ENDBRANCH   1  22
TORSDOF 9
