REMARK  Name = ZINC05774132
REMARK  4 active torsions:
REMARK  status: ('A' for Active; 'I' for Inactive)
REMARK    1  A    between atoms: C_4  and  N_7
REMARK    2  A    between atoms: N_7  and  C_8
REMARK    3  A    between atoms: N_7  and  S_14
REMARK    4  A    between atoms: S_14  and  C_17
REMARK                            x       y       z     vdW  Elec       q    Type
REMARK                         _______ _______ _______ _____ _____    ______ ____
ROOT
ATOM      1  N   UNL     1       3.578  -0.626  -0.097  0.00  0.00    -0.172 N 
ENDROOT
BRANCH   1   5
ATOM      2  C   UNL     1      -0.045   1.402  -0.414  0.00  0.00    +0.000 A 
ATOM      3  C   UNL     1       0.411   0.995   0.827  0.00  0.00    +0.002 A 
ATOM      4  C   UNL     1       1.612   0.322   0.935  0.00  0.00    +0.025 A 
ATOM      5  C   UNL     1       2.362   0.054  -0.203  0.00  0.00    +0.057 A 
ATOM      6  C   UNL     1       1.901   0.465  -1.448  0.00  0.00    +0.025 A 
ATOM      7  C   UNL     1       0.699   1.137  -1.549  0.00  0.00    +0.002 A 
ENDBRANCH   1   5
BRANCH   1   8
ATOM      8  C   UNL     1       3.623  -1.888   0.500  0.00  0.00    +0.057 A 
ATOM      9  C   UNL     1       4.797  -2.338   1.091  0.00  0.00    +0.025 A 
ATOM     10  C   UNL     1       4.835  -3.584   1.686  0.00  0.00    +0.002 A 
ATOM     11  C   UNL     1       3.711  -4.388   1.684  0.00  0.00    +0.000 A 
ATOM     12  C   UNL     1       2.541  -3.946   1.092  0.00  0.00    +0.002 A 
ATOM     13  C   UNL     1       2.494  -2.698   0.501  0.00  0.00    +0.025 A 
ENDBRANCH   1   8
BRANCH   1  14
ATOM     14  S   UNL     1       4.966   0.064  -0.679  0.00  0.00    +0.080 S 
ATOM     15  O   UNL     1       5.802  -1.003  -1.106  0.00  0.00    -0.149 OA
ATOM     16  O   UNL     1       4.565   1.113  -1.549  0.00  0.00    -0.149 OA
BRANCH  14  17
ATOM     17  C   UNL     1       5.781   0.826   0.685  0.00  0.00    +0.123 A 
ATOM     18  C   UNL     1       6.980   0.316   1.147  0.00  0.00    +0.030 A 
ATOM     19  C   UNL     1       7.621   0.916   2.215  0.00  0.00    +0.002 A 
ATOM     20  C   UNL     1       7.059   2.021   2.827  0.00  0.00    +0.001 A 
ATOM     21  C   UNL     1       5.858   2.528   2.369  0.00  0.00    +0.017 A 
ATOM     22  C   UNL     1       5.218   1.931   1.298  0.00  0.00    +0.044 A 
ATOM     23 BR   UNL     1       3.574   2.624   0.671  0.00  0.00    -0.048 Br
ENDBRANCH  14  17
ENDBRANCH   1  14
TORSDOF 4
