REMARK  Name = ZINC03217473
REMARK  6 active torsions:
REMARK  status: ('A' for Active; 'I' for Inactive)
REMARK    1  A    between atoms: C_3  and  C_10
REMARK    2  A    between atoms: C_5  and  N_7
REMARK    3  A    between atoms: C_13  and  C_15
REMARK    4  A    between atoms: N_16  and  N_17
REMARK    5  A    between atoms: C_18  and  C_20
REMARK    6  A    between atoms: C_23  and  O_27
REMARK                            x       y       z     vdW  Elec       q    Type
REMARK                         _______ _______ _______ _____ _____    ______ ____
ROOT
ATOM      1  C   UNL     1       7.148   2.350  -0.061  0.00  0.00    +0.176 C 
ATOM      2  N   UNL     1       7.657   1.123  -0.078  0.00  0.00    -0.184 NA
ENDROOT
BRANCH   1   6
ATOM      3  C   UNL     1       3.614   2.112  -0.021  0.00  0.00    +0.136 A 
ATOM      4  C   UNL     1       3.737   3.523  -0.010  0.00  0.00    +0.050 A 
ATOM      5  C   UNL     1       5.062   3.818  -0.023  0.00  0.00    +0.051 A 
ATOM      6  C   UNL     1       5.772   2.530  -0.043  0.00  0.00    +0.148 A 
ATOM      7  O   UNL     1       4.837   1.555  -0.036  0.00  0.00    -0.454 OA
BRANCH   3  10
ATOM      8  C   UNL     1      -0.017   1.383   0.010  0.00  0.00    +0.003 A 
ATOM      9  C   UNL     1       1.164   2.090   0.002  0.00  0.00    +0.012 A 
ATOM     10  C   UNL     1       2.390   1.397  -0.013  0.00  0.00    +0.019 A 
ATOM     11  C   UNL     1       2.390  -0.011  -0.021  0.00  0.00    +0.044 A 
ATOM     12  C   UNL     1       1.207  -0.692  -0.013  0.00  0.00    +0.127 A 
ATOM     13  C   UNL     1       0.002  -0.004   0.002  0.00  0.00    +0.033 A 
BRANCH  12  14
ATOM     14  N   UNL     1       1.209  -2.172  -0.021  0.00  0.00    +0.056 N 
ATOM     15  O   UNL     1       2.351  -2.829  -0.035  0.00  0.00    -0.126 OA
ATOM     16  O   UNL     1       0.070  -2.832  -0.014  0.00  0.00    -0.126 OA
ENDBRANCH  12  14
ENDBRANCH   3  10
ENDBRANCH   1   6
BRANCH   2  17
ATOM     17  N   UNL     1       8.936   0.956  -0.095  0.00  0.00    -0.203 N 
ATOM     18  C   UNL     1       9.453  -0.289  -0.113  0.00  0.00    +0.263 C 
ATOM     19  O   UNL     1       8.714  -1.253  -0.113  0.00  0.00    -0.268 OA
ATOM     20  H   UNL     1       9.526   1.726  -0.095  0.00  0.00    +0.178 HD
BRANCH  18  21
ATOM     21  C   UNL     1      10.914  -0.480  -0.132  0.00  0.00    +0.041 A 
ATOM     22  C   UNL     1      11.767   0.629  -0.126  0.00  0.00    +0.032 A 
ATOM     23  C   UNL     1      13.132   0.445  -0.143  0.00  0.00    +0.061 A 
ATOM     24  C   UNL     1      13.662  -0.840  -0.168  0.00  0.00    +0.145 A 
ATOM     25  C   UNL     1      12.818  -1.946  -0.174  0.00  0.00    +0.061 A 
ATOM     26  C   UNL     1      11.452  -1.771  -0.150  0.00  0.00    +0.032 A 
ATOM     27 BR   UNL     1      13.547  -3.690  -0.207  0.00  0.00    -0.046 Br
ATOM     28 BR   UNL     1      14.285   1.944  -0.136  0.00  0.00    -0.046 Br
BRANCH  24  29
ATOM     29  O   UNL     1      15.008  -1.016  -0.186  0.00  0.00    -0.505 OA
ATOM     30  H   UNL     1      15.408  -1.080   0.692  0.00  0.00    +0.292 HD
ENDBRANCH  24  29
ENDBRANCH  18  21
ENDBRANCH   2  17
TORSDOF 6
