REMARK  Name = ZINC54652682
REMARK  6 active torsions:
REMARK  status: ('A' for Active; 'I' for Inactive)
REMARK    1  A    between atoms: C_1  and  C_2
REMARK    2  A    between atoms: C_5  and  N_8
REMARK    3  A    between atoms: C_26  and  C_36
REMARK    4  A    between atoms: C_39  and  O_44
REMARK    5  A    between atoms: C_40  and  O_42
REMARK    6  A    between atoms: O_42  and  C_43
REMARK                            x       y       z     vdW  Elec       q    Type
REMARK                         _______ _______ _______ _____ _____    ______ ____
ROOT
ATOM      1  N   UNL     1       0.370  -3.945   0.899  0.00  0.00    -0.210 N 
ATOM      2  C   UNL     1       0.133  -4.776   1.964  0.00  0.00    +0.230 C 
ATOM      3  O   UNL     1      -0.431  -4.497   3.000  0.00  0.00    -0.274 OA
ATOM      4  C   UNL     1       0.720  -6.109   1.575  0.00  0.00    +0.091 C 
ATOM      5  C   UNL     1      -0.004  -7.414   1.927  0.00  0.00    +0.007 C 
ATOM      6  C   UNL     1       0.630  -8.256   0.712  0.00  0.00    +0.010 C 
ATOM      7  C   UNL     1       0.020  -7.358  -0.446  0.00  0.00    +0.016 C 
ATOM      8  C   UNL     1       0.308  -5.972   0.060  0.00  0.00    +0.092 C 
ATOM      9  C   UNL     1       0.705  -4.632  -0.256  0.00  0.00    +0.230 C 
ATOM     10  O   UNL     1       1.207  -4.208  -1.275  0.00  0.00    -0.274 OA
ATOM     11  C   UNL     1      -1.489  -7.425  -0.065  0.00  0.00    +0.061 C 
ATOM     12  C   UNL     1      -1.426  -7.547   1.489  0.00  0.00    +0.019 C 
ATOM     13  C   UNL     1      -2.676  -7.173   2.188  0.00  0.00    +0.063 C 
ATOM     14  C   UNL     1      -3.780  -8.043   1.634  0.00  0.00    +0.032 A 
ATOM     15  C   UNL     1      -3.804  -8.808   0.520  0.00  0.00    +0.087 A 
ATOM     16  N   UNL     1      -4.965  -9.515   0.329  0.00  0.00    -0.311 N 
ATOM     17  H   UNL     1      -5.053 -10.107  -0.434  0.00  0.00    +0.170 HD
ATOM     18  C   UNL     1      -5.983  -9.387   1.202  0.00  0.00    +0.289 A 
ATOM     19  O   UNL     1      -7.074  -9.931   1.175  0.00  0.00    -0.260 OA
ATOM     20  S   UNL     1      -5.388  -8.297   2.336  0.00  0.00    -0.030 S 
ATOM     21  S   UNL     1      -2.397  -8.861  -0.666  0.00  0.00    -0.103 S 
ENDROOT
BRANCH   1  26
ATOM     22  C   UNL     1      -0.002   1.711   1.188  0.00  0.00    +0.044 C 
ATOM     23  C   UNL     1       0.097   0.209   1.111  0.00  0.00    -0.050 A 
ATOM     24  C   UNL     1       0.439  -0.400  -0.082  0.00  0.00    +0.005 A 
ATOM     25  C   UNL     1       0.530  -1.776  -0.156  0.00  0.00    +0.024 A 
ATOM     26  C   UNL     1       0.279  -2.548   0.970  0.00  0.00    +0.044 A 
ATOM     27  C   UNL     1      -0.063  -1.934   2.167  0.00  0.00    +0.024 A 
ATOM     28  C   UNL     1      -0.148  -0.557   2.236  0.00  0.00    +0.005 A 
ENDBRANCH   1  26
BRANCH  13  29
ATOM     29  C   UNL     1      -2.990  -5.721   1.936  0.00  0.00    -0.035 A 
ATOM     30  C   UNL     1      -3.403  -5.312   0.682  0.00  0.00    +0.008 A 
ATOM     31  C   UNL     1      -3.693  -3.982   0.446  0.00  0.00    +0.049 A 
ATOM     32  C   UNL     1      -3.570  -3.054   1.468  0.00  0.00    +0.158 A 
ATOM     33  C   UNL     1      -3.155  -3.465   2.730  0.00  0.00    +0.162 A 
ATOM     34  C   UNL     1      -2.871  -4.802   2.962  0.00  0.00    +0.053 A 
BRANCH  33  35
ATOM     35  O   UNL     1      -3.033  -2.558   3.736  0.00  0.00    -0.491 OA
ATOM     36  C   UNL     1      -2.602  -3.053   5.006  0.00  0.00    +0.277 C 
ENDBRANCH  33  35
BRANCH  32  37
ATOM     37  O   UNL     1      -3.854  -1.744   1.237  0.00  0.00    -0.503 OA
ATOM     38  H   UNL     1      -4.777  -1.507   1.400  0.00  0.00    +0.292 HD
ENDBRANCH  32  37
ENDBRANCH  13  29
TORSDOF 4
