REMARK  Name = ZINC33736253
REMARK  7 active torsions:
REMARK  status: ('A' for Active; 'I' for Inactive)
REMARK    1  A    between atoms: C_1  and  C_2
REMARK    2  A    between atoms: C_2  and  C_3
REMARK    3  A    between atoms: C_6  and  N_9
REMARK    4  A    between atoms: C_10  and  C_20
REMARK    5  A    between atoms: C_15  and  C_18
REMARK    6  A    between atoms: N_22  and  C_32
REMARK    7  A    between atoms: C_24  and  C_25
REMARK                            x       y       z     vdW  Elec       q    Type
REMARK                         _______ _______ _______ _____ _____    ______ ____
ROOT
ATOM      1  N   UNL     1      -2.720   2.894   4.671  0.00  0.00    -0.270 N 
ATOM      2  C   UNL     1      -2.212   4.132   5.273  0.00  0.00    +0.201 C 
ATOM      3  N   UNL     1      -2.023   3.946   6.709  0.00  0.00    -0.288 N 
ATOM      4  C   UNL     1      -2.805   3.093   7.400  0.00  0.00    +0.258 C 
ATOM      5  O   UNL     1      -2.666   2.974   8.604  0.00  0.00    -0.269 OA
ATOM      6  C   UNL     1      -3.822   2.310   6.695  0.00  0.00    +0.142 C 
ATOM      7  C   UNL     1      -3.744   2.227   5.294  0.00  0.00    +0.103 C 
ATOM      8  S   UNL     1      -4.921   1.296   4.370  0.00  0.00    -0.033 SA
ATOM      9  H   UNL     1      -1.237   4.506   7.237  0.00  0.00    +0.151 HD
ENDROOT
BRANCH   1  13
ATOM     10  C   UNL     1      -1.070   1.422   1.141  0.00  0.00    -0.048 A 
ATOM     11  C   UNL     1      -0.939   0.704   2.316  0.00  0.00    +0.005 A 
ATOM     12  C   UNL     1      -1.480   1.192   3.489  0.00  0.00    +0.024 A 
ATOM     13  C   UNL     1      -2.166   2.400   3.486  0.00  0.00    +0.036 A 
ATOM     14  C   UNL     1      -2.301   3.115   2.303  0.00  0.00    +0.024 A 
ATOM     15  C   UNL     1      -1.753   2.624   1.134  0.00  0.00    +0.005 A 
BRANCH  10  17
ATOM     16  C   UNL     1       0.958   1.408  -0.286  0.00  0.00    +0.009 C 
ATOM     17  C   UNL     1      -0.474   0.889  -0.137  0.00  0.00    +0.032 C 
ENDBRANCH  10  17
ENDBRANCH   1  13
BRANCH   2  18
ATOM     18  C   UNL     1      -3.202   5.244   5.041  0.00  0.00    +0.037 A 
ATOM     19  C   UNL     1      -4.527   5.097   4.826  0.00  0.00    +0.122 A 
ATOM     20  N   UNL     1      -5.063   6.335   4.667  0.00  0.00    -0.239 N 
ATOM     21  N   UNL     1      -4.029   7.273   4.780  0.00  0.00    -0.166 NA
ATOM     22  C   UNL     1      -2.907   6.622   5.005  0.00  0.00    +0.100 A 
BRANCH  22  23
ATOM     23  C   UNL     1      -1.567   7.231   5.189  0.00  0.00    +0.003 A 
ATOM     24  C   UNL     1      -1.420   8.372   5.976  0.00  0.00    +0.011 A 
ATOM     25  C   UNL     1      -0.171   8.932   6.148  0.00  0.00    +0.020 A 
ATOM     26  C   UNL     1       0.934   8.369   5.532  0.00  0.00    +0.041 A 
ATOM     27  C   UNL     1       0.792   7.239   4.744  0.00  0.00    +0.020 A 
ATOM     28  C   UNL     1      -0.452   6.669   4.570  0.00  0.00    +0.011 A 
ATOM     29 CL   UNL     1       2.502   9.082   5.747  0.00  0.00    -0.084 Cl
ENDBRANCH  22  23
BRANCH  20  30
ATOM     30  C   UNL     1      -6.413   6.623   4.427  0.00  0.00    +0.065 A 
ATOM     31  C   UNL     1      -7.338   5.592   4.332  0.00  0.00    +0.028 A 
ATOM     32  C   UNL     1      -8.669   5.880   4.101  0.00  0.00    +0.002 A 
ATOM     33  C   UNL     1      -9.079   7.192   3.953  0.00  0.00    +0.000 A 
ATOM     34  C   UNL     1      -8.159   8.221   4.042  0.00  0.00    +0.002 A 
ATOM     35  C   UNL     1      -6.828   7.940   4.278  0.00  0.00    +0.028 A 
ENDBRANCH  20  30
ENDBRANCH   2  18
BRANCH   6  36
ATOM     36  C   UNL     1      -4.869   1.647   7.413  0.00  0.00    +0.107 C 
ATOM     37  N   UNL     1      -5.699   1.122   7.984  0.00  0.00    -0.191 NA
ENDBRANCH   6  36
TORSDOF 6
