REMARK  Name = ZINC66650296
REMARK  8 active torsions:
REMARK  status: ('A' for Active; 'I' for Inactive)
REMARK    1  A    between atoms: C_1  and  C_2
REMARK    2  A    between atoms: C_8  and  C_13
REMARK    3  A    between atoms: C_10  and  C_12
REMARK    4  A    between atoms: N_15  and  C_16
REMARK    5  A    between atoms: C_16  and  C_17
REMARK    6  A    between atoms: N_21  and  C_22
REMARK    7  A    between atoms: C_22  and  C_23
REMARK    8  A    between atoms: C_22  and  C_24
REMARK                            x       y       z     vdW  Elec       q    Type
REMARK                         _______ _______ _______ _____ _____    ______ ____
ROOT
ATOM      1  C   UNL     1       0.050  -2.150   3.699  0.00  0.00    +0.245 C 
ATOM      2  O   UNL     1       0.126  -0.938   3.758  0.00  0.00    -0.270 OA
ATOM      3  N   UNL     1      -0.037  -2.876   4.831  0.00  0.00    -0.304 N 
ATOM      4  H   UNL     1      -0.098  -3.843   4.784  0.00  0.00    +0.149 HD
ENDROOT
BRANCH   1  12
ATOM      5  C   UNL     1      -0.089   1.501   0.011  0.00  0.00    +0.044 C 
ATOM      6  C   UNL     1      -0.049  -0.005   0.003  0.00  0.00    -0.050 A 
ATOM      7  C   UNL     1      -0.045  -0.686  -1.213  0.00  0.00    +0.005 A 
ATOM      8  C   UNL     1      -0.010  -2.046  -1.256  0.00  0.00    +0.028 A 
ATOM      9  C   UNL     1       0.023  -2.781  -0.057  0.00  0.00    +0.072 A 
ATOM     10  C   UNL     1       0.019  -2.084   1.177  0.00  0.00    +0.013 A 
ATOM     11  C   UNL     1      -0.013  -0.683   1.183  0.00  0.00    +0.014 A 
ATOM     12  C   UNL     1       0.052  -2.827   2.384  0.00  0.00    +0.048 A 
ATOM     13  C   UNL     1       0.087  -4.213   2.291  0.00  0.00    +0.036 A 
ATOM     14  C   UNL     1       0.088  -4.817   1.036  0.00  0.00    +0.040 A 
ATOM     15  N   UNL     1       0.058  -4.116  -0.070  0.00  0.00    -0.252 NA
ATOM     16  C   UNL     1       0.127  -6.321   0.949  0.00  0.00    +0.065 C 
ENDBRANCH   1  12
BRANCH   3  17
ATOM     17  C   UNL     1      -0.039  -2.205   6.133  0.00  0.00    +0.181 C 
BRANCH  17  18
ATOM     18  C   UNL     1      -0.143  -3.234   7.229  0.00  0.00    +0.149 A 
ATOM     19  N   UNL     1      -0.214  -4.515   7.055  0.00  0.00    -0.157 NA
ATOM     20  N   UNL     1      -0.300  -5.122   8.315  0.00  0.00    -0.254 N 
ATOM     21  C   UNL     1      -0.276  -4.138   9.237  0.00  0.00    +0.176 A 
ATOM     22  N   UNL     1      -0.173  -2.968   8.576  0.00  0.00    -0.303 N 
ATOM     23  S   UNL     1      -0.353  -4.338  10.936  0.00  0.00    -0.011 S 
ATOM     24  H   UNL     1      -0.365  -6.074   8.491  0.00  0.00    +0.191 HD
BRANCH  22  25
ATOM     25  C   UNL     1      -0.108  -1.639   9.188  0.00  0.00    +0.085 C 
ATOM     26  C   UNL     1      -1.373  -1.395  10.013  0.00  0.00    +0.030 C 
ATOM     27  C   UNL     1       1.118  -1.557  10.100  0.00  0.00    +0.030 C 
ENDBRANCH  22  25
ENDBRANCH  17  18
ENDBRANCH   3  17
TORSDOF 4
