REMARK  Name = ZINC12974323
REMARK  6 active torsions:
REMARK  status: ('A' for Active; 'I' for Inactive)
REMARK    1  A    between atoms: C_1  and  C_2
REMARK    2  A    between atoms: C_7  and  C_8
REMARK    3  A    between atoms: C_10  and  C_17
REMARK    4  A    between atoms: C_11  and  C_16
REMARK    5  A    between atoms: C_17  and  O_19
REMARK    6  A    between atoms: O_19  and  C_20
REMARK                            x       y       z     vdW  Elec       q    Type
REMARK                         _______ _______ _______ _____ _____    ______ ____
ROOT
ATOM      1  C   UNL     1      -2.654   1.450  -0.196  0.00  0.00    +0.141 C 
ATOM      2  C   UNL     1      -2.232   2.541  -1.160  0.00  0.00    +0.078 C 
ATOM      3  C   UNL     1      -3.197   3.335  -1.672  0.00  0.00    +0.019 C 
ATOM      4  N   UNL     1      -4.507   3.161  -1.332  0.00  0.00    -0.300 N 
ATOM      5  C   UNL     1      -4.935   2.216  -0.486  0.00  0.00    +0.135 C 
ATOM      6  S   UNL     1      -6.609   2.107  -0.145  0.00  0.00    -0.019 S 
ATOM      7  N   UNL     1      -4.092   1.347   0.105  0.00  0.00    -0.315 N 
ATOM      8  C   UNL     1      -2.821   4.432  -2.635  0.00  0.00    +0.061 C 
ATOM      9  H   UNL     1      -5.165   3.756  -1.725  0.00  0.00    +0.154 HD
ATOM     10  H   UNL     1      -4.424   0.670   0.714  0.00  0.00    +0.149 HD
ENDROOT
BRANCH   1  17
ATOM     11  C   UNL     1      -2.484  -0.684   1.744  0.00  0.00    +0.044 C 
ATOM     12  C   UNL     1      -1.841   0.648   2.031  0.00  0.00    -0.045 A 
ATOM     13  C   UNL     1      -1.164   0.847   3.220  0.00  0.00    +0.004 A 
ATOM     14  C   UNL     1      -0.574   2.069   3.483  0.00  0.00    +0.000 A 
ATOM     15  C   UNL     1      -0.660   3.092   2.557  0.00  0.00    +0.000 A 
ATOM     16  C   UNL     1      -1.335   2.893   1.368  0.00  0.00    +0.006 A 
ATOM     17  C   UNL     1      -1.922   1.669   1.103  0.00  0.00    -0.020 A 
ENDBRANCH   1  17
BRANCH   2  18
ATOM     18  C   UNL     1      -0.874   2.720  -1.511  0.00  0.00    +0.338 C 
ATOM     19  O   UNL     1      -0.551   3.635  -2.247  0.00  0.00    -0.245 OA
BRANCH  18  20
ATOM     20  O   UNL     1       0.065   1.879  -1.030  0.00  0.00    -0.465 OA
ATOM     21  C   UNL     1       1.427   2.184  -1.334  0.00  0.00    +0.280 C 
ENDBRANCH  18  20
ENDBRANCH   2  18
TORSDOF 3
