REMARK  Name = ZINC66671745
REMARK  8 active torsions:
REMARK  status: ('A' for Active; 'I' for Inactive)
REMARK    1  A    between atoms: C_1  and  C_2
REMARK    2  A    between atoms: C_2  and  C_3
REMARK    3  A    between atoms: C_3  and  O_4
REMARK    4  A    between atoms: O_4  and  C_5
REMARK    5  A    between atoms: C_8  and  C_11
REMARK    6  A    between atoms: C_11  and  N_12
REMARK    7  A    between atoms: N_15  and  C_16
REMARK    8  A    between atoms: C_20  and  C_22
REMARK                            x       y       z     vdW  Elec       q    Type
REMARK                         _______ _______ _______ _____ _____    ______ ____
ROOT
ATOM      1  N   UNL     1       4.764  -4.558   5.223  0.00  0.00    -0.295 N 
ATOM      2  C   UNL     1       5.598  -5.095   6.136  0.00  0.00    +0.304 C 
ATOM      3  O   UNL     1       5.172  -5.431   7.224  0.00  0.00    -0.252 OA
ATOM      4  N   UNL     1       6.903  -5.259   5.843  0.00  0.00    -0.269 N 
ATOM      5  H   UNL     1       5.104  -4.290   4.355  0.00  0.00    +0.151 HD
ATOM      6  H   UNL     1       7.230  -5.054   4.953  0.00  0.00    +0.156 HD
ENDROOT
BRANCH   4   7
ATOM      7  C   UNL     1       7.787  -5.725   6.823  0.00  0.00    +0.035 A 
ATOM      8  C   UNL     1       7.359  -6.663   7.755  0.00  0.00    +0.023 A 
ATOM      9  C   UNL     1       8.229  -7.126   8.724  0.00  0.00    +0.002 A 
ATOM     10  C   UNL     1       9.527  -6.659   8.772  0.00  0.00    +0.010 A 
ATOM     11  C   UNL     1       9.965  -5.718   7.841  0.00  0.00    +0.004 A 
ATOM     12  C   UNL     1       9.091  -5.256   6.860  0.00  0.00    +0.033 A 
BRANCH  11  13
ATOM     13  C   UNL     1      11.360  -5.215   7.891  0.00  0.00    +0.091 A 
ATOM     14  C   UNL     1      12.247  -5.696   8.883  0.00  0.00    +0.035 A 
ATOM     15  C   UNL     1      13.521  -5.211   8.898  0.00  0.00    +0.073 A 
ATOM     16  C   UNL     1      13.877  -4.255   7.920  0.00  0.00    +0.265 A 
ATOM     17  O   UNL     1      15.006  -3.793   7.895  0.00  0.00    -0.266 OA
ATOM     18  N   UNL     1      12.961  -3.859   7.017  0.00  0.00    -0.243 N 
ATOM     19  H   UNL     1      13.212  -3.203   6.348  0.00  0.00    +0.192 HD
ATOM     20  N   UNL     1      11.767  -4.329   7.013  0.00  0.00    -0.171 NA
ENDBRANCH  11  13
ENDBRANCH   4   7
BRANCH   1  21
ATOM     21  C   UNL     1       3.345  -4.380   5.541  0.00  0.00    +0.142 C 
BRANCH  21  25
ATOM     22  C   UNL     1       1.379  -2.581   2.259  0.00  0.00    +0.215 A 
ATOM     23  C   UNL     1       1.436  -3.968   2.314  0.00  0.00    +0.067 A 
ATOM     24  C   UNL     1       2.076  -4.573   3.382  0.00  0.00    +0.012 A 
ATOM     25  C   UNL     1       2.639  -3.766   4.361  0.00  0.00    -0.012 A 
ATOM     26  C   UNL     1       2.544  -2.394   4.241  0.00  0.00    +0.119 A 
ATOM     27  N   UNL     1       1.931  -1.845   3.209  0.00  0.00    -0.221 NA
BRANCH  22  28
ATOM     28  O   UNL     1       0.754  -1.976   1.218  0.00  0.00    -0.476 OA
BRANCH  28  29
ATOM     29  C   UNL     1       0.734  -0.547   1.215  0.00  0.00    +0.230 C 
BRANCH  29  31
ATOM     30  C   UNL     1      -0.029   1.481  -0.029  0.00  0.00    +0.007 C 
ATOM     31  C   UNL     1      -0.007  -0.049  -0.027  0.00  0.00    +0.038 C 
ENDBRANCH  29  31
ENDBRANCH  28  29
ENDBRANCH  22  28
ENDBRANCH  21  25
ENDBRANCH   1  21
TORSDOF 7
