REMARK  Name = ZINC09847158
REMARK  6 active torsions:
REMARK  status: ('A' for Active; 'I' for Inactive)
REMARK    1  A    between atoms: C_1  and  S_2
REMARK    2  A    between atoms: S_2  and  N_5
REMARK    3  A    between atoms: N_10  and  C_11
REMARK    4  A    between atoms: C_11  and  C_12
REMARK    5  A    between atoms: N_20  and  C_21
REMARK    6  A    between atoms: C_21  and  C_22
REMARK                            x       y       z     vdW  Elec       q    Type
REMARK                         _______ _______ _______ _____ _____    ______ ____
ROOT
ATOM      1  N   UNL     1       0.650  -2.088  -0.016  0.00  0.00    -0.097 N 
ATOM      2  C   UNL     1      -0.699  -2.057  -0.003  0.00  0.00    +0.238 A 
ATOM      3  N   UNL     1      -1.076  -0.796   0.008  0.00  0.00    -0.179 NA
ATOM      4  C   UNL     1       0.002  -0.004   0.002  0.00  0.00    +0.238 A 
ATOM      5  N   UNL     1       1.079  -0.751  -0.018  0.00  0.00    -0.111 NA
ATOM      6  N   UNL     1      -0.017   1.391   0.010  0.00  0.00    -0.308 N 
ATOM      7  N   UNL     1      -1.537  -3.156  -0.001  0.00  0.00    -0.308 N 
ATOM      8  H   UNL     1       0.817   1.888   0.004  0.00  0.00    +0.149 HD
ATOM      9  H   UNL     1      -1.164  -4.052  -0.009  0.00  0.00    +0.149 HD
ENDROOT
BRANCH   1  11
ATOM     10  C   UNL     1       1.864  -3.807  -1.791  0.00  0.00    +0.223 C 
ATOM     11  S   UNL     1       1.610  -3.437  -0.033  0.00  0.00    +0.070 S 
ATOM     12  O   UNL     1       2.832  -3.020   0.561  0.00  0.00    -0.152 OA
ATOM     13  O   UNL     1       0.820  -4.452   0.571  0.00  0.00    -0.152 OA
ENDBRANCH   1  11
BRANCH   6  14
ATOM     14  C   UNL     1      -1.295   2.107   0.020  0.00  0.00    +0.142 C 
BRANCH  14  15
ATOM     15  C   UNL     1      -1.040   3.592   0.026  0.00  0.00    +0.006 A 
ATOM     16  C   UNL     1      -0.923   4.268   1.228  0.00  0.00    +0.047 A 
ATOM     17  C   UNL     1      -0.684   5.631   1.233  0.00  0.00    +0.020 A 
ATOM     18  C   UNL     1      -0.573   6.318   0.039  0.00  0.00    +0.003 A 
ATOM     19  C   UNL     1      -0.695   5.644  -1.161  0.00  0.00    +0.020 A 
ATOM     20  C   UNL     1      -0.929   4.280  -1.168  0.00  0.00    +0.047 A 
ATOM     21 CL   UNL     1      -1.083   3.433  -2.676  0.00  0.00    -0.083 Cl
ATOM     22 CL   UNL     1      -1.070   3.406   2.727  0.00  0.00    -0.083 Cl
ENDBRANCH  14  15
ENDBRANCH   6  14
BRANCH   7  23
ATOM     23  C   UNL     1      -2.990  -2.970   0.013  0.00  0.00    +0.142 C 
BRANCH  23  24
ATOM     24  C   UNL     1      -3.670  -4.314   0.013  0.00  0.00    +0.006 A 
ATOM     25  C   UNL     1      -3.998  -4.923  -1.185  0.00  0.00    +0.047 A 
ATOM     26  C   UNL     1      -4.619  -6.160  -1.185  0.00  0.00    +0.020 A 
ATOM     27  C   UNL     1      -4.918  -6.783   0.011  0.00  0.00    +0.003 A 
ATOM     28  C   UNL     1      -4.595  -6.173   1.209  0.00  0.00    +0.020 A 
ATOM     29  C   UNL     1      -3.971  -4.939   1.210  0.00  0.00    +0.047 A 
ATOM     30 CL   UNL     1      -3.566  -4.172   2.714  0.00  0.00    -0.083 Cl
ATOM     31 CL   UNL     1      -3.628  -4.138  -2.688  0.00  0.00    -0.083 Cl
ENDBRANCH  23  24
ENDBRANCH   7  23
TORSDOF 5
