REMARK  Name = ZINC25148032
REMARK  11 active torsions:
REMARK  status: ('A' for Active; 'I' for Inactive)
REMARK    1  A    between atoms: C_1  and  C_2
REMARK    2  A    between atoms: C_2  and  N_28
REMARK    3  A    between atoms: C_3  and  C_4
REMARK    4  A    between atoms: C_3  and  C_6
REMARK    5  A    between atoms: C_6  and  C_8
REMARK    6  A    between atoms: C_8  and  O_9
REMARK    7  A    between atoms: O_9  and  C_10
REMARK    8  A    between atoms: C_10  and  C_12
REMARK    9  A    between atoms: C_17  and  N_18
REMARK   10  A    between atoms: N_18  and  S_19
REMARK   11  A    between atoms: S_19  and  C_22
REMARK                            x       y       z     vdW  Elec       q    Type
REMARK                         _______ _______ _______ _____ _____    ______ ____
ROOT
ATOM      1  C   UNL     1      -2.604   0.468   0.021  0.00  0.00    +0.083 A 
ATOM      2  C   UNL     1      -3.877   1.007  -0.189  0.00  0.00    +0.017 A 
ATOM      3  C   UNL     1      -4.060   1.984  -1.142  0.00  0.00    +0.001 A 
ATOM      4  C   UNL     1      -2.989   2.438  -1.895  0.00  0.00    +0.002 A 
ATOM      5  C   UNL     1      -1.726   1.921  -1.696  0.00  0.00    +0.027 A 
ATOM      6  C   UNL     1      -1.521   0.930  -0.744  0.00  0.00    +0.088 A 
ENDROOT
BRANCH   1   7
ATOM      7  C   UNL     1      -2.400  -0.577   1.039  0.00  0.00    +0.342 C 
ATOM      8  O   UNL     1      -1.291  -1.042   1.218  0.00  0.00    -0.245 OA
BRANCH   7   9
ATOM      9  O   UNL     1      -3.442  -1.017   1.770  0.00  0.00    -0.453 OA
BRANCH   9  10
ATOM     10  C   UNL     1      -3.167  -2.049   2.755  0.00  0.00    +0.312 C 
BRANCH  10  11
ATOM     11  C   UNL     1      -4.443  -2.412   3.471  0.00  0.00    +0.212 C 
ATOM     12  O   UNL     1      -5.482  -1.857   3.179  0.00  0.00    -0.288 OA
BRANCH  11  15
ATOM     13  C   UNL     1      -6.769  -2.746   5.085  0.00  0.00    +0.061 C 
ATOM     14  C   UNL     1      -5.570  -3.647   5.226  0.00  0.00    +0.019 C 
ATOM     15  C   UNL     1      -4.429  -3.402   4.483  0.00  0.00    +0.114 C 
BRANCH  14  16
ATOM     16  N   UNL     1      -5.608  -4.693   6.078  0.00  0.00    -0.360 N 
ATOM     17  H   UNL     1      -4.732  -5.351   6.181  0.00  0.00    +0.142 HD
ATOM     18  H   UNL     1      -6.515  -4.888   6.669  0.00  0.00    +0.142 HD
ENDBRANCH  14  16
BRANCH  15  19
ATOM     19  C   UNL     1      -3.234  -4.150   4.737  0.00  0.00    +0.104 C 
ATOM     20  N   UNL     1      -2.287  -4.743   4.938  0.00  0.00    -0.191 NA
ENDBRANCH  15  19
ENDBRANCH  11  15
ENDBRANCH  10  11
ENDBRANCH   9  10
ENDBRANCH   7   9
ENDBRANCH   1   7
BRANCH   6  21
ATOM     21  N   UNL     1      -0.251   0.405  -0.546  0.00  0.00    -0.097 NA
BRANCH  21  22
ATOM     22  S   UNL     1       1.083   1.366  -0.740  0.00  0.00    +0.098 S 
ATOM     23  O   UNL     1       2.204   0.592  -0.336  0.00  0.00    -0.148 OA
ATOM     24  O   UNL     1       0.982   1.943  -2.035  0.00  0.00    -0.148 OA
BRANCH  22  25
ATOM     25  C   UNL     1       0.944   2.690   0.414  0.00  0.00    +0.149 A 
ATOM     26  C   UNL     1       1.393   2.760   1.690  0.00  0.00    +0.038 A 
ATOM     27  C   UNL     1       1.167   3.914   2.418  0.00  0.00    +0.025 A 
ATOM     28  C   UNL     1       0.503   4.941   1.832  0.00  0.00    +0.057 A 
ATOM     29  S   UNL     1       0.181   4.290   0.201  0.00  0.00    -0.061 S 
ATOM     30 BR   UNL     1       0.045   6.628   2.553  0.00  0.00    -0.043 Br
ENDBRANCH  22  25
ENDBRANCH  21  22
ENDBRANCH   6  21
TORSDOF 10
