REMARK  Name = ZINC32837623
REMARK  10 active torsions:
REMARK  status: ('A' for Active; 'I' for Inactive)
REMARK    1  A    between atoms: C_1  and  C_2
REMARK    2  A    between atoms: C_7  and  N_12
REMARK    3  A    between atoms: C_9  and  C_11
REMARK    4  A    between atoms: C_13  and  C_15
REMARK    5  A    between atoms: C_15  and  C_17
REMARK    6  A    between atoms: C_15  and  O_18
REMARK    7  A    between atoms: O_18  and  C_19
REMARK    8  A    between atoms: C_21  and  O_28
REMARK    9  A    between atoms: C_24  and  C_25
REMARK   10  A    between atoms: O_28  and  C_29
REMARK                            x       y       z     vdW  Elec       q    Type
REMARK                         _______ _______ _______ _____ _____    ______ ____
ROOT
ATOM      1  C   UNL     1      -0.027  -2.705   0.099  0.00  0.00    +0.255 C 
ATOM      2  C   UNL     1      -0.395  -2.839   1.578  0.00  0.00    +0.062 C 
ENDROOT
BRANCH   1   4
ATOM      3  N   UNL     1      -1.025  -4.854  -0.614  0.00  0.00    -0.309 N 
ATOM      4  C   UNL     1       0.072  -4.076  -0.520  0.00  0.00    +0.254 C 
ATOM      5  O   UNL     1       1.139  -4.479  -0.933  0.00  0.00    -0.272 OA
ATOM      6  H   UNL     1      -1.992  -4.488  -0.239  0.00  0.00    +0.149 HD
BRANCH   3  12
ATOM      7  C   UNL     1      -3.562  -8.398  -2.948  0.00  0.00    +0.008 C 
ATOM      8  C   UNL     1      -2.195  -7.988  -2.396  0.00  0.00    -0.009 C 
ATOM      9  C   UNL     1      -1.751  -8.996  -1.333  0.00  0.00    +0.003 C 
ATOM     10  C   UNL     1      -0.385  -8.586  -0.781  0.00  0.00    +0.002 C 
ATOM     11  C   UNL     1      -0.485  -7.194  -0.153  0.00  0.00    +0.022 C 
ATOM     12  C   UNL     1      -0.929  -6.186  -1.215  0.00  0.00    +0.076 C 
ATOM     13  C   UNL     1      -2.295  -6.596  -1.768  0.00  0.00    +0.009 C 
ATOM     14  C   UNL     1      -2.739  -5.588  -2.830  0.00  0.00    +0.009 C 
ENDBRANCH   3  12
ENDBRANCH   1   4
BRANCH   1  15
ATOM     15  O   UNL     1       1.230  -2.037  -0.021  0.00  0.00    -0.479 OA
BRANCH  15  16
ATOM     16  C   UNL     1       1.210  -0.680  -0.013  0.00  0.00    +0.137 A 
ATOM     17  C   UNL     1       0.024  -0.005   0.221  0.00  0.00    +0.092 A 
ATOM     18  C   UNL     1       0.006   1.382   0.229  0.00  0.00    +0.124 A 
ATOM     19  C   UNL     1       1.176   2.101   0.003  0.00  0.00    +0.046 A 
ATOM     20  C   UNL     1       2.360   1.441  -0.231  0.00  0.00    +0.020 A 
ATOM     21  C   UNL     1       2.390   0.043  -0.241  0.00  0.00    +0.078 A 
BRANCH  21  22
ATOM     22  C   UNL     1       3.656  -0.668  -0.491  0.00  0.00    +0.245 C 
ATOM     23  O   UNL     1       3.680  -1.884  -0.500  0.00  0.00    -0.270 OA
ATOM     24  N   UNL     1       4.788   0.030  -0.710  0.00  0.00    -0.325 N 
ATOM     25  H   UNL     1       5.734  -0.500  -0.897  0.00  0.00    +0.145 HD
ATOM     26  H   UNL     1       4.767   1.130  -0.702  0.00  0.00    +0.145 HD
ENDBRANCH  21  22
BRANCH  18  27
ATOM     27  O   UNL     1      -1.160   2.041   0.452  0.00  0.00    -0.495 OA
ATOM     28  C   UNL     1      -1.109   3.469   0.447  0.00  0.00    +0.277 C 
ENDBRANCH  18  27
ENDBRANCH  15  16
ENDBRANCH   1  15
TORSDOF 6
