REMARK  Name = ZINC32297192
REMARK  2 active torsions:
REMARK  status: ('A' for Active; 'I' for Inactive)
REMARK    1  A    between atoms: C_1  and  C_2
REMARK    2  A    between atoms: C_9  and  O_11
REMARK                            x       y       z     vdW  Elec       q    Type
REMARK                         _______ _______ _______ _____ _____    ______ ____
ROOT
ATOM      1  C   UNL     1       2.362   1.394  -3.693  0.00  0.00    +0.010 C 
ATOM      2  C   UNL     1       1.480   1.268  -2.449  0.00  0.00    +0.014 C 
ATOM      3  C   UNL     1       1.910   2.335  -1.423  0.00  0.00    +0.006 C 
ATOM      4  C   UNL     1       1.401   2.035  -0.000  0.00  0.00    +0.000 C 
ATOM      5  C   UNL     1      -0.019   1.538   0.011  0.00  0.00    +0.000 C 
ATOM      6  C   UNL     1       0.002  -0.004   0.002  0.00  0.00    +0.003 C 
ATOM      7  C   UNL     1       0.231  -0.548  -1.328  0.00  0.00    +0.031 C 
ATOM      8  C   UNL     1       1.598  -0.131  -1.907  0.00  0.00    +0.117 C 
ENDROOT
BRANCH   8   9
ATOM      9  O   UNL     1       1.966  -1.023  -2.961  0.00  0.00    -0.392 OA
ATOM     10  H   UNL     1       2.099  -2.095  -2.752  0.00  0.00    +0.210 HD
ENDBRANCH   8   9
TORSDOF 1
