REMARK  Name = ZINC21024747
REMARK  9 active torsions:
REMARK  status: ('A' for Active; 'I' for Inactive)
REMARK    1  A    between atoms: C_1  and  C_2
REMARK    2  A    between atoms: C_3  and  C_18
REMARK    3  A    between atoms: C_4  and  C_15
REMARK    4  A    between atoms: C_5  and  C_14
REMARK    5  A    between atoms: N_6  and  C_7
REMARK    6  A    between atoms: C_18  and  N_19
REMARK    7  A    between atoms: N_19  and  C_20
REMARK    8  A    between atoms: C_20  and  C_22
REMARK    9  A    between atoms: C_20  and  C_23
REMARK                            x       y       z     vdW  Elec       q    Type
REMARK                         _______ _______ _______ _____ _____    ______ ____
ROOT
ATOM      1  C   UNL     1       0.062  -3.292   1.656  0.00  0.00    +0.064 C 
ATOM      2  C   UNL     1       0.037  -2.115   0.715  0.00  0.00    +0.023 A 
ATOM      3  C   UNL     1       0.025  -2.189  -0.627  0.00  0.00    -0.029 A 
ATOM      4  C   UNL     1      -0.004  -0.807  -1.119  0.00  0.00    +0.085 A 
ATOM      5  C   UNL     1       0.002  -0.004   0.002  0.00  0.00    +0.035 A 
ATOM      6  N   UNL     1       0.023  -0.801   1.090  0.00  0.00    -0.317 N 
ATOM      7  C   UNL     1      -0.018   1.503   0.010  0.00  0.00    +0.065 C 
ENDROOT
BRANCH   6   8
ATOM      8  C   UNL     1       0.031  -0.346   2.416  0.00  0.00    +0.047 A 
ATOM      9  C   UNL     1       1.129  -0.591   3.229  0.00  0.00    +0.027 A 
ATOM     10  C   UNL     1       1.136  -0.138   4.534  0.00  0.00    +0.022 A 
ATOM     11  C   UNL     1       0.045   0.551   5.034  0.00  0.00    +0.041 A 
ATOM     12  C   UNL     1      -1.053   0.793   4.227  0.00  0.00    +0.022 A 
ATOM     13  C   UNL     1      -1.062   0.346   2.920  0.00  0.00    +0.027 A 
ATOM     14 CL   UNL     1       0.054   1.113   6.676  0.00  0.00    -0.084 Cl
ENDBRANCH   6   8
BRANCH   4  15
ATOM     15  C   UNL     1      -0.030  -0.367  -2.522  0.00  0.00    +0.388 C 
ATOM     16  O   UNL     1       1.011  -0.172  -3.118  0.00  0.00    -0.241 OA
ATOM     17  O   UNL     1      -1.209  -0.180  -3.148  0.00  0.00    -0.241 OA
ENDBRANCH   4  15
BRANCH   3  18
ATOM     18  C   UNL     1       0.033  -3.444  -1.461  0.00  0.00    -0.043 C 
BRANCH  18  19
ATOM     19  N   UNL     1      -1.349  -3.869  -1.719  0.00  0.00    +0.386 N 
ATOM     20  H   UNL     1      -1.856  -4.068  -0.763  0.00  0.00    -0.085 HD
ATOM     21  H   UNL     1      -1.883  -3.073  -2.259  0.00  0.00    -0.085 HD
BRANCH  19  22
ATOM     22  C   UNL     1      -1.381  -5.093  -2.532  0.00  0.00    -0.044 C 
ATOM     23  C   UNL     1      -1.288  -4.723  -4.013  0.00  0.00    -0.009 C 
BRANCH  22  24
ATOM     24  C   UNL     1      -2.670  -5.831  -2.278  0.00  0.00    -0.062 A 
ATOM     25  C   UNL     1      -3.852  -5.129  -2.136  0.00  0.00    +0.002 A 
ATOM     26  C   UNL     1      -5.035  -5.807  -1.908  0.00  0.00    +0.000 A 
ATOM     27  C   UNL     1      -5.035  -7.186  -1.812  0.00  0.00    +0.000 A 
ATOM     28  C   UNL     1      -3.851  -7.887  -1.949  0.00  0.00    +0.000 A 
ATOM     29  C   UNL     1      -2.669  -7.210  -2.182  0.00  0.00    +0.002 A 
ENDBRANCH  22  24
ENDBRANCH  19  22
ENDBRANCH  18  19
ENDBRANCH   3  18
TORSDOF 6
