REMARK  Name = ZINC65298008
REMARK  8 active torsions:
REMARK  status: ('A' for Active; 'I' for Inactive)
REMARK    1  A    between atoms: C_1  and  C_2
REMARK    2  A    between atoms: C_2  and  O_3
REMARK    3  A    between atoms: O_3  and  C_4
REMARK    4  A    between atoms: C_7  and  C_10
REMARK    5  A    between atoms: N_15  and  C_18
REMARK    6  A    between atoms: C_18  and  C_19
REMARK    7  A    between atoms: C_26  and  C_29
REMARK    8  A    between atoms: C_34  and  O_35
REMARK                            x       y       z     vdW  Elec       q    Type
REMARK                         _______ _______ _______ _____ _____    ______ ____
ROOT
ATOM      1  C   UNL     1       1.140  -6.030   1.762  0.00  0.00    +0.047 C 
ATOM      2  N   UNL     1       0.632  -6.784   0.861  0.00  0.00    -0.266 NA
ATOM      3  C   UNL     1       0.666  -8.241   0.897  0.00  0.00    +0.109 C 
ATOM      4  C   UNL     1       0.975  -8.782  -0.503  0.00  0.00    +0.027 C 
ATOM      5  C   UNL     1      -0.146  -8.372  -1.460  0.00  0.00    -0.075 C 
ATOM      6  N   UNL     1      -1.421  -8.927  -0.992  0.00  0.00    +0.383 N 
ATOM      7  C   UNL     1      -1.760  -8.364   0.320  0.00  0.00    -0.075 C 
ATOM      8  C   UNL     1      -0.699  -8.774   1.344  0.00  0.00    +0.027 C 
ATOM      9  N   UNL     1       1.697  -8.708   1.835  0.00  0.00    -0.286 NA
ATOM     10  C   UNL     1       1.528  -8.051   3.142  0.00  0.00    +0.095 C 
ATOM     11  C   UNL     1       1.856  -6.563   2.972  0.00  0.00    +0.079 C 
ATOM     12  H   UNL     1       1.673  -9.712   1.928  0.00  0.00    +0.125 HD
ATOM     13  H   UNL     1      -1.342  -9.930  -0.916  0.00  0.00    -0.081 HD
ENDROOT
BRANCH  10  14
ATOM     14  C   UNL     1       2.469  -8.667   4.145  0.00  0.00    +0.013 A 
ATOM     15  C   UNL     1       3.633  -9.278   3.718  0.00  0.00    +0.028 A 
ATOM     16  C   UNL     1       4.497  -9.843   4.638  0.00  0.00    +0.042 A 
ATOM     17  C   UNL     1       4.198  -9.798   5.989  0.00  0.00    +0.023 A 
ATOM     18  C   UNL     1       3.036  -9.189   6.420  0.00  0.00    +0.047 A 
ATOM     19  C   UNL     1       2.171  -8.616   5.499  0.00  0.00    +0.122 A 
ATOM     20 CL   UNL     1       5.957 -10.611   4.098  0.00  0.00    -0.084 Cl
BRANCH  19  21
ATOM     21  O   UNL     1       1.030  -8.010   5.922  0.00  0.00    -0.506 OA
ATOM     22  H   UNL     1       0.268  -8.603   5.978  0.00  0.00    +0.292 HD
ENDBRANCH  19  21
ENDBRANCH  10  14
BRANCH   1  26
ATOM     23  C   UNL     1       0.802  -1.823   1.306  0.00  0.00    +0.121 A 
ATOM     24  C   UNL     1       0.258  -2.670   0.348  0.00  0.00    +0.046 A 
ATOM     25  C   UNL     1       0.365  -4.035   0.492  0.00  0.00    +0.013 A 
ATOM     26  C   UNL     1       1.023  -4.569   1.603  0.00  0.00    -0.004 A 
ATOM     27  C   UNL     1       1.570  -3.713   2.564  0.00  0.00    +0.013 A 
ATOM     28  C   UNL     1       1.462  -2.349   2.409  0.00  0.00    +0.046 A 
BRANCH  23  29
ATOM     29  O   UNL     1       0.693  -0.477   1.160  0.00  0.00    -0.492 OA
BRANCH  29  31
ATOM     30  C   UNL     1      -0.019   1.526   0.010  0.00  0.00    +0.048 C 
ATOM     31  C   UNL     1       0.002  -0.004   0.002  0.00  0.00    +0.225 C 
ENDBRANCH  29  31
ENDBRANCH  23  29
ENDBRANCH   1  26
BRANCH   6  32
ATOM     32  C   UNL     1      -2.481  -8.595  -1.954  0.00  0.00    -0.043 C 
BRANCH  32  33
ATOM     33  C   UNL     1      -3.764  -9.267  -1.540  0.00  0.00    -0.064 A 
ATOM     34  C   UNL     1      -4.059 -10.537  -1.999  0.00  0.00    +0.002 A 
ATOM     35  C   UNL     1      -5.236 -11.154  -1.620  0.00  0.00    +0.000 A 
ATOM     36  C   UNL     1      -6.119 -10.501  -0.780  0.00  0.00    +0.000 A 
ATOM     37  C   UNL     1      -5.824  -9.231  -0.321  0.00  0.00    +0.000 A 
ATOM     38  C   UNL     1      -4.645  -8.616  -0.697  0.00  0.00    +0.002 A 
ENDBRANCH  32  33
ENDBRANCH   6  32
TORSDOF 7
