REMARK  Name = ZINC16461512
REMARK  9 active torsions:
REMARK  status: ('A' for Active; 'I' for Inactive)
REMARK    1  A    between atoms: C_1  and  C_2
REMARK    2  A    between atoms: C_2  and  N_62
REMARK    3  A    between atoms: C_8  and  C_10
REMARK    4  A    between atoms: C_13  and  C_15
REMARK    5  A    between atoms: C_15  and  S_16
REMARK    6  A    between atoms: S_16  and  C_17
REMARK    7  A    between atoms: C_20  and  C_29
REMARK    8  A    between atoms: N_21  and  C_22
REMARK    9  A    between atoms: C_25  and  C_28
REMARK                            x       y       z     vdW  Elec       q    Type
REMARK                         _______ _______ _______ _____ _____    ______ ____
ROOT
ATOM      1  S   UNL     1       0.917  -2.000   0.079  0.00  0.00    -0.079 S 
ENDROOT
BRANCH   1   2
ATOM      2  C   UNL     1       0.133  -0.423   0.102  0.00  0.00    +0.197 A 
ATOM      3  N   UNL     1      -1.163  -0.195   0.087  0.00  0.00    -0.122 NA
ATOM      4  N   UNL     1      -1.390   1.069   0.112  0.00  0.00    -0.128 NA
ATOM      5  C   UNL     1      -0.255   1.729   0.145  0.00  0.00    +0.169 A 
ATOM      6  N   UNL     1       0.757   0.793   0.140  0.00  0.00    -0.270 N 
BRANCH   6   7
ATOM      7  C   UNL     1       2.137   1.037   0.166  0.00  0.00    +0.051 A 
ATOM      8  C   UNL     1       2.715   1.639   1.276  0.00  0.00    +0.026 A 
ATOM      9  C   UNL     1       4.076   1.873   1.302  0.00  0.00    +0.005 A 
ATOM     10  C   UNL     1       4.861   1.518   0.220  0.00  0.00    -0.050 A 
ATOM     11  C   UNL     1       4.287   0.924  -0.889  0.00  0.00    +0.005 A 
ATOM     12  C   UNL     1       2.927   0.682  -0.919  0.00  0.00    +0.026 A 
ATOM     13  C   UNL     1       6.345   1.780   0.248  0.00  0.00    +0.044 C 
ENDBRANCH   6   7
BRANCH   5  14
ATOM     14  C   UNL     1      -0.093   3.197   0.180  0.00  0.00    +0.022 A 
ATOM     15  C   UNL     1       1.145   3.792  -0.093  0.00  0.00    +0.031 A 
ATOM     16  C   UNL     1       1.249   5.166  -0.054  0.00  0.00    +0.111 A 
ATOM     17  N   UNL     1       0.206   5.917   0.246  0.00  0.00    -0.263 NA
ATOM     18  C   UNL     1      -0.977   5.398   0.515  0.00  0.00    +0.111 A 
ATOM     19  C   UNL     1      -1.173   4.033   0.493  0.00  0.00    +0.031 A 
ENDBRANCH   5  14
ENDBRANCH   1   2
BRANCH   1  20
ATOM     20  C   UNL     1      -0.538  -3.075   0.032  0.00  0.00    +0.140 C 
BRANCH  20  24
ATOM     21  C   UNL     1       0.512  -6.576   0.791  0.00  0.00    +0.133 A 
ATOM     22  C   UNL     1       0.663  -6.971  -0.514  0.00  0.00    +0.080 A 
ATOM     23  S   UNL     1       0.239  -5.520  -1.366  0.00  0.00    -0.079 S 
ATOM     24  C   UNL     1      -0.098  -4.516   0.006  0.00  0.00    +0.089 A 
ATOM     25  N   UNL     1       0.130  -5.318   1.014  0.00  0.00    -0.239 NA
BRANCH  21  31
ATOM     26  C   UNL     1       1.800  -5.139   4.336  0.00  0.00    -0.060 C 
ATOM     27  C   UNL     1       0.637  -5.612   3.458  0.00  0.00    +0.089 C 
ATOM     28  N   UNL     1       0.822  -7.042   3.169  0.00  0.00    -0.300 N 
ATOM     29  C   UNL     1       1.059  -7.955   4.297  0.00  0.00    +0.089 C 
ATOM     30  C   UNL     1       2.212  -7.389   5.142  0.00  0.00    -0.060 C 
ATOM     31  C   UNL     1       0.770  -7.505   1.904  0.00  0.00    +0.265 C 
ATOM     32  O   UNL     1       0.935  -8.689   1.682  0.00  0.00    -0.268 OA
ATOM     33  N   UNL     1       1.874  -6.003   5.534  0.00  0.00    +0.382 N 
ATOM     34  H   UNL     1       0.959  -6.003   6.001  0.00  0.00    -0.082 HD
BRANCH  33  36
ATOM     35  C   UNL     1       2.791  -6.257   7.786  0.00  0.00    -0.017 C 
ATOM     36  C   UNL     1       2.890  -5.482   6.471  0.00  0.00    -0.082 C 
ENDBRANCH  33  36
ENDBRANCH  21  31
ENDBRANCH  20  24
ENDBRANCH   1  20
TORSDOF 7
