REMARK  Name = ZINC25381958
REMARK  5 active torsions:
REMARK  status: ('A' for Active; 'I' for Inactive)
REMARK    1  A    between atoms: C_1  and  C_2
REMARK    2  A    between atoms: C_2  and  C_4
REMARK    3  A    between atoms: C_2  and  N_17
REMARK    4  A    between atoms: N_6  and  N_7
REMARK    5  A    between atoms: N_7  and  C_8
REMARK                            x       y       z     vdW  Elec       q    Type
REMARK                         _______ _______ _______ _____ _____    ______ ____
ROOT
ATOM      1  C   UNL     1       6.407   3.110   1.633  0.00  0.00    +0.038 C 
ATOM      2  C   UNL     1       6.013   2.830   0.182  0.00  0.00    +0.156 C 
ENDROOT
BRANCH   2   3
ATOM      3  N   UNL     1       4.885   1.896   0.153  0.00  0.00    -0.316 N 
ATOM      4  C   UNL     1       3.596   2.368   0.274  0.00  0.00    +0.150 C 
ATOM      5  N   UNL     1       3.373   3.636   0.412  0.00  0.00    -0.113 NA
ATOM      6  S   UNL     1       1.711   3.800   0.523  0.00  0.00    +0.101 S 
ATOM      7  O   UNL     1       1.406   4.228   1.843  0.00  0.00    -0.146 OA
ATOM      8  O   UNL     1       1.264   4.476  -0.643  0.00  0.00    -0.146 OA
ATOM      9  C   UNL     1       1.229   2.100   0.382  0.00  0.00    +0.123 A 
ATOM     10  C   UNL     1       2.457   1.437   0.246  0.00  0.00    +0.043 A 
ATOM     11  C   UNL     1       2.425   0.041   0.111  0.00  0.00    +0.013 A 
ATOM     12  C   UNL     1       1.222  -0.630   0.114  0.00  0.00    +0.001 A 
ATOM     13  C   UNL     1       0.027   0.052   0.250  0.00  0.00    +0.002 A 
ATOM     14  C   UNL     1       0.039   1.433   0.385  0.00  0.00    +0.030 A 
ATOM     15  H   UNL     1       5.066   0.817   0.036  0.00  0.00    +0.148 HD
ENDBRANCH   2   3
BRANCH   2  16
ATOM     16  C   UNL     1       7.184   2.226  -0.549  0.00  0.00    +0.249 C 
ATOM     17  O   UNL     1       7.086   1.123  -1.045  0.00  0.00    -0.272 OA
ATOM     18  N   UNL     1       8.340   2.911  -0.652  0.00  0.00    -0.235 N 
ATOM     19  H   UNL     1       8.429   3.911  -0.203  0.00  0.00    +0.173 HD
BRANCH  18  20
ATOM     20  N   UNL     1       9.429   2.349  -1.332  0.00  0.00    -0.262 N 
ATOM     21  H   UNL     1       9.373   1.314  -1.700  0.00  0.00    +0.170 HD
BRANCH  20  22
ATOM     22  C   UNL     1      10.588   3.104  -1.542  0.00  0.00    +0.081 A 
ATOM     23  C   UNL     1      11.835   2.493  -1.493  0.00  0.00    +0.066 A 
ATOM     24  C   UNL     1      12.977   3.241  -1.706  0.00  0.00    +0.042 A 
ATOM     25  C   UNL     1      12.881   4.599  -1.957  0.00  0.00    +0.044 A 
ATOM     26  C   UNL     1      11.641   5.211  -2.000  0.00  0.00    +0.042 A 
ATOM     27  C   UNL     1      10.494   4.467  -1.793  0.00  0.00    +0.066 A 
ATOM     28 CL   UNL     1       8.938   5.236  -1.848  0.00  0.00    -0.081 Cl
ATOM     29 CL   UNL     1      14.319   5.536  -2.218  0.00  0.00    -0.083 Cl
ATOM     30 CL   UNL     1      11.957   0.792  -1.172  0.00  0.00    -0.081 Cl
ENDBRANCH  20  22
ENDBRANCH  18  20
ENDBRANCH   2  16
TORSDOF 4
