REMARK  Name = ZINC20285829
REMARK  11 active torsions:
REMARK  status: ('A' for Active; 'I' for Inactive)
REMARK    1  A    between atoms: C_1  and  C_2
REMARK    2  A    between atoms: C_2  and  C_4
REMARK    3  A    between atoms: C_2  and  N_18
REMARK    4  A    between atoms: C_4  and  N_5
REMARK    5  A    between atoms: C_8  and  N_10
REMARK    6  A    between atoms: N_10  and  C_11
REMARK    7  A    between atoms: N_18  and  C_19
REMARK    8  A    between atoms: C_21  and  C_27
REMARK    9  A    between atoms: C_21  and  C_28
REMARK   10  A    between atoms: C_23  and  C_25
REMARK   11  A    between atoms: C_23  and  C_26
REMARK                            x       y       z     vdW  Elec       q    Type
REMARK                         _______ _______ _______ _____ _____    ______ ____
ROOT
ATOM      1  C   UNL     1      -0.398   1.530  -1.154  0.00  0.00    +0.026 C 
ATOM      2  C   UNL     1      -0.458   0.004  -1.055  0.00  0.00    +0.072 C 
ENDROOT
BRANCH   2   3
ATOM      3  N   UNL     1       0.407  -0.449   0.043  0.00  0.00    -0.309 NA
ATOM      4  H   UNL     1       0.347   0.177   0.832  0.00  0.00    +0.123 HD
BRANCH   3   5
ATOM      5  C   UNL     1       1.801  -0.596  -0.409  0.00  0.00    +0.051 C 
ATOM      6  C   UNL     1       1.992  -1.994  -0.999  0.00  0.00    +0.006 C 
ATOM      7  C   UNL     1       3.438  -2.167  -1.463  0.00  0.00    -0.072 C 
ATOM      8  N   UNL     1       4.392  -1.873  -0.403  0.00  0.00    +0.386 N 
ATOM      9  C   UNL     1       4.189  -0.659   0.371  0.00  0.00    -0.072 C 
ATOM     10  C   UNL     1       2.737  -0.449   0.789  0.00  0.00    +0.006 C 
ATOM     11  C   UNL     1       4.703   0.578  -0.370  0.00  0.00    -0.010 C 
ATOM     12  C   UNL     1       5.025  -0.788   1.666  0.00  0.00    -0.010 C 
ATOM     13  C   UNL     1       3.695  -1.333  -2.717  0.00  0.00    -0.010 C 
ATOM     14  C   UNL     1       3.620  -3.652  -1.855  0.00  0.00    -0.010 C 
ATOM     15  H   UNL     1       4.410  -2.667   0.242  0.00  0.00    -0.084 HD
ATOM     16  H   UNL     1       5.329  -1.840  -0.814  0.00  0.00    -0.084 HD
ENDBRANCH   3   5
ENDBRANCH   2   3
BRANCH   2  17
ATOM     17  C   UNL     1      -1.898  -0.433  -0.783  0.00  0.00    +0.162 C 
BRANCH  17  18
ATOM     18  N   UNL     1      -1.937  -1.882  -0.570  0.00  0.00    -0.258 NA
ATOM     19  C   UNL     1      -2.280  -2.359   0.591  0.00  0.00    +0.193 C 
ATOM     20  N   UNL     1      -2.446  -3.592   1.233  0.00  0.00    -0.198 NA
ATOM     21  C   UNL     1      -2.845  -3.536   2.534  0.00  0.00    +0.188 C 
ATOM     22  S   UNL     1      -2.779  -1.790   2.200  0.00  0.00    -0.013 S 
BRANCH  21  23
ATOM     23  N   UNL     1      -3.140  -4.382   3.562  0.00  0.00    -0.190 NA
BRANCH  23  24
ATOM     24  C   UNL     1      -3.702  -3.880   4.742  0.00  0.00    +0.056 A 
ATOM     25  C   UNL     1      -3.553  -4.577   5.934  0.00  0.00    +0.028 A 
ATOM     26  C   UNL     1      -4.108  -4.080   7.097  0.00  0.00    +0.040 A 
ATOM     27  C   UNL     1      -4.812  -2.888   7.075  0.00  0.00    +0.124 A 
ATOM     28  C   UNL     1      -4.962  -2.192   5.887  0.00  0.00    +0.040 A 
ATOM     29  C   UNL     1      -4.404  -2.682   4.723  0.00  0.00    +0.028 A 
ATOM     30  F   UNL     1      -5.354  -2.403   8.213  0.00  0.00    -0.205 F 
ENDBRANCH  23  24
ENDBRANCH  21  23
ENDBRANCH  17  18
ENDBRANCH   2  17
TORSDOF 6
