REMARK  Name = ZINC43741006
REMARK  7 active torsions:
REMARK  status: ('A' for Active; 'I' for Inactive)
REMARK    1  A    between atoms: C_1  and  C_2
REMARK    2  A    between atoms: C_16  and  C_35
REMARK    3  A    between atoms: C_21  and  C_22
REMARK    4  A    between atoms: C_21  and  O_34
REMARK    5  A    between atoms: C_22  and  N_23
REMARK    6  A    between atoms: C_24  and  C_25
REMARK    7  A    between atoms: C_30  and  O_31
REMARK                            x       y       z     vdW  Elec       q    Type
REMARK                         _______ _______ _______ _____ _____    ______ ____
ROOT
ATOM      1  C   UNL     1       0.342   1.170  -0.651  0.00  0.00    +0.016 C 
ATOM      2  C   UNL     1       0.266  -0.359  -0.543  0.00  0.00    -0.008 C 
ATOM      3  C   UNL     1       0.833  -0.977  -1.814  0.00  0.00    +0.016 C 
ATOM      4  C   UNL     1       2.253  -1.488  -1.588  0.00  0.00    +0.066 C 
ATOM      5  C   UNL     1       3.105  -0.514  -0.784  0.00  0.00    +0.174 C 
ATOM      6  C   UNL     1       2.555  -0.357   0.638  0.00  0.00    +0.096 C 
ATOM      7  C   UNL     1       1.102  -0.799   0.631  0.00  0.00    -0.062 C 
ATOM      8  C   UNL     1       0.663  -1.527   1.611  0.00  0.00    -0.027 C 
ATOM      9  C   UNL     1      -0.741  -2.061   1.687  0.00  0.00    +0.031 C 
ATOM     10  C   UNL     1      -1.302  -2.120   0.266  0.00  0.00    +0.000 C 
ATOM     11  C   UNL     1      -1.207  -0.717  -0.340  0.00  0.00    +0.003 C 
ATOM     12  C   UNL     1      -1.978  -0.644  -1.649  0.00  0.00    +0.005 C 
ATOM     13  C   UNL     1      -3.472  -0.951  -1.471  0.00  0.00    +0.010 C 
ATOM     14  C   UNL     1      -3.745  -1.567  -0.122  0.00  0.00    +0.001 C 
ATOM     15  C   UNL     1      -2.697  -2.657   0.190  0.00  0.00    +0.001 C 
ATOM     16  C   UNL     1      -3.278  -3.306   1.453  0.00  0.00    +0.007 C 
ATOM     17  C   UNL     1      -4.803  -3.346   1.159  0.00  0.00    +0.037 C 
ATOM     18  C   UNL     1      -5.040  -2.410  -0.053  0.00  0.00    +0.089 C 
ATOM     19  C   UNL     1      -3.862  -0.509   0.974  0.00  0.00    +0.014 C 
ATOM     20  O   UNL     1       4.452  -1.019  -0.702  0.00  0.00    -0.346 OA
ATOM     21  C   UNL     1       5.239  -0.210  -1.605  0.00  0.00    +0.191 C 
ATOM     22  C   UNL     1       4.517   1.159  -1.520  0.00  0.00    +0.191 C 
ATOM     23  O   UNL     1       3.132   0.767  -1.429  0.00  0.00    -0.346 OA
ENDROOT
BRANCH  18  24
ATOM     24  O   UNL     1      -5.204  -3.165  -1.247  0.00  0.00    -0.386 OA
ATOM     25  H   UNL     1      -6.000  -3.713  -1.260  0.00  0.00    +0.210 HD
ENDBRANCH  18  24
BRANCH  18  26
ATOM     26  C   UNL     1      -6.239  -1.499   0.194  0.00  0.00    +0.147 C 
BRANCH  26  27
ATOM     27  N   UNL     1      -7.443  -2.315   0.376  0.00  0.00    -0.387 N 
ATOM     28  C   UNL     1      -8.055  -2.320   1.516  0.00  0.00    +0.090 C 
ATOM     29  H   UNL     1      -7.781  -2.851  -0.358  0.00  0.00    +0.159 HD
BRANCH  28  30
ATOM     30  C   UNL     1      -9.171  -3.253   1.749  0.00  0.00    +0.035 A 
ATOM     31  C   UNL     1      -9.914  -3.179   2.931  0.00  0.00    +0.033 A 
ATOM     32  C   UNL     1     -10.958  -4.055   3.143  0.00  0.00    +0.043 A 
ATOM     33  C   UNL     1     -11.274  -5.010   2.189  0.00  0.00    +0.043 A 
ATOM     34  C   UNL     1     -10.547  -5.093   1.017  0.00  0.00    +0.084 A 
ATOM     35  C   UNL     1      -9.498  -4.216   0.785  0.00  0.00    +0.144 A 
ATOM     36 CL   UNL     1     -10.952  -6.293  -0.170  0.00  0.00    -0.080 Cl
ATOM     37 CL   UNL     1     -11.879  -3.962   4.612  0.00  0.00    -0.083 Cl
BRANCH  35  38
ATOM     38  O   UNL     1      -8.787  -4.293  -0.369  0.00  0.00    -0.505 OA
ATOM     39  H   UNL     1      -8.024  -4.886  -0.322  0.00  0.00    +0.292 HD
ENDBRANCH  35  38
ENDBRANCH  28  30
ENDBRANCH  26  27
ENDBRANCH  18  26
TORSDOF 5
