REMARK  Name = ZINC32879807
REMARK  10 active torsions:
REMARK  status: ('A' for Active; 'I' for Inactive)
REMARK    1  A    between atoms: C_1  and  C_2
REMARK    2  A    between atoms: C_2  and  O_3
REMARK    3  A    between atoms: O_3  and  C_4
REMARK    4  A    between atoms: C_4  and  C_6
REMARK    5  A    between atoms: C_7  and  C_22
REMARK    6  A    between atoms: C_12  and  C_14
REMARK    7  A    between atoms: C_17  and  O_20
REMARK    8  A    between atoms: O_20  and  C_21
REMARK    9  A    between atoms: C_22  and  N_23
REMARK   10  A    between atoms: C_27  and  C_29
REMARK                            x       y       z     vdW  Elec       q    Type
REMARK                         _______ _______ _______ _____ _____    ______ ____
ROOT
ATOM      1  C   UNL     1      -5.486  -1.492   3.551  0.00  0.00    +0.076 C 
ATOM      2  C   UNL     1      -6.399  -2.089   2.756  0.00  0.00    +0.008 C 
ATOM      3  N   UNL     1      -6.875  -1.467   1.637  0.00  0.00    -0.274 N 
ATOM      4  C   UNL     1      -6.487  -0.247   1.245  0.00  0.00    +0.304 C 
ATOM      5  O   UNL     1      -6.967   0.226   0.234  0.00  0.00    -0.252 OA
ATOM      6  N   UNL     1      -5.581   0.474   1.935  0.00  0.00    -0.288 N 
ATOM      7  C   UNL     1      -5.007  -0.109   3.160  0.00  0.00    +0.143 C 
ATOM      8  H   UNL     1      -7.619  -1.969   1.002  0.00  0.00    +0.156 HD
ATOM      9  H   UNL     1      -5.269   1.475   1.604  0.00  0.00    +0.151 HD
ENDROOT
BRANCH   7  10
ATOM     10  C   UNL     1      -3.510  -0.166   2.989  0.00  0.00    -0.022 A 
ATOM     11  C   UNL     1      -2.682   0.213   4.029  0.00  0.00    +0.009 A 
ATOM     12  C   UNL     1      -1.310   0.161   3.875  0.00  0.00    +0.046 A 
ATOM     13  C   UNL     1      -0.764  -0.272   2.676  0.00  0.00    +0.120 A 
ATOM     14  C   UNL     1      -1.597  -0.646   1.632  0.00  0.00    +0.046 A 
ATOM     15  C   UNL     1      -2.968  -0.599   1.793  0.00  0.00    +0.009 A 
BRANCH  13  16
ATOM     16  O   UNL     1       0.585  -0.323   2.522  0.00  0.00    -0.495 OA
ATOM     17  C   UNL     1       1.077  -0.779   1.260  0.00  0.00    +0.277 C 
ENDBRANCH  13  16
ENDBRANCH   7  10
BRANCH   1  18
ATOM     18  C   UNL     1      -4.992  -2.136   4.710  0.00  0.00    +0.339 C 
ATOM     19  O   UNL     1      -5.300  -3.291   4.942  0.00  0.00    -0.245 OA
BRANCH  18  20
ATOM     20  O   UNL     1      -4.180  -1.471   5.557  0.00  0.00    -0.462 OA
BRANCH  20  22
ATOM     21  C   UNL     1      -2.817  -1.273   7.543  0.00  0.00    +0.048 C 
ATOM     22  C   UNL     1      -3.719  -2.183   6.707  0.00  0.00    +0.229 C 
ENDBRANCH  20  22
ENDBRANCH  18  20
ENDBRANCH   1  18
BRANCH   2  23
ATOM     23  C   UNL     1      -6.902  -3.466   3.108  0.00  0.00    -0.026 C 
BRANCH  23  24
ATOM     24  N   UNL     1      -5.914  -4.470   2.691  0.00  0.00    +0.388 N 
ATOM     25  C   UNL     1      -5.936  -4.657   1.224  0.00  0.00    -0.078 C 
ATOM     26  C   UNL     1      -5.607  -6.155   1.012  0.00  0.00    -0.020 C 
ATOM     27  C   UNL     1      -6.347  -6.811   2.207  0.00  0.00    -0.013 C 
ATOM     28  C   UNL     1      -6.178  -5.770   3.334  0.00  0.00    -0.037 C 
ATOM     29  H   UNL     1      -4.929  -4.096   3.005  0.00  0.00    -0.080 HD
BRANCH  28  30
ATOM     30  C   UNL     1      -7.442  -5.690   4.151  0.00  0.00    -0.061 A 
ATOM     31  C   UNL     1      -7.387  -5.837   5.525  0.00  0.00    +0.002 A 
ATOM     32  C   UNL     1      -8.545  -5.759   6.275  0.00  0.00    +0.000 A 
ATOM     33  C   UNL     1      -9.760  -5.545   5.651  0.00  0.00    +0.000 A 
ATOM     34  C   UNL     1      -9.816  -5.404   4.277  0.00  0.00    +0.000 A 
ATOM     35  C   UNL     1      -8.657  -5.477   3.527  0.00  0.00    +0.002 A 
ENDBRANCH  28  30
ENDBRANCH  23  24
ENDBRANCH   2  23
TORSDOF 8
