REMARK  Name = ZINC04532963
REMARK  8 active torsions:
REMARK  status: ('A' for Active; 'I' for Inactive)
REMARK    1  A    between atoms: C_1  and  C_2
REMARK    2  A    between atoms: C_2  and  C_4
REMARK    3  A    between atoms: C_10  and  C_32
REMARK    4  A    between atoms: C_19  and  C_31
REMARK    5  A    between atoms: C_20  and  C_30
REMARK    6  A    between atoms: C_23  and  O_26
REMARK    7  A    between atoms: O_26  and  C_27
REMARK    8  A    between atoms: C_27  and  C_29
REMARK                            x       y       z     vdW  Elec       q    Type
REMARK                         _______ _______ _______ _____ _____    ______ ____
ROOT
ATOM      1  C   UNL     1      -1.444   1.853   1.371  0.00  0.00    +0.061 C 
ATOM      2  C   UNL     1      -0.164   2.188   0.556  0.00  0.00    +0.012 C 
ATOM      3  C   UNL     1       0.611   0.850   0.406  0.00  0.00    +0.005 C 
ATOM      4  C   UNL     1      -0.346  -0.189   0.989  0.00  0.00    -0.001 C 
ATOM      5  C   UNL     1      -1.014   0.577   2.147  0.00  0.00    -0.019 C 
ATOM      6  C   UNL     1      -2.170  -0.202   2.719  0.00  0.00    +0.008 C 
ATOM      7  C   UNL     1      -1.855  -1.701   2.805  0.00  0.00    +0.005 C 
ATOM      8  C   UNL     1      -0.358  -1.969   2.726  0.00  0.00    -0.001 C 
ATOM      9  C   UNL     1       0.195  -1.532   1.379  0.00  0.00    -0.004 C 
ATOM     10  C   UNL     1       1.708  -1.635   1.327  0.00  0.00    +0.004 C 
ATOM     11  C   UNL     1       2.244  -2.791   2.175  0.00  0.00    +0.007 C 
ATOM     12  C   UNL     1       1.210  -3.898   2.301  0.00  0.00    -0.023 C 
ATOM     13  C   UNL     1       0.004  -3.396   3.087  0.00  0.00    -0.023 C 
ATOM     14  C   UNL     1      -1.128  -4.404   2.978  0.00  0.00    +0.011 C 
ATOM     15  C   UNL     1      -0.670  -5.737   3.577  0.00  0.00    +0.045 C 
ATOM     16  C   UNL     1       0.673  -6.220   3.062  0.00  0.00    +0.177 C 
ATOM     17  C   UNL     1       1.756  -5.145   3.000  0.00  0.00    +0.051 C 
ATOM     18  C   UNL     1       0.396  -3.325   4.585  0.00  0.00    +0.012 C 
ATOM     19  C   UNL     1       0.821  -4.362   0.889  0.00  0.00    +0.012 C 
ATOM     20  C   UNL     1      -0.029   1.023   3.230  0.00  0.00    +0.012 C 
ENDROOT
BRANCH   1  22
ATOM     21  C   UNL     1      -3.146   3.043   2.948  0.00  0.00    +0.086 C 
ATOM     22  C   UNL     1      -1.772   2.960   2.335  0.00  0.00    +0.134 C 
ATOM     23  O   UNL     1      -0.934   3.782   2.619  0.00  0.00    -0.297 OA
ENDBRANCH   1  22
BRANCH  16  24
ATOM     24  O   UNL     1       1.144  -7.291   3.941  0.00  0.00    -0.462 OA
BRANCH  24  25
ATOM     25  C   UNL     1       0.786  -8.544   3.621  0.00  0.00    +0.304 C 
ATOM     26  O   UNL     1       0.105  -8.747   2.643  0.00  0.00    -0.251 OA
ATOM     27  C   UNL     1       1.233  -9.698   4.480  0.00  0.00    +0.136 C 
ENDBRANCH  24  25
ENDBRANCH  16  24
TORSDOF 3
