REMARK  Name = ZINC20719117
REMARK  11 active torsions:
REMARK  status: ('A' for Active; 'I' for Inactive)
REMARK    1  A    between atoms: C_1  and  C_2
REMARK    2  A    between atoms: C_2  and  C_3
REMARK    3  A    between atoms: C_2  and  C_4
REMARK    4  A    between atoms: C_4  and  C_5
REMARK    5  A    between atoms: C_5  and  C_7
REMARK    6  A    between atoms: C_5  and  N_11
REMARK    7  A    between atoms: C_7  and  O_9
REMARK    8  A    between atoms: O_9  and  C_10
REMARK    9  A    between atoms: C_23  and  C_25
REMARK   10  A    between atoms: C_30  and  O_31
REMARK   11  A    between atoms: O_31  and  C_32
REMARK                            x       y       z     vdW  Elec       q    Type
REMARK                         _______ _______ _______ _____ _____    ______ ____
ROOT
ATOM      1  N   UNL     1       1.956   1.721  -1.345  0.00  0.00    -0.286 N 
ATOM      2  C   UNL     1       1.845   2.204  -0.092  0.00  0.00    +0.304 C 
ATOM      3  O   UNL     1       1.863   1.443   0.856  0.00  0.00    -0.253 OA
ATOM      4  N   UNL     1       1.713   3.530   0.111  0.00  0.00    -0.273 N 
ATOM      5  C   UNL     1       1.574   4.456  -1.023  0.00  0.00    +0.116 C 
ATOM      6  C   UNL     1       0.193   5.120  -0.965  0.00  0.00    +0.076 C 
ATOM      7  C   UNL     1      -0.073   5.566   0.452  0.00  0.00    +0.066 A 
ATOM      8  C   UNL     1       0.592   5.107   1.533  0.00  0.00    +0.064 A 
ATOM      9  N   UNL     1       0.072   5.733   2.623  0.00  0.00    -0.346 N 
ATOM     10  H   UNL     1       0.345   5.608   3.545  0.00  0.00    +0.167 HD
ATOM     11  C   UNL     1      -0.898   6.563   2.175  0.00  0.00    +0.197 A 
ATOM     12  N   UNL     1      -0.977   6.455   0.875  0.00  0.00    -0.240 NA
ATOM     13  C   UNL     1       1.698   4.089   1.475  0.00  0.00    +0.160 C 
ATOM     14  H   UNL     1       2.015   2.332  -2.097  0.00  0.00    +0.151 HD
ENDROOT
BRANCH  13  15
ATOM     15  C   UNL     1       3.018   4.753   1.771  0.00  0.00    +0.021 A 
ATOM     16  C   UNL     1       3.113   6.132   1.771  0.00  0.00    +0.009 A 
ATOM     17  C   UNL     1       4.324   6.742   2.042  0.00  0.00    +0.001 A 
ATOM     18  C   UNL     1       5.442   5.975   2.315  0.00  0.00    +0.004 A 
ATOM     19  C   UNL     1       5.352   4.597   2.316  0.00  0.00    +0.046 A 
ATOM     20  C   UNL     1       4.137   3.982   2.049  0.00  0.00    +0.135 A 
BRANCH  20  21
ATOM     21  O   UNL     1       4.045   2.626   2.056  0.00  0.00    -0.405 OA
BRANCH  21  22
ATOM     22  C   UNL     1       5.237   1.896   2.350  0.00  0.00    +0.575 C 
ATOM     23  F   UNL     1       5.696   2.247   3.624  0.00  0.00    -0.133 F 
ATOM     24  F   UNL     1       4.965   0.524   2.315  0.00  0.00    -0.133 F 
ATOM     25  F   UNL     1       6.218   2.201   1.401  0.00  0.00    -0.133 F 
ENDBRANCH  21  22
ENDBRANCH  20  21
ENDBRANCH  13  15
BRANCH   1  26
ATOM     26  C   UNL     1       1.989   0.274  -1.573  0.00  0.00    +0.183 C 
BRANCH  26  27
ATOM     27  C   UNL     1       2.610  -0.009  -2.917  0.00  0.00    +0.327 C 
ATOM     28  O   UNL     1       2.988   0.904  -3.612  0.00  0.00    -0.249 OA
BRANCH  27  29
ATOM     29  O   UNL     1       2.744  -1.276  -3.340  0.00  0.00    -0.467 OA
ATOM     30  C   UNL     1       3.342  -1.470  -4.623  0.00  0.00    +0.280 C 
ENDBRANCH  27  29
ENDBRANCH  26  27
BRANCH  26  31
ATOM     31  C   UNL     1       0.562  -0.278  -1.545  0.00  0.00    +0.036 C 
BRANCH  31  33
ATOM     32  C   UNL     1       1.283  -2.352  -0.352  0.00  0.00    +0.007 C 
ATOM     33  C   UNL     1       0.606  -1.806  -1.611  0.00  0.00    -0.015 C 
ATOM     34  C   UNL     1      -0.820  -2.354  -1.701  0.00  0.00    +0.007 C 
ENDBRANCH  31  33
ENDBRANCH  26  31
ENDBRANCH   1  26
TORSDOF 8
