REMARK  Name = ZINC41585557
REMARK  7 active torsions:
REMARK  status: ('A' for Active; 'I' for Inactive)
REMARK    1  A    between atoms: C_1  and  C_2
REMARK    2  A    between atoms: C_4  and  O_36
REMARK    3  A    between atoms: C_5  and  C_22
REMARK    4  A    between atoms: C_11  and  C_12
REMARK    5  A    between atoms: C_15  and  N_18
REMARK    6  A    between atoms: C_22  and  N_23
REMARK    7  A    between atoms: N_26  and  C_29
REMARK                            x       y       z     vdW  Elec       q    Type
REMARK                         _______ _______ _______ _____ _____    ______ ____
ROOT
ATOM      1  C   UNL     1      -1.298   1.287   0.075  0.00  0.00    +0.045 C 
ATOM      2  C   UNL     1      -1.025  -0.195   0.084  0.00  0.00    -0.033 A 
ATOM      3  C   UNL     1      -1.093  -0.911  -1.078  0.00  0.00    +0.050 A 
ATOM      4  C   UNL     1      -0.841  -2.280  -1.072  0.00  0.00    +0.122 A 
ATOM      5  C   UNL     1      -0.518  -2.932   0.107  0.00  0.00    +0.020 A 
ATOM      6  C   UNL     1      -0.444  -2.220   1.297  0.00  0.00    +0.145 A 
ATOM      7  C   UNL     1      -0.696  -0.838   1.278  0.00  0.00    +0.071 A 
ATOM      8  C   UNL     1      -0.537  -0.367   2.666  0.00  0.00    +0.232 C 
ATOM      9  O   UNL     1      -0.671   0.767   3.089  0.00  0.00    -0.283 OA
ATOM     10  C   UNL     1      -0.181  -1.576   3.427  0.00  0.00    +0.176 C 
ATOM     11  C   UNL     1       0.067  -1.641   4.758  0.00  0.00    +0.058 C 
ATOM     12  O   UNL     1      -0.156  -2.613   2.557  0.00  0.00    -0.451 OA
ENDROOT
BRANCH  11  13
ATOM     13  C   UNL     1       0.163  -0.406   5.549  0.00  0.00    -0.021 A 
ATOM     14  C   UNL     1      -0.343  -0.364   6.854  0.00  0.00    +0.010 A 
ATOM     15  C   UNL     1      -0.248   0.798   7.589  0.00  0.00    +0.033 A 
ATOM     16  C   UNL     1       0.345   1.922   7.040  0.00  0.00    +0.126 A 
ATOM     17  C   UNL     1       0.847   1.890   5.750  0.00  0.00    +0.033 A 
ATOM     18  C   UNL     1       0.765   0.734   5.004  0.00  0.00    +0.010 A 
BRANCH  16  19
ATOM     19  N   UNL     1       0.442   3.167   7.836  0.00  0.00    +0.056 N 
ATOM     20  O   UNL     1       0.003   3.199   8.963  0.00  0.00    -0.126 OA
ATOM     21  O   UNL     1       0.959   4.150   7.360  0.00  0.00    -0.126 OA
ENDBRANCH  16  19
ENDBRANCH  11  13
BRANCH   4  22
ATOM     22  O   UNL     1      -0.912  -2.982  -2.232  0.00  0.00    -0.506 OA
ATOM     23  H   UNL     1      -0.076  -3.028  -2.715  0.00  0.00    +0.292 HD
ENDBRANCH   4  22
BRANCH   5  24
ATOM     24  C   UNL     1      -0.248  -4.415   0.099  0.00  0.00    -0.035 C 
BRANCH  24  25
ATOM     25  N   UNL     1       1.183  -4.650  -0.136  0.00  0.00    +0.385 N 
ATOM     26  C   UNL     1       1.543  -4.172  -1.476  0.00  0.00    -0.059 C 
ATOM     27  C   UNL     1       3.055  -4.311  -1.678  0.00  0.00    +0.086 C 
ATOM     28  N   UNL     1       3.435  -5.707  -1.410  0.00  0.00    -0.333 N 
ATOM     29  C   UNL     1       2.974  -6.322  -0.155  0.00  0.00    +0.086 C 
ATOM     30  C   UNL     1       1.465  -6.087  -0.025  0.00  0.00    -0.059 C 
ATOM     31  H   UNL     1       1.722  -4.149   0.554  0.00  0.00    -0.081 HD
BRANCH  28  32
ATOM     32  C   UNL     1       4.212  -6.429  -2.321  0.00  0.00    +0.030 A 
ATOM     33  C   UNL     1       4.742  -5.796  -3.438  0.00  0.00    +0.026 A 
ATOM     34  C   UNL     1       5.509  -6.511  -4.336  0.00  0.00    +0.040 A 
ATOM     35  C   UNL     1       5.751  -7.858  -4.124  0.00  0.00    +0.124 A 
ATOM     36  C   UNL     1       5.224  -8.491  -3.011  0.00  0.00    +0.040 A 
ATOM     37  C   UNL     1       4.460  -7.779  -2.107  0.00  0.00    +0.026 A 
ATOM     38  F   UNL     1       6.502  -8.555  -5.004  0.00  0.00    -0.205 F 
ENDBRANCH  28  32
ENDBRANCH  24  25
ENDBRANCH   5  24
TORSDOF 6
