REMARK  Name = ZINC03627377
REMARK  6 active torsions:
REMARK  status: ('A' for Active; 'I' for Inactive)
REMARK    1  A    between atoms: C_6  and  O_7
REMARK    2  A    between atoms: O_7  and  S_8
REMARK    3  A    between atoms: S_8  and  N_11
REMARK    4  A    between atoms: C_12  and  O_14
REMARK    5  A    between atoms: O_14  and  C_15
REMARK    6  A    between atoms: C_15  and  C_16
REMARK                            x       y       z     vdW  Elec       q    Type
REMARK                         _______ _______ _______ _____ _____    ______ ____
ROOT
ATOM      1  N   UNL     1      -4.648   5.314   2.318  0.00  0.00    -0.122 N 
ATOM      2  C   UNL     1      -3.897   4.840   1.305  0.00  0.00    +0.422 C 
ATOM      3  O   UNL     1      -3.357   5.611   0.536  0.00  0.00    -0.225 OA
ATOM      4  H   UNL     1      -5.079   4.699   2.932  0.00  0.00    +0.183 HD
ENDROOT
BRANCH   1   5
ATOM      5  S   UNL     1      -4.836   6.947   2.516  0.00  0.00    +0.212 S 
ATOM      6  O   UNL     1      -5.691   7.125   3.636  0.00  0.00    -0.115 OA
ATOM      7  O   UNL     1      -3.535   7.516   2.452  0.00  0.00    -0.115 OA
BRANCH   5   8
ATOM      8  O   UNL     1      -5.596   7.463   1.302  0.00  0.00    -0.331 OA
BRANCH   8  14
ATOM      9  C   UNL     1      -7.372   5.986   0.734  0.00  0.00    +0.051 A 
ATOM     10  C   UNL     1      -8.720   5.680   0.750  0.00  0.00    +0.043 A 
ATOM     11  C   UNL     1      -9.622   6.553   1.333  0.00  0.00    +0.142 A 
ATOM     12  C   UNL     1      -9.175   7.732   1.906  0.00  0.00    +0.080 A 
ATOM     13  C   UNL     1      -7.827   8.038   1.896  0.00  0.00    +0.071 A 
ATOM     14  C   UNL     1      -6.922   7.164   1.312  0.00  0.00    +0.160 A 
ATOM     15 CL   UNL     1     -10.308   8.826   2.636  0.00  0.00    -0.080 Cl
ATOM     16  F   UNL     1     -10.940   6.255   1.342  0.00  0.00    -0.204 F 
ENDBRANCH   8  14
ENDBRANCH   5   8
ENDBRANCH   1   5
BRANCH   2  17
ATOM     17  O   UNL     1      -3.744   3.512   1.144  0.00  0.00    -0.449 OA
BRANCH  17  18
ATOM     18  C   UNL     1      -2.921   3.073   0.032  0.00  0.00    +0.235 C 
BRANCH  18  19
ATOM     19  C   UNL     1      -2.865   1.544   0.011  0.00  0.00    +0.013 C 
ATOM     20  C   UNL     1      -2.157   1.044   1.271  0.00  0.00    +0.003 C 
ATOM     21  C   UNL     1      -0.723   1.576   1.270  0.00  0.00    -0.018 C 
ATOM     22  C   UNL     1      -0.013   1.086   0.008  0.00  0.00    -0.078 C 
ATOM     23  C   UNL     1      -2.101   1.079  -1.234  0.00  0.00    -0.062 C 
ATOM     24  C   UNL     1      -2.817   1.638  -2.467  0.00  0.00    -0.015 C 
ATOM     25  C   UNL     1      -2.061   1.235  -3.734  0.00  0.00    -0.003 C 
ATOM     26  C   UNL     1      -0.626   1.764  -3.638  0.00  0.00    -0.019 C 
ATOM     27  C   UNL     1       0.033   1.178  -2.390  0.00  0.00    -0.078 C 
ATOM     28  N   UNL     1      -0.709   1.595  -1.186  0.00  0.00    +0.382 N 
ATOM     29  H   UNL     1      -0.737   2.621  -1.147  0.00  0.00    -0.081 HD
ENDBRANCH  18  19
ENDBRANCH  17  18
ENDBRANCH   2  17
TORSDOF 6
