REMARK  Name = ZINC37691720
REMARK  4 active torsions:
REMARK  status: ('A' for Active; 'I' for Inactive)
REMARK    1  A    between atoms: C_9  and  O_13
REMARK    2  A    between atoms: C_10  and  C_11
REMARK    3  A    between atoms: O_13  and  C_14
REMARK    4  A    between atoms: C_20  and  O_22
REMARK                            x       y       z     vdW  Elec       q    Type
REMARK                         _______ _______ _______ _____ _____    ______ ____
ROOT
ATOM      1  C   UNL     1      -0.026   1.346  -0.164  0.00  0.00    +0.001 A 
ATOM      2  C   UNL     1       1.144   2.061  -0.400  0.00  0.00    +0.001 A 
ATOM      3  C   UNL     1       2.354   1.432  -0.432  0.00  0.00    +0.009 A 
ATOM      4  C   UNL     1       2.422   0.051  -0.227  0.00  0.00    -0.004 A 
ATOM      5  C   UNL     1       1.234  -0.680   0.013  0.00  0.00    -0.017 A 
ATOM      6  C   UNL     1       0.004  -0.001   0.040  0.00  0.00    +0.008 A 
ATOM      7  C   UNL     1       1.303  -2.071   0.221  0.00  0.00    +0.012 A 
ATOM      8  C   UNL     1       2.495  -2.721   0.195  0.00  0.00    +0.047 A 
ATOM      9  C   UNL     1       3.695  -2.047  -0.038  0.00  0.00    +0.132 A 
ATOM     10  C   UNL     1       3.699  -0.664  -0.253  0.00  0.00    +0.063 A 
ENDROOT
BRANCH  10  11
ATOM     11  C   UNL     1       4.950   0.050  -0.498  0.00  0.00    +0.263 C 
ATOM     12  O   UNL     1       6.002  -0.556  -0.517  0.00  0.00    -0.296 OA
ENDBRANCH  10  11
BRANCH   9  13
ATOM     13  O   UNL     1       4.862  -2.736  -0.055  0.00  0.00    -0.486 OA
BRANCH  13  14
ATOM     14  C   UNL     1       4.777  -4.158   0.050  0.00  0.00    +0.202 C 
ATOM     15  C   UNL     1       4.698  -4.556   1.526  0.00  0.00    +0.047 C 
ATOM     16  C   UNL     1       4.608  -6.080   1.639  0.00  0.00    +0.004 C 
ATOM     17  C   UNL     1       5.849  -6.713   1.005  0.00  0.00    +0.003 C 
ATOM     18  C   UNL     1       5.928  -6.314  -0.470  0.00  0.00    +0.035 C 
ATOM     19  C   UNL     1       6.018  -4.791  -0.583  0.00  0.00    +0.155 C 
BRANCH  19  20
ATOM     20  O   UNL     1       6.092  -4.420  -1.961  0.00  0.00    -0.388 OA
ATOM     21  H   UNL     1       6.856  -4.786  -2.427  0.00  0.00    +0.210 HD
ENDBRANCH  19  20
ENDBRANCH  13  14
ENDBRANCH   9  13
TORSDOF 4
