REMARK  Name = ZINC08536816
REMARK  6 active torsions:
REMARK  status: ('A' for Active; 'I' for Inactive)
REMARK    1  A    between atoms: C_1  and  C_2
REMARK    2  A    between atoms: C_3  and  C_25
REMARK    3  A    between atoms: N_9  and  N_12
REMARK    4  A    between atoms: C_13  and  C_15
REMARK    5  A    between atoms: C_15  and  O_16
REMARK    6  A    between atoms: O_16  and  C_17
REMARK                            x       y       z     vdW  Elec       q    Type
REMARK                         _______ _______ _______ _____ _____    ______ ____
ROOT
ATOM      1  N   UNL     1      -2.385   1.163   0.019  0.00  0.00    -0.216 N 
ATOM      2  C   UNL     1      -3.113   1.069   1.150  0.00  0.00    +0.269 C 
ATOM      3  O   UNL     1      -2.728   1.609   2.166  0.00  0.00    -0.270 OA
ATOM      4  H   UNL     1      -2.693   0.731  -0.793  0.00  0.00    +0.176 HD
ENDROOT
BRANCH   1  13
ATOM      5  C   UNL     1       2.869   0.001  -0.026  0.00  0.00    +0.045 C 
ATOM      6  C   UNL     1       2.579   1.479  -0.015  0.00  0.00    -0.026 A 
ATOM      7  C   UNL     1       3.585   2.369  -0.020  0.00  0.00    -0.008 A 
ATOM      8  S   UNL     1       2.746   3.942  -0.004  0.00  0.00    -0.073 S 
ATOM      9  C   UNL     1       1.070   3.359   0.010  0.00  0.00    +0.116 A 
ATOM     10  C   UNL     1       1.210   1.959   0.001  0.00  0.00    +0.077 A 
ATOM     11  C   UNL     1      -0.015   1.215   0.009  0.00  0.00    +0.280 A 
ATOM     12  O   UNL     1       0.002  -0.004   0.002  0.00  0.00    -0.265 OA
ATOM     13  N   UNL     1      -1.183   1.883   0.018  0.00  0.00    -0.212 N 
ATOM     14  C   UNL     1      -1.221   3.240   0.031  0.00  0.00    +0.223 A 
ATOM     15  N   UNL     1      -0.122   3.947   0.025  0.00  0.00    -0.228 NA
ATOM     16  C   UNL     1       5.068   2.101  -0.036  0.00  0.00    +0.052 C 
ENDBRANCH   1  13
BRANCH   2  17
ATOM     17  C   UNL     1      -4.406   0.295   1.152  0.00  0.00    +0.326 C 
BRANCH  17  18
ATOM     18  O   UNL     1      -4.987   0.342   2.456  0.00  0.00    -0.481 OA
BRANCH  18  19
ATOM     19  C   UNL     1      -6.167  -0.312   2.630  0.00  0.00    +0.140 A 
ATOM     20  C   UNL     1      -6.751  -0.985   1.567  0.00  0.00    +0.048 A 
ATOM     21  C   UNL     1      -7.949  -1.649   1.746  0.00  0.00    +0.023 A 
ATOM     22  C   UNL     1      -8.567  -1.643   2.984  0.00  0.00    +0.043 A 
ATOM     23  C   UNL     1      -7.987  -0.973   4.046  0.00  0.00    +0.043 A 
ATOM     24  C   UNL     1      -6.784  -0.312   3.873  0.00  0.00    +0.084 A 
ATOM     25 CL   UNL     1      -6.052   0.523   5.207  0.00  0.00    -0.080 Cl
ATOM     26 CL   UNL     1     -10.072  -2.479   3.205  0.00  0.00    -0.083 Cl
ENDBRANCH  18  19
ENDBRANCH  17  18
ENDBRANCH   2  17
TORSDOF 4
