REMARK  Name = ZINC40427324
REMARK  8 active torsions:
REMARK  status: ('A' for Active; 'I' for Inactive)
REMARK    1  A    between atoms: C_1  and  C_2
REMARK    2  A    between atoms: C_5  and  S_8
REMARK    3  A    between atoms: S_8  and  N_11
REMARK    4  A    between atoms: C_17  and  C_19
REMARK    5  A    between atoms: C_19  and  C_21
REMARK    6  A    between atoms: C_19  and  N_22
REMARK    7  A    between atoms: C_30  and  C_32
REMARK    8  A    between atoms: C_37  and  C_38
REMARK                            x       y       z     vdW  Elec       q    Type
REMARK                         _______ _______ _______ _____ _____    ______ ____
ROOT
ATOM      1  C   UNL     1       6.374  -5.080   1.219  0.00  0.00    +0.018 C 
ATOM      2  C   UNL     1       6.226  -3.669   1.792  0.00  0.00    -0.004 C 
ENDROOT
BRANCH   1   3
ATOM      3  N   UNL     1       7.796  -5.372   0.997  0.00  0.00    +0.395 N 
ATOM      4  C   UNL     1       8.384  -4.308   0.171  0.00  0.00    -0.071 C 
ATOM      5  C   UNL     1       9.761  -4.773  -0.334  0.00  0.00    +0.024 C 
ATOM      6  C   UNL     1      10.501  -5.337   0.835  0.00  0.00    -0.010 A 
ATOM      7  C   UNL     1       9.972  -5.663   2.047  0.00  0.00    -0.047 A 
ATOM      8  C   UNL     1      10.856  -6.171   2.996  0.00  0.00    +0.010 A 
ATOM      9  C   UNL     1      12.166  -6.321   2.688  0.00  0.00    +0.045 A 
ATOM     10  S   UNL     1      12.217  -5.737   1.000  0.00  0.00    -0.101 S 
ATOM     11  C   UNL     1       8.479  -5.463   2.293  0.00  0.00    -0.005 C 
ATOM     12  H   UNL     1       7.883  -6.253   0.513  0.00  0.00    -0.079 HD
BRANCH  11  13
ATOM     13  C   UNL     1       7.933  -6.633   3.070  0.00  0.00    -0.054 A 
ATOM     14  C   UNL     1       7.431  -7.733   2.401  0.00  0.00    +0.002 A 
ATOM     15  C   UNL     1       6.930  -8.806   3.114  0.00  0.00    +0.000 A 
ATOM     16  C   UNL     1       6.932  -8.779   4.496  0.00  0.00    +0.000 A 
ATOM     17  C   UNL     1       7.435  -7.679   5.165  0.00  0.00    +0.003 A 
ATOM     18  C   UNL     1       7.940  -6.608   4.452  0.00  0.00    -0.049 A 
ATOM     19  C   UNL     1       8.493  -5.410   5.181  0.00  0.00    +0.044 C 
ENDBRANCH  11  13
ENDBRANCH   1   3
BRANCH   1  26
ATOM     20  N   UNL     1       1.831  -6.381  -0.151  0.00  0.00    -0.174 NA
ATOM     21  C   UNL     1       2.589  -6.346  -1.410  0.00  0.00    +0.128 C 
ATOM     22  C   UNL     1       3.546  -5.148  -1.371  0.00  0.00    +0.125 C 
ATOM     23  N   UNL     1       4.284  -5.177  -0.100  0.00  0.00    -0.300 N 
ATOM     24  C   UNL     1       3.526  -5.213   1.158  0.00  0.00    +0.125 C 
ATOM     25  C   UNL     1       2.568  -6.405   1.120  0.00  0.00    +0.128 C 
ATOM     26  C   UNL     1       5.631  -5.172  -0.089  0.00  0.00    +0.202 C 
ATOM     27  O   UNL     1       6.247  -5.241  -1.132  0.00  0.00    -0.277 OA
BRANCH  20  28
ATOM     28  S   UNL     1       0.175  -6.388  -0.165  0.00  0.00    +0.061 S 
ATOM     29  O   UNL     1      -0.239  -6.966   1.065  0.00  0.00    -0.153 OA
ATOM     30  O   UNL     1      -0.219  -6.914  -1.425  0.00  0.00    -0.153 OA
BRANCH  28  35
ATOM     31  C   UNL     1      -1.637  -0.633  -0.059  0.00  0.00    +0.044 C 
ATOM     32  C   UNL     1      -1.184  -2.071  -0.086  0.00  0.00    -0.050 A 
ATOM     33  C   UNL     1      -0.966  -2.704  -1.295  0.00  0.00    +0.005 A 
ATOM     34  C   UNL     1      -0.551  -4.023  -1.319  0.00  0.00    +0.029 A 
ATOM     35  C   UNL     1      -0.353  -4.707  -0.134  0.00  0.00    +0.105 A 
ATOM     36  C   UNL     1      -0.571  -4.073   1.075  0.00  0.00    +0.029 A 
ATOM     37  C   UNL     1      -0.982  -2.753   1.099  0.00  0.00    +0.005 A 
ENDBRANCH  28  35
ENDBRANCH  20  28
ENDBRANCH   1  26
TORSDOF 5
