REMARK  Name = ZINC00569816
REMARK  4 active torsions:
REMARK  status: ('A' for Active; 'I' for Inactive)
REMARK    1  A    between atoms: C_1  and  C_2
REMARK    2  A    between atoms: C_2  and  C_3
REMARK    3  A    between atoms: C_6  and  N_9
REMARK    4  A    between atoms: C_13  and  N_19
REMARK                            x       y       z     vdW  Elec       q    Type
REMARK                         _______ _______ _______ _____ _____    ______ ____
ROOT
ATOM      1  N   UNL     1       1.197   1.752   0.000  0.00  0.00    -0.149 N 
ATOM      2  N   UNL     1       2.065   0.802  -0.013  0.00  0.00    -0.147 NA
ATOM      3  C   UNL     1       1.429  -0.359  -0.013  0.00  0.00    +0.115 A 
ATOM      4  C   UNL     1       1.791  -1.716  -0.023  0.00  0.00    +0.055 A 
ATOM      5  C   UNL     1       0.815  -2.671  -0.020  0.00  0.00    +0.041 A 
ATOM      6  C   UNL     1      -0.545  -2.330  -0.005  0.00  0.00    +0.041 A 
ATOM      7  C   UNL     1      -0.954  -1.035   0.006  0.00  0.00    +0.049 A 
ATOM      8  C   UNL     1       0.002  -0.004   0.002  0.00  0.00    +0.114 A 
ATOM      9  N   UNL     1      -0.016   1.320   0.009  0.00  0.00    -0.147 NA
ATOM     10 BR   UNL     1      -1.841  -3.707  -0.000  0.00  0.00    -0.048 Br
ENDROOT
BRANCH   1  14
ATOM     11  C   UNL     1       2.202   5.797   0.012  0.00  0.00    -0.047 A 
ATOM     12  C   UNL     1       0.872   5.417   0.022  0.00  0.00    +0.006 A 
ATOM     13  C   UNL     1       0.536   4.077   0.018  0.00  0.00    +0.030 A 
ATOM     14  C   UNL     1       1.534   3.112   0.004  0.00  0.00    +0.086 A 
ATOM     15  C   UNL     1       2.869   3.497  -0.002  0.00  0.00    +0.030 A 
ATOM     16  C   UNL     1       3.198   4.838  -0.003  0.00  0.00    +0.006 A 
BRANCH  11  18
ATOM     17  C   UNL     1       2.702   7.747   1.460  0.00  0.00    +0.009 C 
ATOM     18  C   UNL     1       2.565   7.260   0.016  0.00  0.00    +0.032 C 
ENDBRANCH  11  18
ENDBRANCH   1  14
BRANCH   5  19
ATOM     19  N   UNL     1       1.180  -4.020  -0.030  0.00  0.00    -0.357 N 
ATOM     20  H   UNL     1       0.496  -4.707  -0.027  0.00  0.00    +0.142 HD
ATOM     21  H   UNL     1       2.118  -4.268  -0.040  0.00  0.00    +0.142 HD
ENDBRANCH   5  19
TORSDOF 3
