REMARK  Name = ZINC52094606
REMARK  5 active torsions:
REMARK  status: ('A' for Active; 'I' for Inactive)
REMARK    1  A    between atoms: C_1  and  C_2
REMARK    2  A    between atoms: C_2  and  N_3
REMARK    3  A    between atoms: N_3  and  C_4
REMARK    4  A    between atoms: C_4  and  C_6
REMARK    5  A    between atoms: C_4  and  C_19
REMARK                            x       y       z     vdW  Elec       q    Type
REMARK                         _______ _______ _______ _____ _____    ______ ____
ROOT
ATOM      1  C   UNL     1       1.665  -2.538  -2.351  0.00  0.00    -0.043 A 
ATOM      2  C   UNL     1       2.043  -1.800  -3.456  0.00  0.00    +0.031 A 
ATOM      3  C   UNL     1       2.905  -2.349  -4.392  0.00  0.00    +0.067 A 
ATOM      4  C   UNL     1       3.390  -3.647  -4.214  0.00  0.00    +0.068 A 
ATOM      5  C   UNL     1       3.006  -4.381  -3.102  0.00  0.00    +0.043 A 
ATOM      6  C   UNL     1       2.150  -3.823  -2.171  0.00  0.00    +0.022 A 
ATOM      7 BR   UNL     1       1.633  -4.820  -0.650  0.00  0.00    -0.050 Br
ATOM      8  N   UNL     1       4.221  -3.919  -5.298  0.00  0.00    -0.306 N 
ATOM      9  H   UNL     1       4.703  -4.747  -5.450  0.00  0.00    +0.170 HD
ATOM     10  C   UNL     1       4.241  -2.837  -6.099  0.00  0.00    +0.325 A 
ATOM     11  O   UNL     1       4.872  -2.744  -7.135  0.00  0.00    -0.247 OA
ATOM     12  N   UNL     1       3.458  -1.873  -5.579  0.00  0.00    -0.306 N 
ATOM     13  H   UNL     1       3.303  -0.997  -5.965  0.00  0.00    +0.170 HD
ENDROOT
BRANCH   1  14
ATOM     14  C   UNL     1       0.728  -1.941  -1.334  0.00  0.00    -0.010 C 
BRANCH  14  15
ATOM     15  C   UNL     1      -0.688  -2.469  -1.574  0.00  0.00    +0.109 C 
ATOM     16  C   UNL     1      -1.638  -1.876  -0.529  0.00  0.00    +0.030 C 
ATOM     17  C   UNL     1      -3.063  -2.361  -0.812  0.00  0.00    +0.005 C 
ATOM     18  C   UNL     1      -3.450  -1.967  -2.241  0.00  0.00    +0.028 C 
ATOM     19  C   UNL     1      -2.431  -2.556  -3.219  0.00  0.00    +0.160 C 
ATOM     20  O   UNL     1      -1.123  -2.089  -2.881  0.00  0.00    -0.378 OA
ENDBRANCH  14  15
BRANCH  14  21
ATOM     21  N   UNL     1       0.733  -0.477  -1.463  0.00  0.00    +0.385 N 
ATOM     22  H   UNL     1       0.033  -0.083  -0.853  0.00  0.00    -0.085 HD
ATOM     23  H   UNL     1       0.529  -0.223  -2.418  0.00  0.00    -0.085 HD
BRANCH  21  25
ATOM     24  C   UNL     1       2.100   1.551  -1.341  0.00  0.00    -0.017 C 
ATOM     25  C   UNL     1       2.055   0.042  -1.090  0.00  0.00    -0.085 C 
ENDBRANCH  21  25
ENDBRANCH  14  21
ENDBRANCH   1  14
TORSDOF 4
