REMARK  Name = ZINC67369826
REMARK  4 active torsions:
REMARK  status: ('A' for Active; 'I' for Inactive)
REMARK    1  A    between atoms: C_6  and  N_7
REMARK    2  A    between atoms: C_10  and  C_13
REMARK    3  A    between atoms: C_13  and  N_14
REMARK    4  A    between atoms: C_19  and  C_21
REMARK                            x       y       z     vdW  Elec       q    Type
REMARK                         _______ _______ _______ _____ _____    ______ ____
ROOT
ATOM      1  N   UNL     1      -1.199  -0.720   0.010  0.00  0.00    -0.329 N 
ATOM      2  C   UNL     1      -2.546  -0.133   0.020  0.00  0.00    +0.105 C 
ATOM      3  C   UNL     1      -3.555  -1.301  -0.002  0.00  0.00    +0.025 C 
ATOM      4  C   UNL     1      -2.722  -2.469  -0.594  0.00  0.00    +0.025 C 
ATOM      5  C   UNL     1      -1.323  -2.189   0.004  0.00  0.00    +0.110 C 
ENDROOT
BRANCH   1  11
ATOM      6  C   UNL     1      -0.017   1.384   0.010  0.00  0.00    +0.026 A 
ATOM      7  C   UNL     1       1.171   2.091   0.002  0.00  0.00    +0.043 A 
ATOM      8  C   UNL     1       2.379   1.417  -0.013  0.00  0.00    +0.159 A 
ATOM      9  C   UNL     1       2.401   0.030  -0.021  0.00  0.00    +0.160 A 
ATOM     10  C   UNL     1       1.215  -0.680  -0.014  0.00  0.00    +0.064 A 
ATOM     11  C   UNL     1       0.002  -0.004   0.002  0.00  0.00    +0.033 A 
ATOM     12  F   UNL     1       3.582  -0.626  -0.037  0.00  0.00    -0.202 F 
ATOM     13  F   UNL     1       3.538   2.111  -0.020  0.00  0.00    -0.202 F 
ENDBRANCH   1  11
BRANCH   4  14
ATOM     14  C   UNL     1      -3.262  -3.821  -0.125  0.00  0.00    +0.108 C 
BRANCH  14  15
ATOM     15  N   UNL     1      -4.598  -4.036  -0.688  0.00  0.00    -0.329 N 
ATOM     16  C   UNL     1      -5.294  -5.204  -0.400  0.00  0.00    +0.120 A 
ATOM     17  C   UNL     1      -4.717  -6.163   0.430  0.00  0.00    +0.045 A 
ATOM     18  C   UNL     1      -5.414  -7.323   0.713  0.00  0.00    +0.026 A 
ATOM     19  C   UNL     1      -6.675  -7.493   0.156  0.00  0.00    +0.077 A 
ATOM     20  C   UNL     1      -7.194  -6.495  -0.667  0.00  0.00    +0.160 A 
ATOM     21  N   UNL     1      -6.497  -5.390  -0.912  0.00  0.00    -0.220 NA
ATOM     22 CL   UNL     1      -7.592  -8.931   0.479  0.00  0.00    -0.081 Cl
ATOM     23  H   UNL     1      -4.995  -3.363  -1.262  0.00  0.00    +0.147 HD
BRANCH  20  24
ATOM     24  C   UNL     1      -8.493  -6.658  -1.247  0.00  0.00    +0.121 C 
ATOM     25  N   UNL     1      -9.524  -6.788  -1.708  0.00  0.00    -0.189 NA
ENDBRANCH  20  24
ENDBRANCH  14  15
ENDBRANCH   4  14
TORSDOF 4
