REMARK  Name = ZINC09847125
REMARK  4 active torsions:
REMARK  status: ('A' for Active; 'I' for Inactive)
REMARK    1  A    between atoms: C_3  and  C_9
REMARK    2  A    between atoms: C_9  and  N_10
REMARK    3  A    between atoms: N_17  and  C_18
REMARK    4  A    between atoms: C_18  and  C_19
REMARK                            x       y       z     vdW  Elec       q    Type
REMARK                         _______ _______ _______ _____ _____    ______ ____
ROOT
ATOM      1  N   UNL     1       6.988  -0.353  -3.704  0.00  0.00    -0.310 N 
ATOM      2  C   UNL     1       6.069  -0.147  -2.691  0.00  0.00    +0.213 A 
ATOM      3  N   UNL     1       6.173  -0.596  -1.423  0.00  0.00    -0.245 N 
ATOM      4  H   UNL     1       6.899  -1.119  -1.050  0.00  0.00    +0.192 HD
ATOM      5  N   UNL     1       5.025  -0.150  -0.748  0.00  0.00    -0.135 NA
ATOM      6  C   UNL     1       4.305   0.517  -1.618  0.00  0.00    +0.236 A 
ATOM      7  N   UNL     1       4.940   0.521  -2.795  0.00  0.00    -0.180 NA
ATOM      8  N   UNL     1       3.078   1.128  -1.356  0.00  0.00    -0.308 N 
ATOM      9  H   UNL     1       6.825   0.010  -4.588  0.00  0.00    +0.149 HD
ATOM     10  H   UNL     1       2.614   1.606  -2.061  0.00  0.00    +0.149 HD
ENDROOT
BRANCH   1  11
ATOM     11  C   UNL     1       8.207  -1.122  -3.442  0.00  0.00    +0.141 C 
BRANCH  11  14
ATOM     12  C   UNL     1      10.930  -0.501  -5.982  0.00  0.00    +0.020 A 
ATOM     13  C   UNL     1      10.173  -0.429  -4.828  0.00  0.00    +0.008 A 
ATOM     14  C   UNL     1       9.032  -1.200  -4.700  0.00  0.00    -0.012 A 
ATOM     15  C   UNL     1       8.651  -2.047  -5.726  0.00  0.00    +0.047 A 
ATOM     16  C   UNL     1       9.406  -2.115  -6.883  0.00  0.00    +0.040 A 
ATOM     17  C   UNL     1      10.547  -1.344  -7.010  0.00  0.00    +0.042 A 
ATOM     18 CL   UNL     1      11.499  -1.433  -8.460  0.00  0.00    -0.083 Cl
ATOM     19 CL   UNL     1       7.223  -3.020  -5.563  0.00  0.00    -0.083 Cl
ENDBRANCH  11  14
ENDBRANCH   1  11
BRANCH   8  20
ATOM     20  C   UNL     1       2.490   1.047  -0.017  0.00  0.00    +0.141 C 
BRANCH  20  21
ATOM     21  C   UNL     1       1.175   1.783   0.000  0.00  0.00    -0.012 A 
ATOM     22  C   UNL     1      -0.013   1.076   0.008  0.00  0.00    +0.008 A 
ATOM     23  C   UNL     1      -1.219   1.750   0.017  0.00  0.00    +0.020 A 
ATOM     24  C   UNL     1      -1.238   3.134   0.031  0.00  0.00    +0.042 A 
ATOM     25  C   UNL     1      -0.050   3.842   0.023  0.00  0.00    +0.040 A 
ATOM     26  C   UNL     1       1.157   3.166   0.008  0.00  0.00    +0.047 A 
ATOM     27 CL   UNL     1       2.649   4.054  -0.001  0.00  0.00    -0.083 Cl
ATOM     28 CL   UNL     1      -2.753   3.981   0.050  0.00  0.00    -0.083 Cl
ENDBRANCH  20  21
ENDBRANCH   8  20
TORSDOF 4
