REMARK  Name = ZINC41160678
REMARK  7 active torsions:
REMARK  status: ('A' for Active; 'I' for Inactive)
REMARK    1  A    between atoms: C_1  and  C_2
REMARK    2  A    between atoms: C_2  and  C_3
REMARK    3  A    between atoms: C_3  and  N_4
REMARK    4  A    between atoms: N_4  and  C_5
REMARK    5  A    between atoms: C_5  and  C_6
REMARK    6  A    between atoms: C_6  and  N_7
REMARK    7  A    between atoms: N_10  and  C_11
REMARK                            x       y       z     vdW  Elec       q    Type
REMARK                         _______ _______ _______ _____ _____    ______ ____
ROOT
ATOM      1  N   UNL     1      -1.413  -1.998   0.005  0.00  0.00    -0.287 N 
ATOM      2  C   UNL     1      -1.415  -2.666  -1.166  0.00  0.00    +0.303 C 
ATOM      3  O   UNL     1      -1.399  -3.882  -1.173  0.00  0.00    -0.253 OA
ATOM      4  N   UNL     1      -1.436  -1.986  -2.329  0.00  0.00    -0.294 N 
ATOM      5  H   UNL     1      -1.449  -1.016  -2.324  0.00  0.00    +0.151 HD
ENDROOT
BRANCH   4   6
ATOM      6  C   UNL     1      -1.438  -2.712  -3.602  0.00  0.00    +0.037 C 
ATOM      7  C   UNL     1      -0.178  -3.574  -3.700  0.00  0.00    +0.029 C 
ATOM      8  C   UNL     1      -0.180  -4.332  -5.029  0.00  0.00    -0.008 C 
ATOM      9  C   UNL     1      -0.204  -3.331  -6.186  0.00  0.00    +0.007 C 
ATOM     10  C   UNL     1      -1.465  -2.469  -6.089  0.00  0.00    -0.008 C 
ATOM     11  C   UNL     1      -1.462  -1.711  -4.760  0.00  0.00    +0.029 C 
ATOM     12  C   UNL     1      -2.703  -3.365  -6.163  0.00  0.00    +0.007 C 
ATOM     13  C   UNL     1      -2.678  -4.365  -5.005  0.00  0.00    -0.008 C 
ATOM     14  C   UNL     1      -1.418  -5.228  -5.103  0.00  0.00    +0.007 C 
ATOM     15  C   UNL     1      -2.676  -3.608  -3.676  0.00  0.00    +0.029 C 
ENDBRANCH   4   6
BRANCH   1  16
ATOM     16  C   UNL     1      -1.433  -0.534   0.013  0.00  0.00    +0.109 C 
BRANCH  16  18
ATOM     17  C   UNL     1      -0.019   1.526   0.010  0.00  0.00    +0.005 C 
ATOM     18  C   UNL     1       0.002  -0.004   0.002  0.00  0.00    +0.016 C 
ENDBRANCH  16  18
ENDBRANCH   1  16
BRANCH   1  19
ATOM     19  C   UNL     1      -1.391  -2.738   1.269  0.00  0.00    +0.090 C 
BRANCH  19  20
ATOM     20  C   UNL     1      -2.826  -3.015   1.723  0.00  0.00    -0.067 C 
BRANCH  20  21
ATOM     21  N   UNL     1      -2.804  -3.756   2.991  0.00  0.00    +0.379 N 
ATOM     22  H   UNL     1      -2.317  -4.630   2.861  0.00  0.00    -0.090 HD
ATOM     23  H   UNL     1      -2.329  -3.208   3.693  0.00  0.00    -0.090 HD
ATOM     24  H   UNL     1      -3.750  -3.939   3.291  0.00  0.00    -0.090 HD
ENDBRANCH  20  21
ENDBRANCH  19  20
ENDBRANCH   1  19
TORSDOF 6
