REMARK  Name = ZINC26580174
REMARK  9 active torsions:
REMARK  status: ('A' for Active; 'I' for Inactive)
REMARK    1  A    between atoms: C_1  and  N_2
REMARK    2  A    between atoms: N_2  and  C_3
REMARK    3  A    between atoms: N_2  and  S_29
REMARK    4  A    between atoms: C_3  and  C_4
REMARK    5  A    between atoms: C_4  and  C_6
REMARK    6  A    between atoms: C_4  and  C_23
REMARK    7  A    between atoms: C_6  and  C_7
REMARK    8  A    between atoms: C_7  and  N_8
REMARK    9  A    between atoms: S_29  and  C_32
REMARK                            x       y       z     vdW  Elec       q    Type
REMARK                         _______ _______ _______ _____ _____    ______ ____
ROOT
ATOM      1  C   UNL     1       9.431   4.607  -2.466  0.00  0.00    +0.006 C 
ENDROOT
BRANCH   1   2
ATOM      2  C   UNL     1       9.128   5.940  -1.779  0.00  0.00    -0.007 C 
ATOM      3  C   UNL     1       7.784   6.476  -2.277  0.00  0.00    +0.004 C 
ATOM      4  C   UNL     1       7.481   7.809  -1.590  0.00  0.00    +0.000 C 
ATOM      5  C   UNL     1       8.585   8.815  -1.920  0.00  0.00    +0.000 C 
ATOM      6  C   UNL     1       9.929   8.280  -1.423  0.00  0.00    +0.000 C 
ATOM      7  C   UNL     1      10.232   6.946  -2.109  0.00  0.00    +0.004 C 
ENDBRANCH   1   2
BRANCH   1   8
ATOM      8  C   UNL     1       9.349   4.784  -3.983  0.00  0.00    +0.113 C 
BRANCH   8  10
ATOM      9  C   UNL     1      11.136   3.148  -4.737  0.00  0.00    +0.131 C 
ATOM     10  N   UNL     1       9.725   3.531  -4.643  0.00  0.00    -0.179 NA
BRANCH  10  11
ATOM     11  S   UNL     1       8.556   2.548  -5.281  0.00  0.00    +0.061 S 
ATOM     12  O   UNL     1       9.049   1.218  -5.190  0.00  0.00    -0.153 OA
ATOM     13  O   UNL     1       7.325   2.946  -4.693  0.00  0.00    -0.153 OA
BRANCH  11  14
ATOM     14  C   UNL     1       8.438   2.925  -6.998  0.00  0.00    +0.105 A 
ATOM     15  C   UNL     1       7.639   3.970  -7.424  0.00  0.00    +0.028 A 
ATOM     16  C   UNL     1       7.551   4.268  -8.771  0.00  0.00    +0.002 A 
ATOM     17  C   UNL     1       8.254   3.516  -9.693  0.00  0.00    +0.000 A 
ATOM     18  C   UNL     1       9.049   2.468  -9.268  0.00  0.00    +0.002 A 
ATOM     19  C   UNL     1       9.141   2.172  -7.921  0.00  0.00    +0.028 A 
ENDBRANCH  11  14
ENDBRANCH  10  11
ENDBRANCH   8  10
ENDBRANCH   1   8
BRANCH   1  20
ATOM     20  C   UNL     1       8.410   3.559  -2.019  0.00  0.00    -0.014 C 
BRANCH  20  21
ATOM     21  C   UNL     1       8.593   3.273  -0.527  0.00  0.00    -0.079 C 
BRANCH  21  22
ATOM     22  N   UNL     1       7.708   2.171  -0.128  0.00  0.00    +0.380 N 
ATOM     23  C   UNL     1       7.677   2.023   1.333  0.00  0.00    -0.078 C 
ATOM     24  C   UNL     1       6.867   0.779   1.705  0.00  0.00    -0.006 C 
ATOM     25  C   UNL     1       5.443   0.923   1.157  0.00  0.00    +0.005 C 
ATOM     26  C   UNL     1       5.506   1.123  -0.362  0.00  0.00    -0.006 C 
ATOM     27  C   UNL     1       6.357   2.357  -0.672  0.00  0.00    -0.078 C 
ATOM     28  C   UNL     1       4.792   2.174   1.792  0.00  0.00    +0.120 C 
ATOM     29  S   UNL     1       3.044   1.602   1.863  0.00  0.00    +0.055 S 
ATOM     30  O   UNL     1       2.407   1.871   0.622  0.00  0.00    -0.252 OA
ATOM     31  C   UNL     1       3.333  -0.153   1.828  0.00  0.00    +0.043 A 
ATOM     32  C   UNL     1       4.658  -0.329   1.464  0.00  0.00    -0.025 A 
ATOM     33  C   UNL     1       5.135  -1.643   1.408  0.00  0.00    +0.005 A 
ATOM     34  C   UNL     1       4.314  -2.711   1.691  0.00  0.00    +0.000 A 
ATOM     35  C   UNL     1       2.991  -2.510   2.036  0.00  0.00    +0.001 A 
ATOM     36  C   UNL     1       2.504  -1.216   2.102  0.00  0.00    +0.017 A 
ATOM     37  H   UNL     1       8.114   1.239  -0.550  0.00  0.00    -0.082 HD
ENDBRANCH  21  22
ENDBRANCH  20  21
ENDBRANCH   1  20
TORSDOF 8
