REMARK  Name = ZINC21177714
REMARK  6 active torsions:
REMARK  status: ('A' for Active; 'I' for Inactive)
REMARK    1  A    between atoms: C_1  and  C_2
REMARK    2  A    between atoms: C_7  and  C_8
REMARK    3  A    between atoms: C_8  and  O_9
REMARK    4  A    between atoms: O_9  and  C_10
REMARK    5  A    between atoms: C_13  and  C_16
REMARK    6  A    between atoms: C_24  and  C_36
REMARK                            x       y       z     vdW  Elec       q    Type
REMARK                         _______ _______ _______ _____ _____    ______ ____
ROOT
ATOM      1  C   UNL     1       6.591   8.829  -0.015  0.00  0.00    +0.063 C 
ATOM      2  C   UNL     1       7.455   8.577   1.225  0.00  0.00    +0.109 C 
ATOM      3  C   UNL     1       8.820   9.186   1.070  0.00  0.00    +0.219 C 
ATOM      4  O   UNL     1       9.343   9.709   2.032  0.00  0.00    -0.275 OA
ATOM      5  N   UNL     1       9.481   9.171  -0.107  0.00  0.00    -0.270 N 
ATOM      6  C   UNL     1       8.792   8.749  -1.242  0.00  0.00    +0.135 A 
ATOM      7  C   UNL     1       7.433   8.574  -1.239  0.00  0.00    +0.023 A 
ATOM      8  C   UNL     1       7.053   8.149  -2.504  0.00  0.00    +0.066 A 
ATOM      9  N   UNL     1       8.127   8.078  -3.255  0.00  0.00    -0.168 NA
ATOM     10  N   UNL     1       9.236   8.462  -2.485  0.00  0.00    -0.193 N 
ATOM     11  C   UNL     1      10.553   8.535  -2.922  0.00  0.00    +0.196 A 
ATOM     12  N   UNL     1      11.042   8.270  -4.111  0.00  0.00    -0.221 NA
ATOM     13  C   UNL     1      12.356   8.385  -4.398  0.00  0.00    +0.081 A 
ATOM     14  C   UNL     1      13.006   8.133  -5.629  0.00  0.00    +0.029 A 
ATOM     15  C   UNL     1      14.360   8.301  -5.753  0.00  0.00    +0.002 A 
ATOM     16  C   UNL     1      15.139   8.721  -4.684  0.00  0.00    +0.001 A 
ATOM     17  C   UNL     1      14.537   8.976  -3.466  0.00  0.00    +0.017 A 
ATOM     18  C   UNL     1      13.181   8.811  -3.332  0.00  0.00    +0.041 A 
ATOM     19  S   UNL     1      12.012   9.020  -2.010  0.00  0.00    -0.048 S 
ATOM     20  C   UNL     1       5.648   7.823  -2.940  0.00  0.00    +0.068 C 
ATOM     21  H   UNL     1      10.534   9.485  -0.150  0.00  0.00    +0.156 HD
ENDROOT
BRANCH   1  25
ATOM     22  C   UNL     1       3.237   6.180   0.003  0.00  0.00    +0.121 A 
ATOM     23  C   UNL     1       4.527   5.669  -0.006  0.00  0.00    +0.046 A 
ATOM     24  C   UNL     1       5.609   6.527  -0.017  0.00  0.00    +0.008 A 
ATOM     25  C   UNL     1       5.408   7.895  -0.008  0.00  0.00    -0.039 A 
ATOM     26  C   UNL     1       4.124   8.407   0.006  0.00  0.00    +0.008 A 
ATOM     27  C   UNL     1       3.038   7.553   0.012  0.00  0.00    +0.046 A 
BRANCH  22  28
ATOM     28  O   UNL     1       2.171   5.338   0.009  0.00  0.00    -0.487 OA
BRANCH  28  29
ATOM     29  C   UNL     1       2.451   3.937  -0.001  0.00  0.00    +0.264 C 
BRANCH  29  36
ATOM     30  C   UNL     1       2.490   1.048  -0.016  0.00  0.00    +0.044 C 
ATOM     31  C   UNL     1       1.175   1.783   0.000  0.00  0.00    -0.044 A 
ATOM     32  C   UNL     1      -0.013   1.076   0.008  0.00  0.00    +0.004 A 
ATOM     33  C   UNL     1      -1.219   1.750   0.017  0.00  0.00    +0.000 A 
ATOM     34  C   UNL     1      -1.238   3.133   0.030  0.00  0.00    +0.000 A 
ATOM     35  C   UNL     1      -0.050   3.840   0.023  0.00  0.00    +0.007 A 
ATOM     36  C   UNL     1       1.157   3.165   0.008  0.00  0.00    -0.007 A 
ENDBRANCH  29  36
ENDBRANCH  28  29
ENDBRANCH  22  28
ENDBRANCH   1  25
TORSDOF 4
