REMARK  Name = ZINC11383359
REMARK  11 active torsions:
REMARK  status: ('A' for Active; 'I' for Inactive)
REMARK    1  A    between atoms: C_1  and  C_2
REMARK    2  A    between atoms: C_2  and  C_4
REMARK    3  A    between atoms: C_2  and  O_13
REMARK    4  A    between atoms: N_6  and  C_7
REMARK    5  A    between atoms: O_13  and  C_14
REMARK    6  A    between atoms: C_14  and  C_16
REMARK    7  A    between atoms: C_16  and  C_17
REMARK    8  A    between atoms: C_17  and  C_18
REMARK    9  A    between atoms: C_22  and  S_28
REMARK   10  A    between atoms: N_26  and  C_27
REMARK   11  A    between atoms: S_28  and  N_31
REMARK                            x       y       z     vdW  Elec       q    Type
REMARK                         _______ _______ _______ _____ _____    ______ ____
ROOT
ATOM      1  C   UNL     1      -3.795   1.670   0.041  0.00  0.00    +0.111 A 
ATOM      2  N   UNL     1      -4.452   2.032  -1.022  0.00  0.00    -0.232 NA
ATOM      3  C   UNL     1      -5.592   2.674  -0.657  0.00  0.00    +0.091 A 
ATOM      4  C   UNL     1      -6.640   3.258  -1.373  0.00  0.00    +0.058 A 
ATOM      5  C   UNL     1      -7.678   3.843  -0.704  0.00  0.00    +0.108 A 
ATOM      6  C   UNL     1      -7.703   3.865   0.683  0.00  0.00    +0.030 A 
ATOM      7  C   UNL     1      -6.680   3.296   1.410  0.00  0.00    +0.030 A 
ATOM      8  C   UNL     1      -5.617   2.696   0.748  0.00  0.00    +0.069 A 
ATOM      9  N   UNL     1      -4.470   2.048   1.160  0.00  0.00    -0.331 N 
ATOM     10  C   UNL     1      -4.055   1.814   2.546  0.00  0.00    +0.150 C 
ENDROOT
BRANCH   5  11
ATOM     11  S   UNL     1      -8.997   4.577  -1.612  0.00  0.00    +0.061 S 
ATOM     12  O   UNL     1      -9.014   3.947  -2.886  0.00  0.00    -0.153 OA
ATOM     13  O   UNL     1     -10.128   4.585  -0.752  0.00  0.00    -0.153 OA
BRANCH  11  14
ATOM     14  N   UNL     1      -8.590   6.161  -1.873  0.00  0.00    -0.177 NA
ATOM     15  C   UNL     1      -8.977   7.201  -0.911  0.00  0.00    +0.109 C 
ATOM     16  C   UNL     1      -7.719   7.982  -0.503  0.00  0.00    +0.017 C 
ATOM     17  C   UNL     1      -7.027   8.515  -1.760  0.00  0.00    +0.003 C 
ATOM     18  C   UNL     1      -6.600   7.342  -2.645  0.00  0.00    +0.017 C 
ATOM     19  C   UNL     1      -7.841   6.553  -3.074  0.00  0.00    +0.109 C 
ENDBRANCH  11  14
ENDBRANCH   5  11
BRANCH   1  20
ATOM     20  C   UNL     1      -2.481   0.932   0.034  0.00  0.00    +0.085 C 
BRANCH  20  21
ATOM     21  C   UNL     1      -1.330   1.941   0.025  0.00  0.00    +0.128 C 
BRANCH  21  22
ATOM     22  C   UNL     1      -0.016   1.204   0.018  0.00  0.00    +0.308 C 
ATOM     23  O   UNL     1      -0.001  -0.004   0.019  0.00  0.00    -0.251 OA
BRANCH  22  24
ATOM     24  O   UNL     1       1.138   1.889   0.004  0.00  0.00    -0.452 OA
BRANCH  24  26
ATOM     25  C   UNL     1       2.780   0.839  -1.456  0.00  0.00    +0.062 C 
ATOM     26  C   UNL     1       2.365   1.114  -0.009  0.00  0.00    +0.259 C 
BRANCH  26  27
ATOM     27  C   UNL     1       3.455   1.887   0.688  0.00  0.00    +0.258 C 
ATOM     28  O   UNL     1       3.221   2.983   1.150  0.00  0.00    -0.271 OA
ATOM     29  N   UNL     1       4.691   1.359   0.798  0.00  0.00    -0.282 N 
ATOM     30  H   UNL     1       4.862   0.456   0.489  0.00  0.00    +0.155 HD
BRANCH  29  31
ATOM     31  C   UNL     1       5.727   2.115   1.358  0.00  0.00    +0.033 A 
ATOM     32  C   UNL     1       7.024   1.980   0.880  0.00  0.00    +0.023 A 
ATOM     33  C   UNL     1       8.043   2.731   1.432  0.00  0.00    +0.002 A 
ATOM     34  C   UNL     1       7.775   3.609   2.466  0.00  0.00    +0.000 A 
ATOM     35  C   UNL     1       6.486   3.742   2.948  0.00  0.00    +0.002 A 
ATOM     36  C   UNL     1       5.461   2.998   2.397  0.00  0.00    +0.023 A 
ENDBRANCH  29  31
ENDBRANCH  26  27
ENDBRANCH  24  26
ENDBRANCH  22  24
ENDBRANCH  21  22
ENDBRANCH  20  21
ENDBRANCH   1  20
TORSDOF 9
