REMARK  Name = ZINC28717664
REMARK  8 active torsions:
REMARK  status: ('A' for Active; 'I' for Inactive)
REMARK    1  A    between atoms: C_1  and  C_2
REMARK    2  A    between atoms: C_2  and  C_3
REMARK    3  A    between atoms: C_2  and  N_4
REMARK    4  A    between atoms: N_4  and  S_5
REMARK    5  A    between atoms: S_5  and  C_8
REMARK    6  A    between atoms: C_12  and  C_14
REMARK    7  A    between atoms: N_16  and  N_17
REMARK    8  A    between atoms: C_18  and  C_20
REMARK                            x       y       z     vdW  Elec       q    Type
REMARK                         _______ _______ _______ _____ _____    ______ ____
ROOT
ATOM      1  C   UNL     1      -1.571   2.658  -1.502  0.00  0.00    +0.106 A 
ATOM      2  C   UNL     1      -1.088   3.952  -1.586  0.00  0.00    +0.030 A 
ATOM      3  C   UNL     1      -1.169   4.651  -2.776  0.00  0.00    +0.022 A 
ATOM      4  C   UNL     1      -1.743   4.065  -3.887  0.00  0.00    +0.053 A 
ATOM      5  C   UNL     1      -2.238   2.761  -3.807  0.00  0.00    +0.058 A 
ATOM      6  C   UNL     1      -2.147   2.060  -2.603  0.00  0.00    +0.043 A 
ATOM      7 CL   UNL     1      -1.850   4.946  -5.379  0.00  0.00    -0.083 Cl
ENDROOT
BRANCH   5   8
ATOM      8  C   UNL     1      -2.853   2.126  -4.991  0.00  0.00    +0.262 C 
ATOM      9  O   UNL     1      -2.931   2.739  -6.038  0.00  0.00    -0.269 OA
ATOM     10  N   UNL     1      -3.329   0.868  -4.910  0.00  0.00    -0.230 N 
ATOM     11  H   UNL     1      -3.259   0.313  -3.962  0.00  0.00    +0.173 HD
BRANCH  10  12
ATOM     12  N   UNL     1      -3.912   0.266  -6.032  0.00  0.00    -0.229 N 
ATOM     13  C   UNL     1      -4.388  -0.993  -5.952  0.00  0.00    +0.276 C 
ATOM     14  O   UNL     1      -4.310  -1.607  -4.903  0.00  0.00    -0.267 OA
ATOM     15  H   UNL     1      -3.982   0.820  -6.980  0.00  0.00    +0.173 HD
BRANCH  13  16
ATOM     16  C   UNL     1      -4.999  -1.623  -7.127  0.00  0.00    +0.104 A 
ATOM     17  C   UNL     1      -5.518  -2.898  -7.190  0.00  0.00    +0.047 A 
ATOM     18  C   UNL     1      -5.997  -3.084  -8.491  0.00  0.00    +0.036 A 
ATOM     19  C   UNL     1      -5.758  -1.946  -9.187  0.00  0.00    +0.098 A 
ATOM     20  N   UNL     1      -5.152  -1.050  -8.369  0.00  0.00    -0.356 N 
ATOM     21  H   UNL     1      -4.800  -0.024  -8.549  0.00  0.00    +0.166 HD
ATOM     22 BR   UNL     1      -6.822  -4.647  -9.162  0.00  0.00    -0.049 Br
ENDBRANCH  13  16
ENDBRANCH  10  12
ENDBRANCH   5   8
BRANCH   1  23
ATOM     23  S   UNL     1      -1.456   1.774   0.019  0.00  0.00    +0.059 S 
ATOM     24  O   UNL     1      -2.475   0.784  -0.009  0.00  0.00    -0.153 OA
ATOM     25  O   UNL     1      -1.369   2.749   1.049  0.00  0.00    -0.153 OA
BRANCH  23  26
ATOM     26  N   UNL     1      -0.011   0.966   0.007  0.00  0.00    -0.187 NA
ATOM     27  H   UNL     1      -0.005  -0.121  -0.159  0.00  0.00    +0.148 HD
BRANCH  26  29
ATOM     28  C   UNL     1       1.764   1.861   1.432  0.00  0.00    +0.025 C 
ATOM     29  C   UNL     1       1.248   1.716  -0.001  0.00  0.00    +0.070 C 
ATOM     30  C   UNL     1       2.282   0.966  -0.842  0.00  0.00    +0.025 C 
ENDBRANCH  26  29
ENDBRANCH  23  26
ENDBRANCH   1  23
TORSDOF 6
