REMARK  Name = ZINC64251798
REMARK  4 active torsions:
REMARK  status: ('A' for Active; 'I' for Inactive)
REMARK    1  A    between atoms: N_9  and  C_10
REMARK    2  A    between atoms: C_13  and  C_16
REMARK    3  A    between atoms: C_16  and  N_17
REMARK    4  A    between atoms: C_23  and  N_26
REMARK                            x       y       z     vdW  Elec       q    Type
REMARK                         _______ _______ _______ _____ _____    ______ ____
ROOT
ATOM      1  C   UNL     1       9.009   0.204  -0.091  0.00  0.00    +0.141 C 
ENDROOT
BRANCH   1   2
ATOM      2  N   UNL     1       9.297   1.326   0.806  0.00  0.00    -0.295 N 
ATOM      3  C   UNL     1      10.563   1.763   0.954  0.00  0.00    +0.302 C 
ATOM      4  O   UNL     1      11.478   1.169   0.417  0.00  0.00    -0.253 OA
ATOM      5  N   UNL     1      10.815   2.858   1.698  0.00  0.00    -0.286 N 
ATOM      6  C   UNL     1      12.173   3.414   1.775  0.00  0.00    +0.111 C 
ATOM      7  C   UNL     1      12.119   4.899   1.404  0.00  0.00    +0.044 C 
ATOM      8  C   UNL     1      11.098   5.608   2.297  0.00  0.00    +0.090 C 
ATOM      9  C   UNL     1       9.711   5.002   2.069  0.00  0.00    +0.044 C 
ATOM     10  C   UNL     1       9.736   3.522   2.443  0.00  0.00    +0.111 C 
ATOM     11  H   UNL     1       8.575   1.754   1.293  0.00  0.00    +0.151 HD
BRANCH   8  12
ATOM     12  N   UNL     1      11.068   7.035   1.967  0.00  0.00    -0.350 N 
ATOM     13  C   UNL     1      10.749   7.562   0.751  0.00  0.00    +0.086 A 
ATOM     14  C   UNL     1      10.833   8.905   0.839  0.00  0.00    +0.019 A 
ATOM     15  C   UNL     1      11.217   9.218   2.158  0.00  0.00    +0.019 A 
ATOM     16  C   UNL     1      11.348   8.055   2.827  0.00  0.00    +0.086 A 
ENDBRANCH   8  12
ENDBRANCH   1   2
BRANCH   1  20
ATOM     17  C   UNL     1       4.815  -0.615  -0.053  0.00  0.00    +0.048 A 
ATOM     18  C   UNL     1       5.339   0.287  -0.969  0.00  0.00    +0.026 A 
ATOM     19  C   UNL     1       6.695   0.550  -0.979  0.00  0.00    +0.007 A 
ATOM     20  C   UNL     1       7.530  -0.084  -0.077  0.00  0.00    -0.030 A 
ATOM     21  C   UNL     1       7.011  -0.983   0.837  0.00  0.00    +0.007 A 
ATOM     22  C   UNL     1       5.655  -1.245   0.855  0.00  0.00    +0.026 A 
BRANCH  17  31
ATOM     23  C   UNL     1      -0.016   1.365   0.008  0.00  0.00    +0.002 A 
ATOM     24  C   UNL     1       1.168   2.089   0.002  0.00  0.00    +0.002 A 
ATOM     25  C   UNL     1       2.384   1.439  -0.015  0.00  0.00    +0.028 A 
ATOM     26  C   UNL     1       2.422   0.052  -0.024  0.00  0.00    +0.073 A 
ATOM     27  C   UNL     1       1.222  -0.681  -0.017  0.00  0.00    +0.089 A 
ATOM     28  C   UNL     1       0.002  -0.001  -0.001  0.00  0.00    +0.030 A 
ATOM     29  N   UNL     1       1.561  -1.996  -0.029  0.00  0.00    -0.235 NA
ATOM     30  C   UNL     1       2.857  -2.115  -0.043  0.00  0.00    +0.205 A 
ATOM     31  N   UNL     1       3.440  -0.883  -0.040  0.00  0.00    -0.299 N 
ENDBRANCH  17  31
ENDBRANCH   1  20
TORSDOF 4
