REMARK  Name = ZINC64002356
REMARK  10 active torsions:
REMARK  status: ('A' for Active; 'I' for Inactive)
REMARK    1  A    between atoms: C_1  and  C_2
REMARK    2  A    between atoms: C_5  and  C_38
REMARK    3  A    between atoms: C_8  and  C_13
REMARK    4  A    between atoms: C_10  and  C_12
REMARK    5  A    between atoms: N_15  and  C_16
REMARK    6  A    between atoms: C_16  and  C_17
REMARK    7  A    between atoms: C_18  and  C_37
REMARK    8  A    between atoms: C_20  and  C_22
REMARK    9  A    between atoms: C_27  and  N_28
REMARK   10  A    between atoms: C_29  and  C_31
REMARK                            x       y       z     vdW  Elec       q    Type
REMARK                         _______ _______ _______ _____ _____    ______ ____
ROOT
ATOM      1  C   UNL     1      -1.284  -0.184   7.414  0.00  0.00    +0.100 A 
ATOM      2  C   UNL     1      -0.667  -0.532   8.558  0.00  0.00    +0.127 A 
ATOM      3  O   UNL     1      -0.700   0.541   9.373  0.00  0.00    -0.440 OA
ATOM      4  C   UNL     1      -1.335   1.531   8.721  0.00  0.00    +0.229 A 
ATOM      5  N   UNL     1      -1.683   1.092   7.534  0.00  0.00    -0.212 NA
ATOM      6  C   UNL     1      -0.054  -1.873   8.870  0.00  0.00    +0.088 C 
ENDROOT
BRANCH   4   7
ATOM      7  C   UNL     1      -1.591   2.886   9.249  0.00  0.00    +0.058 A 
ATOM      8  C   UNL     1      -2.357   3.792   8.514  0.00  0.00    +0.015 A 
ATOM      9  C   UNL     1      -2.595   5.056   9.013  0.00  0.00    +0.001 A 
ATOM     10  C   UNL     1      -2.076   5.431  10.241  0.00  0.00    +0.002 A 
ATOM     11  C   UNL     1      -1.316   4.544  10.978  0.00  0.00    +0.024 A 
ATOM     12  C   UNL     1      -1.072   3.267  10.494  0.00  0.00    +0.046 A 
BRANCH  12  13
ATOM     13  N   UNL     1      -0.309   2.368  11.241  0.00  0.00    -0.283 N 
ATOM     14  C   UNL     1       0.725   2.814  11.981  0.00  0.00    +0.246 C 
ATOM     15  O   UNL     1       0.941   4.005  12.065  0.00  0.00    -0.273 OA
ATOM     16  H   UNL     1      -0.523   1.422  11.227  0.00  0.00    +0.155 HD
BRANCH  14  17
ATOM     17  C   UNL     1       1.612   1.834  12.705  0.00  0.00    +0.204 C 
ATOM     18  C   UNL     1       0.801   1.100  13.795  0.00  0.00    +0.043 C 
ATOM     19  C   UNL     1       1.823   1.011  14.961  0.00  0.00    +0.031 C 
ATOM     20  C   UNL     1       2.596   2.341  14.777  0.00  0.00    +0.161 C 
ATOM     21  O   UNL     1       2.680   2.533  13.354  0.00  0.00    -0.367 OA
ENDBRANCH  14  17
ENDBRANCH  12  13
ENDBRANCH   4   7
BRANCH   1  22
ATOM     22  C   UNL     1      -1.486  -1.067   6.210  0.00  0.00    +0.163 C 
BRANCH  22  25
ATOM     23  C   UNL     1      -0.304  -1.628   4.154  0.00  0.00    +0.240 C 
ATOM     24  O   UNL     1      -1.216  -2.375   3.869  0.00  0.00    -0.273 OA
ATOM     25  N   UNL     1      -0.342  -0.927   5.305  0.00  0.00    -0.308 N 
ATOM     26  H   UNL     1       0.387  -0.330   5.533  0.00  0.00    +0.149 HD
BRANCH  23  34
ATOM     27  C   UNL     1       0.393   1.501  -0.253  0.00  0.00    +0.044 C 
ATOM     28  C   UNL     1       0.536   0.001  -0.204  0.00  0.00    -0.041 A 
ATOM     29  C   UNL     1       0.539  -0.725  -1.345  0.00  0.00    +0.004 A 
ATOM     30  C   UNL     1       0.670  -2.121  -1.329  0.00  0.00    +0.005 A 
ATOM     31  C   UNL     1       0.802  -2.828  -0.187  0.00  0.00    -0.027 A 
ATOM     32  C   UNL     1       0.813  -2.166   1.071  0.00  0.00    +0.047 A 
ATOM     33  N   UNL     1       0.925  -2.620   2.296  0.00  0.00    -0.370 N 
ATOM     34  C   UNL     1       0.872  -1.484   3.223  0.00  0.00    +0.193 C 
ATOM     35  C   UNL     1       0.708  -0.253   2.361  0.00  0.00    -0.032 C 
ATOM     36  C   UNL     1       0.682  -0.691   1.081  0.00  0.00    +0.003 A 
ATOM     37  C   UNL     1       0.601   1.175   2.831  0.00  0.00    +0.042 C 
ATOM     38  C   UNL     1       0.938  -4.328  -0.246  0.00  0.00    +0.046 C 
ATOM     39  H   UNL     1       1.026  -3.552   2.547  0.00  0.00    +0.161 HD
ENDBRANCH  23  34
ENDBRANCH  22  25
ENDBRANCH   1  22
TORSDOF 6
