REMARK  Name = ZINC05073746
REMARK  10 active torsions:
REMARK  status: ('A' for Active; 'I' for Inactive)
REMARK    1  A    between atoms: C_1  and  C_2
REMARK    2  A    between atoms: C_5  and  O_12
REMARK    3  A    between atoms: C_8  and  C_10
REMARK    4  A    between atoms: C_8  and  C_11
REMARK    5  A    between atoms: O_12  and  C_13
REMARK    6  A    between atoms: C_13  and  C_14
REMARK    7  A    between atoms: C_14  and  C_16
REMARK    8  A    between atoms: C_14  and  O_27
REMARK    9  A    between atoms: C_16  and  N_60
REMARK   10  A    between atoms: N_19  and  C_22
REMARK                            x       y       z     vdW  Elec       q    Type
REMARK                         _______ _______ _______ _____ _____    ______ ____
ROOT
ATOM      1  C   UNL     1      -0.062   1.031   2.429  0.00  0.00    -0.045 C 
ENDROOT
BRANCH   1   7
ATOM      2  C   UNL     1      -0.389   0.709   0.051  0.00  0.00    -0.059 C 
ATOM      3  C   UNL     1      -1.316   1.031  -1.123  0.00  0.00    +0.088 C 
ATOM      4  N   UNL     1      -1.372   2.487  -1.315  0.00  0.00    -0.320 N 
ATOM      5  C   UNL     1      -1.868   3.156  -0.104  0.00  0.00    +0.088 C 
ATOM      6  C   UNL     1      -0.941   2.833   1.070  0.00  0.00    -0.059 C 
ATOM      7  N   UNL     1      -0.911   1.368   1.266  0.00  0.00    +0.383 N 
ATOM      8  H   UNL     1      -1.866   1.036   1.442  0.00  0.00    -0.082 HD
BRANCH   4   9
ATOM      9  C   UNL     1      -2.149   2.815  -2.419  0.00  0.00    +0.099 A 
ATOM     10  C   UNL     1      -2.324   4.151  -2.767  0.00  0.00    +0.042 A 
ATOM     11  C   UNL     1      -3.100   4.463  -3.868  0.00  0.00    +0.005 A 
ATOM     12  C   UNL     1      -3.678   3.425  -4.588  0.00  0.00    +0.018 A 
ATOM     13  C   UNL     1      -3.462   2.122  -4.186  0.00  0.00    +0.084 A 
ATOM     14  N   UNL     1      -2.701   1.778  -3.113  0.00  0.00    -0.350 N 
ATOM     15  H   UNL     1      -2.550   0.799  -2.843  0.00  0.00    +0.166 HD
ENDBRANCH   4   9
ENDBRANCH   1   7
BRANCH   1  16
ATOM     16  C   UNL     1      -0.548   1.819   3.647  0.00  0.00    +0.124 C 
BRANCH  16  17
ATOM     17  O   UNL     1      -1.919   1.508   3.900  0.00  0.00    -0.391 OA
ATOM     18  H   UNL     1      -2.084   0.573   4.082  0.00  0.00    +0.210 HD
ENDBRANCH  16  17
BRANCH  16  19
ATOM     19  C   UNL     1       0.294   1.441   4.867  0.00  0.00    +0.189 C 
BRANCH  19  20
ATOM     20  O   UNL     1      -0.080   2.261   5.976  0.00  0.00    -0.374 OA
BRANCH  20  24
ATOM     21  C   UNL     1      -0.031  -0.447  10.078  0.00  0.00    +0.007 C 
ATOM     22  C   UNL     1       0.701   0.624   9.267  0.00  0.00    -0.011 C 
ATOM     23  C   UNL     1      -0.082   0.916   7.985  0.00  0.00    +0.035 C 
ATOM     24  C   UNL     1       0.650   1.988   7.174  0.00  0.00    +0.119 C 
ATOM     25  C   UNL     1       0.764   3.267   8.005  0.00  0.00    +0.038 C 
ATOM     26  C   UNL     1       1.547   2.975   9.287  0.00  0.00    -0.032 C 
ATOM     27  C   UNL     1       0.815   1.903  10.098  0.00  0.00    +0.009 C 
ATOM     28  C   UNL     1       2.947   2.474   8.927  0.00  0.00    +0.011 C 
ATOM     29  C   UNL     1       1.661   4.254  10.118  0.00  0.00    +0.011 C 
ENDBRANCH  20  24
ENDBRANCH  19  20
ENDBRANCH  16  19
ENDBRANCH   1  16
TORSDOF 7
