REMARK  Name = ZINC19771117
REMARK  10 active torsions:
REMARK  status: ('A' for Active; 'I' for Inactive)
REMARK    1  A    between atoms: C_1  and  C_2
REMARK    2  A    between atoms: C_3  and  C_23
REMARK    3  A    between atoms: C_4  and  C_16
REMARK    4  A    between atoms: C_10  and  C_14
REMARK    5  A    between atoms: C_10  and  C_15
REMARK    6  A    between atoms: C_19  and  O_22
REMARK    7  A    between atoms: C_23  and  O_25
REMARK    8  A    between atoms: O_25  and  C_26
REMARK    9  A    between atoms: C_26  and  C_27
REMARK   10  A    between atoms: C_27  and  C_28
REMARK                            x       y       z     vdW  Elec       q    Type
REMARK                         _______ _______ _______ _____ _____    ______ ____
ROOT
ATOM      1  C   UNL     1      -1.726  -4.607  -0.229  0.00  0.00    +0.061 C 
ATOM      2  C   UNL     1      -2.943  -3.729  -0.092  0.00  0.00    +0.016 C 
ATOM      3  C   UNL     1      -2.798  -2.434   0.237  0.00  0.00    +0.065 C 
ATOM      4  C   UNL     1      -3.987  -1.530   0.381  0.00  0.00    +0.092 C 
ATOM      5  C   UNL     1      -5.258  -2.324   0.530  0.00  0.00    +0.024 C 
ATOM      6  C   UNL     1      -5.302  -3.627   0.180  0.00  0.00    +0.016 C 
ATOM      7  N   UNL     1      -4.186  -4.255  -0.304  0.00  0.00    -0.321 N 
ATOM      8  C   UNL     1      -6.577  -4.424   0.310  0.00  0.00    +0.058 C 
ATOM      9  C   UNL     1      -7.401  -3.886   1.482  0.00  0.00    -0.023 C 
ATOM     10  C   UNL     1      -7.694  -2.403   1.232  0.00  0.00    +0.086 C 
ATOM     11  C   UNL     1      -6.393  -1.672   1.043  0.00  0.00    +0.162 C 
ATOM     12  O   UNL     1      -6.322  -0.496   1.340  0.00  0.00    -0.292 OA
ATOM     13  C   UNL     1      -6.609  -4.042   2.781  0.00  0.00    +0.011 C 
ATOM     14  C   UNL     1      -8.717  -4.659   1.587  0.00  0.00    +0.011 C 
ATOM     15  H   UNL     1      -4.298  -5.192  -0.870  0.00  0.00    +0.152 HD
ENDROOT
BRANCH   4  16
ATOM     16  C   UNL     1      -4.096  -0.657  -0.842  0.00  0.00    -0.035 A 
ATOM     17  C   UNL     1      -4.251  -1.233  -2.090  0.00  0.00    +0.008 A 
ATOM     18  C   UNL     1      -4.356  -0.434  -3.212  0.00  0.00    +0.046 A 
ATOM     19  C   UNL     1      -4.294   0.946  -3.088  0.00  0.00    +0.117 A 
ATOM     20  C   UNL     1      -4.133   1.522  -1.836  0.00  0.00    +0.046 A 
ATOM     21  C   UNL     1      -4.035   0.719  -0.716  0.00  0.00    +0.008 A 
BRANCH  19  22
ATOM     22  O   UNL     1      -4.391   1.734  -4.192  0.00  0.00    -0.507 OA
ATOM     23  H   UNL     1      -4.343   2.828  -4.093  0.00  0.00    +0.292 HD
ENDBRANCH  19  22
ENDBRANCH   4  16
BRANCH   3  24
ATOM     24  C   UNL     1      -1.501  -1.915   0.459  0.00  0.00    +0.338 C 
ATOM     25  O   UNL     1      -0.541  -2.662   0.471  0.00  0.00    -0.245 OA
BRANCH  24  26
ATOM     26  O   UNL     1      -1.329  -0.591   0.656  0.00  0.00    -0.461 OA
BRANCH  26  27
ATOM     27  C   UNL     1       0.008  -0.136   0.873  0.00  0.00    +0.237 C 
BRANCH  27  28
ATOM     28  C   UNL     1       0.005   1.380   1.076  0.00  0.00    +0.076 C 
BRANCH  28  29
ATOM     29  C   UNL     1       1.415   1.860   1.305  0.00  0.00    -0.044 A 
ATOM     30  C   UNL     1       1.922   1.927   2.589  0.00  0.00    +0.004 A 
ATOM     31  C   UNL     1       3.217   2.363   2.799  0.00  0.00    +0.000 A 
ATOM     32  C   UNL     1       4.002   2.741   1.725  0.00  0.00    +0.000 A 
ATOM     33  C   UNL     1       3.493   2.678   0.441  0.00  0.00    +0.000 A 
ATOM     34  C   UNL     1       2.199   2.238   0.231  0.00  0.00    +0.004 A 
ENDBRANCH  28  29
ENDBRANCH  27  28
ENDBRANCH  26  27
ENDBRANCH  24  26
ENDBRANCH   3  24
TORSDOF 7
