REMARK  Name = ZINC60833295
REMARK  6 active torsions:
REMARK  status: ('A' for Active; 'I' for Inactive)
REMARK    1  A    between atoms: C_1  and  C_2
REMARK    2  A    between atoms: C_2  and  N_3
REMARK    3  A    between atoms: C_12  and  C_15
REMARK    4  A    between atoms: C_15  and  N_16
REMARK    5  A    between atoms: C_17  and  C_19
REMARK    6  A    between atoms: C_20  and  C_21
REMARK                            x       y       z     vdW  Elec       q    Type
REMARK                         _______ _______ _______ _____ _____    ______ ____
ROOT
ATOM      1  N   UNL     1       0.577  -0.614  -1.231  0.00  0.00    +0.382 N 
ATOM      2  C   UNL     1       1.982  -0.274  -0.974  0.00  0.00    -0.060 C 
ATOM      3  C   UNL     1       2.805  -0.510  -2.244  0.00  0.00    +0.088 C 
ATOM      4  N   UNL     1       2.587  -1.895  -2.691  0.00  0.00    -0.319 N 
ATOM      5  C   UNL     1       1.202  -2.372  -2.818  0.00  0.00    +0.088 C 
ATOM      6  C   UNL     1       0.455  -2.049  -1.520  0.00  0.00    -0.060 C 
ATOM      7  C   UNL     1       3.660  -2.729  -2.982  0.00  0.00    +0.121 A 
ATOM      8  C   UNL     1       4.944  -2.197  -3.065  0.00  0.00    +0.044 A 
ATOM      9  C   UNL     1       6.002  -3.038  -3.356  0.00  0.00    +0.010 A 
ATOM     10  C   UNL     1       5.741  -4.388  -3.556  0.00  0.00    -0.012 A 
ATOM     11  C   UNL     1       4.443  -4.847  -3.458  0.00  0.00    +0.118 A 
ATOM     12  N   UNL     1       3.453  -4.022  -3.174  0.00  0.00    -0.240 NA
ATOM     13  H   UNL     1       0.244  -0.083  -2.022  0.00  0.00    -0.082 HD
ENDROOT
BRANCH   1  15
ATOM     14  C   UNL     1      -0.204   1.228   0.181  0.00  0.00    -0.017 C 
ATOM     15  C   UNL     1      -0.230  -0.284  -0.049  0.00  0.00    -0.082 C 
ENDBRANCH   1  15
BRANCH  10  16
ATOM     16  C   UNL     1       6.864  -5.341  -3.876  0.00  0.00    +0.141 C 
BRANCH  16  17
ATOM     17  N   UNL     1       7.412  -5.885  -2.631  0.00  0.00    -0.308 N 
ATOM     18  C   UNL     1       8.432  -6.765  -2.671  0.00  0.00    +0.237 C 
ATOM     19  O   UNL     1       8.898  -7.108  -3.742  0.00  0.00    -0.271 OA
ATOM     20  H   UNL     1       7.042  -5.612  -1.777  0.00  0.00    +0.149 HD
BRANCH  18  21
ATOM     21  C   UNL     1       8.981  -7.308  -1.428  0.00  0.00    +0.068 C 
ATOM     22  C   UNL     1      10.001  -8.189  -1.468  0.00  0.00    +0.013 C 
BRANCH  22  23
ATOM     23  C   UNL     1      10.552  -8.735  -0.218  0.00  0.00    -0.025 A 
ATOM     24  C   UNL     1      10.016  -8.347   1.014  0.00  0.00    +0.009 A 
ATOM     25  C   UNL     1      10.537  -8.863   2.182  0.00  0.00    +0.020 A 
ATOM     26  C   UNL     1      11.589  -9.764   2.136  0.00  0.00    +0.041 A 
ATOM     27  C   UNL     1      12.125 -10.152   0.919  0.00  0.00    +0.020 A 
ATOM     28  C   UNL     1      11.611  -9.648  -0.257  0.00  0.00    +0.009 A 
ATOM     29 CL   UNL     1      12.239 -10.408   3.611  0.00  0.00    -0.084 Cl
ENDBRANCH  22  23
ENDBRANCH  18  21
ENDBRANCH  16  17
ENDBRANCH  10  16
TORSDOF 5
