REMARK  Name = ZINC43072459
REMARK  9 active torsions:
REMARK  status: ('A' for Active; 'I' for Inactive)
REMARK    1  A    between atoms: C_1  and  C_2
REMARK    2  A    between atoms: C_2  and  C_4
REMARK    3  A    between atoms: C_2  and  O_18
REMARK    4  A    between atoms: C_7  and  C_11
REMARK    5  A    between atoms: C_11  and  N_12
REMARK    6  A    between atoms: N_12  and  C_13
REMARK    7  A    between atoms: O_18  and  C_19
REMARK    8  A    between atoms: C_21  and  C_27
REMARK    9  A    between atoms: C_23  and  C_24
REMARK                            x       y       z     vdW  Elec       q    Type
REMARK                         _______ _______ _______ _____ _____    ______ ____
ROOT
ATOM      1  O   UNL     1      -1.339  -0.499   0.012  0.00  0.00    -0.483 OA
ENDROOT
BRANCH   1   2
ATOM      2  C   UNL     1      -1.869  -0.818   1.221  0.00  0.00    +0.141 A 
ATOM      3  C   UNL     1      -1.177  -0.571   2.376  0.00  0.00    +0.064 A 
ATOM      4  C   UNL     1      -1.760  -0.915   3.589  0.00  0.00    +0.042 A 
ATOM      5  S   UNL     1      -3.326  -1.603   3.077  0.00  0.00    -0.079 S 
ATOM      6  C   UNL     1      -3.134  -1.399   1.315  0.00  0.00    +0.116 A 
BRANCH   4   7
ATOM      7  C   UNL     1      -1.226  -0.754   4.947  0.00  0.00    +0.080 A 
ATOM      8  C   UNL     1      -0.049  -0.123   5.301  0.00  0.00    +0.140 A 
ATOM      9  N   UNL     1       0.077  -0.190   6.621  0.00  0.00    -0.235 NA
ATOM     10  C   UNL     1      -0.963  -0.835   7.139  0.00  0.00    +0.138 A 
ATOM     11  N   UNL     1      -1.802  -1.197   6.118  0.00  0.00    -0.299 N 
ATOM     12  C   UNL     1      -2.957  -1.873   6.377  0.00  0.00    +0.093 A 
ATOM     13  C   UNL     1      -3.297  -2.194   7.644  0.00  0.00    +0.018 A 
ATOM     14  C   UNL     1      -2.461  -1.834   8.712  0.00  0.00    +0.005 A 
ATOM     15  C   UNL     1      -1.300  -1.166   8.465  0.00  0.00    +0.047 A 
ENDBRANCH   4   7
BRANCH   6  16
ATOM     16  C   UNL     1      -4.032  -1.740   0.279  0.00  0.00    +0.252 C 
ATOM     17  O   UNL     1      -3.731  -1.528  -0.882  0.00  0.00    -0.270 OA
ATOM     18  N   UNL     1      -5.221  -2.300   0.576  0.00  0.00    -0.325 N 
ATOM     19  H   UNL     1      -5.461  -2.468   1.501  0.00  0.00    +0.145 HD
ATOM     20  H   UNL     1      -5.838  -2.534  -0.135  0.00  0.00    +0.145 HD
ENDBRANCH   6  16
ENDBRANCH   1   2
BRANCH   1  22
ATOM     21  C   UNL     1       0.004   1.496   0.259  0.00  0.00    +0.057 C 
ATOM     22  C   UNL     1       0.005  -0.012   0.001  0.00  0.00    +0.202 C 
BRANCH  22  23
ATOM     23  C   UNL     1       0.630  -0.292  -1.341  0.00  0.00    +0.011 A 
ATOM     24  C   UNL     1      -0.170  -0.430  -2.461  0.00  0.00    +0.009 A 
ATOM     25  C   UNL     1       0.403  -0.686  -3.692  0.00  0.00    +0.002 A 
ATOM     26  C   UNL     1       1.775  -0.806  -3.806  0.00  0.00    -0.063 A 
ATOM     27  C   UNL     1       2.576  -0.668  -2.688  0.00  0.00    +0.022 A 
ATOM     28  C   UNL     1       2.004  -0.406  -1.455  0.00  0.00    +0.048 A 
ATOM     29 CL   UNL     1       3.009  -0.227  -0.051  0.00  0.00    -0.083 Cl
BRANCH  26  30
ATOM     30  C   UNL     1       2.399  -1.086  -5.149  0.00  0.00    -0.046 C 
BRANCH  30  31
ATOM     31  N   UNL     1       2.700   0.184  -5.823  0.00  0.00    +0.384 N 
ATOM     32  H   UNL     1       1.847   0.707  -5.951  0.00  0.00    -0.085 HD
ATOM     33  H   UNL     1       3.342   0.720  -5.260  0.00  0.00    -0.085 HD
BRANCH  31  34
ATOM     34  C   UNL     1       3.308  -0.089  -7.133  0.00  0.00    -0.071 C 
ATOM     35  C   UNL     1       4.706  -0.715  -6.946  0.00  0.00    -0.016 C 
ATOM     36  C   UNL     1       5.551  -0.102  -8.090  0.00  0.00    -0.002 C 
ATOM     37  C   UNL     1       5.030   1.355  -8.158  0.00  0.00    -0.002 C 
ATOM     38  C   UNL     1       3.514   1.226  -7.903  0.00  0.00    -0.016 C 
ENDBRANCH  31  34
ENDBRANCH  30  31
ENDBRANCH  26  30
ENDBRANCH  22  23
ENDBRANCH   1  22
TORSDOF 8
