REMARK  Name = ZINC16649430
REMARK  14 active torsions:
REMARK  status: ('A' for Active; 'I' for Inactive)
REMARK    1  A    between atoms: C_1  and  C_2
REMARK    2  A    between atoms: C_5  and  C_8
REMARK    3  A    between atoms: C_8  and  N_9
REMARK    4  A    between atoms: N_9  and  C_10
REMARK    5  A    between atoms: C_10  and  C_11
REMARK    6  A    between atoms: C_11  and  C_12
REMARK    7  A    between atoms: C_22  and  C_24
REMARK    8  A    between atoms: C_24  and  N_25
REMARK    9  A    between atoms: N_25  and  C_26
REMARK   10  A    between atoms: C_26  and  C_27
REMARK   11  A    between atoms: C_26  and  C_28
REMARK   12  A    between atoms: N_31  and  C_32
REMARK   13  A    between atoms: C_35  and  C_39
REMARK   14  A    between atoms: C_37  and  C_38
REMARK                            x       y       z     vdW  Elec       q    Type
REMARK                         _______ _______ _______ _____ _____    ______ ____
ROOT
ATOM      1  N   UNL     1       1.108  -2.679  -1.843  0.00  0.00    -0.296 N 
ATOM      2  C   UNL     1      -0.181  -2.630  -2.233  0.00  0.00    +0.233 C 
ATOM      3  O   UNL     1      -0.472  -2.838  -3.392  0.00  0.00    -0.274 OA
ENDROOT
BRANCH   1   4
ATOM      4  C   UNL     1       1.449  -2.543  -0.424  0.00  0.00    +0.143 C 
BRANCH   4   9
ATOM      5  C   UNL     1       2.794   2.960   0.717  0.00  0.00    +0.044 C 
ATOM      6  C   UNL     1       2.443   1.525   0.419  0.00  0.00    -0.050 A 
ATOM      7  C   UNL     1       1.158   1.066   0.643  0.00  0.00    +0.003 A 
ATOM      8  C   UNL     1       0.836  -0.250   0.370  0.00  0.00    +0.005 A 
ATOM      9  C   UNL     1       1.800  -1.108  -0.127  0.00  0.00    -0.030 A 
ATOM     10  C   UNL     1       3.084  -0.650  -0.351  0.00  0.00    +0.005 A 
ATOM     11  C   UNL     1       3.406   0.667  -0.079  0.00  0.00    +0.003 A 
ENDBRANCH   4   9
ENDBRANCH   1   4
BRANCH   1  12
ATOM     12  C   UNL     1       2.168  -2.869  -2.836  0.00  0.00    +0.113 C 
BRANCH  12  13
ATOM     13  C   UNL     1       2.433  -4.364  -3.020  0.00  0.00    +0.056 C 
BRANCH  13  14
ATOM     14  C   UNL     1       3.523  -4.559  -4.042  0.00  0.00    -0.021 A 
ATOM     15  C   UNL     1       3.356  -4.796  -5.353  0.00  0.00    +0.087 A 
ATOM     16  N   UNL     1       4.574  -4.915  -5.964  0.00  0.00    -0.360 N 
ATOM     17  H   UNL     1       4.709  -5.085  -6.910  0.00  0.00    +0.165 HD
ATOM     18  C   UNL     1       5.581  -4.761  -5.037  0.00  0.00    +0.047 A 
ATOM     19  C   UNL     1       4.966  -4.532  -3.792  0.00  0.00    +0.003 A 
ATOM     20  C   UNL     1       5.751  -4.337  -2.654  0.00  0.00    +0.010 A 
ATOM     21  C   UNL     1       7.113  -4.371  -2.755  0.00  0.00    +0.001 A 
ATOM     22  C   UNL     1       7.724  -4.598  -3.981  0.00  0.00    +0.002 A 
ATOM     23  C   UNL     1       6.969  -4.792  -5.117  0.00  0.00    +0.026 A 
ENDBRANCH  13  14
ENDBRANCH  12  13
ENDBRANCH   1  12
BRANCH   2  24
ATOM     24  C   UNL     1      -1.261  -2.317  -1.230  0.00  0.00    +0.205 C 
BRANCH  24  25
ATOM     25  N   UNL     1      -2.566  -2.330  -1.897  0.00  0.00    -0.274 N 
ATOM     26  C   UNL     1      -3.275  -3.474  -1.966  0.00  0.00    +0.307 C 
ATOM     27  O   UNL     1      -4.314  -3.507  -2.597  0.00  0.00    -0.252 OA
ATOM     28  N   UNL     1      -2.833  -4.580  -1.337  0.00  0.00    -0.269 N 
ATOM     29  H   UNL     1      -2.038  -4.538  -0.784  0.00  0.00    +0.156 HD
BRANCH  28  30
ATOM     30  C   UNL     1      -3.523  -5.790  -1.481  0.00  0.00    +0.038 A 
ATOM     31  C   UNL     1      -4.441  -5.949  -2.511  0.00  0.00    +0.024 A 
ATOM     32  C   UNL     1      -5.119  -7.143  -2.651  0.00  0.00    +0.005 A 
ATOM     33  C   UNL     1      -4.884  -8.181  -1.767  0.00  0.00    -0.050 A 
ATOM     34  C   UNL     1      -3.971  -8.026  -0.741  0.00  0.00    +0.008 A 
ATOM     35  C   UNL     1      -3.285  -6.835  -0.599  0.00  0.00    -0.029 A 
ATOM     36  C   UNL     1      -2.285  -6.669   0.516  0.00  0.00    +0.045 C 
ATOM     37  C   UNL     1      -5.626  -9.484  -1.923  0.00  0.00    +0.044 C 
ENDBRANCH  28  30
BRANCH  25  38
ATOM     38  C   UNL     1      -3.099  -1.100  -2.488  0.00  0.00    +0.072 C 
ATOM     39  C   UNL     1      -3.370  -1.326  -3.977  0.00  0.00    +0.028 C 
ATOM     40  C   UNL     1      -4.402  -0.719  -1.784  0.00  0.00    +0.028 C 
ENDBRANCH  25  38
ENDBRANCH  24  25
ENDBRANCH   2  24
TORSDOF 9
