REMARK  Name = ZINC21856239
REMARK  6 active torsions:
REMARK  status: ('A' for Active; 'I' for Inactive)
REMARK    1  A    between atoms: C_1  and  C_2
REMARK    2  A    between atoms: C_2  and  C_23
REMARK    3  A    between atoms: C_7  and  O_21
REMARK    4  A    between atoms: N_15  and  C_16
REMARK    5  A    between atoms: O_21  and  C_22
REMARK    6  A    between atoms: N_25  and  C_26
REMARK                            x       y       z     vdW  Elec       q    Type
REMARK                         _______ _______ _______ _____ _____    ______ ____
ROOT
ATOM      1  C   UNL     1      -4.002   4.412  -0.130  0.00  0.00    +0.043 C 
ATOM      2  C   UNL     1      -3.265   3.130  -0.526  0.00  0.00    +0.129 C 
ATOM      3  C   UNL     1      -1.810   3.236  -0.070  0.00  0.00    +0.157 C 
ATOM      4  N   UNL     1      -1.172   1.920  -0.182  0.00  0.00    -0.334 N 
ATOM      5  C   UNL     1       0.134   1.601  -0.424  0.00  0.00    +0.053 A 
ATOM      6  C   UNL     1       1.280   2.357  -0.652  0.00  0.00    +0.072 A 
ATOM      7  C   UNL     1       2.491   1.727  -0.862  0.00  0.00    +0.122 A 
ATOM      8  C   UNL     1       2.578   0.335  -0.848  0.00  0.00    +0.046 A 
ATOM      9  C   UNL     1       1.469  -0.425  -0.627  0.00  0.00    +0.013 A 
ATOM     10  C   UNL     1       0.229   0.192  -0.412  0.00  0.00    +0.001 A 
ATOM     11  C   UNL     1      -1.073  -0.314  -0.164  0.00  0.00    +0.041 A 
ATOM     12  C   UNL     1      -1.903   0.739  -0.048  0.00  0.00    +0.106 A 
ATOM     13  C   UNL     1      -3.355   0.784   0.205  0.00  0.00    +0.264 C 
ATOM     14  O   UNL     1      -3.980  -0.210   0.524  0.00  0.00    -0.268 OA
ATOM     15  N   UNL     1      -3.954   1.989   0.064  0.00  0.00    -0.278 N 
ENDROOT
BRANCH  15  16
ATOM     16  C   UNL     1      -5.338   2.151   0.517  0.00  0.00    +0.078 C 
ATOM     17  C   UNL     1      -5.450   1.791   2.013  0.00  0.00    +0.022 C 
ATOM     18  C   UNL     1      -6.824   1.083   2.131  0.00  0.00    +0.002 C 
ATOM     19  C   UNL     1      -6.898   0.259   0.821  0.00  0.00    +0.002 C 
ATOM     20  C   UNL     1      -6.258   1.178  -0.240  0.00  0.00    +0.022 C 
ENDBRANCH  15  16
BRANCH   2  21
ATOM     21  C   UNL     1      -3.297   2.997  -2.026  0.00  0.00    +0.238 C 
ATOM     22  O   UNL     1      -3.393   3.986  -2.721  0.00  0.00    -0.273 OA
ATOM     23  N   UNL     1      -3.219   1.778  -2.596  0.00  0.00    -0.311 N 
ATOM     24  H   UNL     1      -3.132   0.880  -1.966  0.00  0.00    +0.149 HD
BRANCH  23  25
ATOM     25  C   UNL     1      -3.249   1.648  -4.055  0.00  0.00    +0.073 C 
ATOM     26  C   UNL     1      -4.702   1.617  -4.534  0.00  0.00    +0.022 C 
ATOM     27  C   UNL     1      -4.734   1.481  -6.057  0.00  0.00    +0.002 C 
ATOM     28  C   UNL     1      -4.034   0.184  -6.469  0.00  0.00    +0.000 C 
ATOM     29  C   UNL     1      -2.581   0.215  -5.990  0.00  0.00    +0.002 C 
ATOM     30  C   UNL     1      -2.549   0.351  -4.466  0.00  0.00    +0.022 C 
ENDBRANCH  23  25
ENDBRANCH   2  21
BRANCH   7  31
ATOM     31  O   UNL     1       3.606   2.470  -1.085  0.00  0.00    -0.495 OA
ATOM     32  C   UNL     1       4.828   1.758  -1.296  0.00  0.00    +0.277 C 
ENDBRANCH   7  31
TORSDOF 4
