REMARK  Name = ZINC36204313
REMARK  17 active torsions:
REMARK  status: ('A' for Active; 'I' for Inactive)
REMARK    1  A    between atoms: C_1  and  C_2
REMARK    2  A    between atoms: C_2  and  C_3
REMARK    3  A    between atoms: C_3  and  C_4
REMARK    4  A    between atoms: C_4  and  N_5
REMARK    5  A    between atoms: N_5  and  C_6
REMARK    6  A    between atoms: C_7  and  N_18
REMARK    7  A    between atoms: N_8  and  C_15
REMARK    8  A    between atoms: C_15  and  C_16
REMARK    9  A    between atoms: C_16  and  C_17
REMARK   10  A    between atoms: C_19  and  C_21
REMARK   11  A    between atoms: C_21  and  O_22
REMARK   12  A    between atoms: O_22  and  C_23
REMARK   13  A    between atoms: C_23  and  C_25
REMARK   14  A    between atoms: C_25  and  C_27
REMARK   15  A    between atoms: C_25  and  O_28
REMARK   16  A    between atoms: O_28  and  C_29
REMARK   17  A    between atoms: C_34  and  C_35
REMARK                            x       y       z     vdW  Elec       q    Type
REMARK                         _______ _______ _______ _____ _____    ______ ____
ROOT
ATOM      1  N   UNL     1      -2.886  -1.882   0.192  0.00  0.00    -0.261 N 
ATOM      2  C   UNL     1      -3.401  -2.523   1.262  0.00  0.00    +0.258 C 
ATOM      3  O   UNL     1      -4.320  -3.301   1.118  0.00  0.00    -0.272 OA
ENDROOT
BRANCH   1   4
ATOM      4  C   UNL     1      -3.488  -2.029  -1.076  0.00  0.00    +0.140 A 
ATOM      5  C   UNL     1      -2.830  -2.690  -2.093  0.00  0.00    +0.127 A 
ATOM      6  N   UNL     1      -3.443  -2.817  -3.318  0.00  0.00    -0.280 N 
ATOM      7  C   UNL     1      -4.669  -2.303  -3.522  0.00  0.00    +0.331 A 
ATOM      8  O   UNL     1      -5.194  -2.426  -4.612  0.00  0.00    -0.246 OA
ATOM      9  N   UNL     1      -5.326  -1.656  -2.543  0.00  0.00    -0.273 N 
ATOM     10  H   UNL     1      -6.209  -1.295  -2.715  0.00  0.00    +0.173 HD
ATOM     11  C   UNL     1      -4.772  -1.509  -1.323  0.00  0.00    +0.277 A 
ATOM     12  O   UNL     1      -5.379  -0.925  -0.440  0.00  0.00    -0.266 OA
BRANCH   5  13
ATOM     13  N   UNL     1      -1.577  -3.214  -1.884  0.00  0.00    -0.343 N 
ATOM     14  H   UNL     1      -1.121  -3.061  -1.042  0.00  0.00    +0.144 HD
ATOM     15  H   UNL     1      -1.149  -3.738  -2.579  0.00  0.00    +0.144 HD
ENDBRANCH   5  13
BRANCH   6  16
ATOM     16  C   UNL     1      -2.756  -3.516  -4.406  0.00  0.00    +0.128 C 
BRANCH  16  17
ATOM     17  C   UNL     1      -3.108  -5.004  -4.360  0.00  0.00    +0.018 C 
ATOM     18  C   UNL     1      -2.391  -5.734  -5.497  0.00  0.00    +0.005 C 
ENDBRANCH  16  17
ENDBRANCH   6  16
ENDBRANCH   1   4
BRANCH   1  19
ATOM     19  C   UNL     1      -1.702  -1.033   0.346  0.00  0.00    +0.114 C 
BRANCH  19  20
ATOM     20  C   UNL     1      -2.139   0.416   0.573  0.00  0.00    +0.019 C 
BRANCH  20  22
ATOM     21  C   UNL     1      -1.340   2.751   0.961  0.00  0.00    +0.004 C 
ATOM     22  C   UNL     1      -0.903   1.302   0.735  0.00  0.00    -0.002 C 
ENDBRANCH  20  22
ENDBRANCH  19  20
ENDBRANCH   1  19
BRANCH   2  23
ATOM     23  C   UNL     1      -2.833  -2.272   2.635  0.00  0.00    +0.328 C 
BRANCH  23  24
ATOM     24  O   UNL     1      -3.541  -3.062   3.594  0.00  0.00    -0.453 OA
BRANCH  24  25
ATOM     25  C   UNL     1      -3.155  -2.954   4.875  0.00  0.00    +0.348 C 
ATOM     26  O   UNL     1      -2.248  -2.214   5.173  0.00  0.00    -0.247 OA
BRANCH  25  27
ATOM     27  C   UNL     1      -3.854  -3.756   5.942  0.00  0.00    +0.278 C 
ATOM     28  C   UNL     1      -5.309  -3.296   6.055  0.00  0.00    +0.064 C 
BRANCH  27  29
ATOM     29  O   UNL     1      -3.195  -3.560   7.195  0.00  0.00    -0.478 OA
BRANCH  29  30
ATOM     30  C   UNL     1      -3.354  -4.529   8.134  0.00  0.00    +0.125 A 
ATOM     31  C   UNL     1      -4.145  -5.636   7.863  0.00  0.00    +0.047 A 
ATOM     32  C   UNL     1      -4.306  -6.620   8.819  0.00  0.00    +0.023 A 
ATOM     33  C   UNL     1      -3.679  -6.502  10.047  0.00  0.00    +0.041 A 
ATOM     34  C   UNL     1      -2.890  -5.398  10.320  0.00  0.00    +0.027 A 
ATOM     35  C   UNL     1      -2.721  -4.415   9.363  0.00  0.00    -0.007 A 
ATOM     36  C   UNL     1      -1.856  -3.217   9.658  0.00  0.00    +0.047 C 
ATOM     37 CL   UNL     1      -3.883  -7.739  11.248  0.00  0.00    -0.084 Cl
ENDBRANCH  29  30
ENDBRANCH  27  29
ENDBRANCH  25  27
ENDBRANCH  24  25
ENDBRANCH  23  24
ENDBRANCH   2  23
TORSDOF 13
