REMARK  Name = ZINC06507261
REMARK  7 active torsions:
REMARK  status: ('A' for Active; 'I' for Inactive)
REMARK    1  A    between atoms: C_1  and  C_2
REMARK    2  A    between atoms: C_2  and  C_4
REMARK    3  A    between atoms: C_2  and  S_12
REMARK    4  A    between atoms: S_12  and  C_13
REMARK    5  A    between atoms: C_16  and  C_19
REMARK    6  A    between atoms: N_17  and  N_18
REMARK    7  A    between atoms: C_19  and  C_20
REMARK                            x       y       z     vdW  Elec       q    Type
REMARK                         _______ _______ _______ _____ _____    ______ ____
ROOT
ATOM      1  C   UNL     1      -3.728   1.053   3.456  0.00  0.00    +0.209 A 
ATOM      2  N   UNL     1      -3.069  -0.065   3.256  0.00  0.00    -0.121 NA
ATOM      3  N   UNL     1      -2.595  -0.084   2.061  0.00  0.00    -0.132 NA
ATOM      4  C   UNL     1      -2.912   1.015   1.437  0.00  0.00    +0.155 A 
ATOM      5  N   UNL     1      -3.648   1.777   2.302  0.00  0.00    -0.228 N 
ENDROOT
BRANCH   5   6
ATOM      6  N   UNL     1      -4.191   3.007   2.060  0.00  0.00    -0.295 N 
ATOM      7  H   UNL     1      -5.123   2.924   1.685  0.00  0.00    +0.163 HD
ATOM      8  H   UNL     1      -4.186   3.575   2.895  0.00  0.00    +0.163 HD
ENDBRANCH   5   6
BRANCH   1   9
ATOM      9  S   UNL     1      -4.558   1.529   4.936  0.00  0.00    -0.072 S 
BRANCH   9  11
ATOM     10  C   UNL     1      -2.711  -0.011   6.232  0.00  0.00    +0.029 C 
ATOM     11  C   UNL     1      -4.215   0.082   5.968  0.00  0.00    +0.137 C 
BRANCH  11  12
ATOM     12  C   UNL     1      -4.948   0.214   7.278  0.00  0.00    +0.229 C 
ATOM     13  O   UNL     1      -5.327   1.304   7.654  0.00  0.00    -0.274 OA
ATOM     14  N   UNL     1      -5.182  -0.878   8.033  0.00  0.00    -0.301 N 
ATOM     15  C   UNL     1      -4.734  -2.204   7.588  0.00  0.00    +0.108 C 
ATOM     16  C   UNL     1      -3.892  -2.836   8.707  0.00  0.00    +0.019 C 
ATOM     17  C   UNL     1      -4.705  -2.849  10.004  0.00  0.00    +0.003 C 
ATOM     18  C   UNL     1      -5.045  -1.413  10.409  0.00  0.00    +0.019 C 
ATOM     19  C   UNL     1      -5.895  -0.765   9.312  0.00  0.00    +0.108 C 
ENDBRANCH  11  12
ENDBRANCH   9  11
ENDBRANCH   1   9
BRANCH   4  20
ATOM     20  C   UNL     1      -2.541   1.377   0.022  0.00  0.00    +0.113 C 
BRANCH  20  21
ATOM     21  C   UNL     1      -1.227   2.115   0.019  0.00  0.00    -0.032 A 
ATOM     22  C   UNL     1      -1.207   3.476   0.031  0.00  0.00    +0.004 A 
ATOM     23  C   UNL     1      -0.002   4.175   0.023  0.00  0.00    +0.001 A 
ATOM     24  C   UNL     1       1.190   3.518   0.009  0.00  0.00    +0.008 A 
ATOM     25  C   UNL     1       1.209   2.113   0.002  0.00  0.00    -0.018 A 
ATOM     26  C   UNL     1      -0.017   1.401   0.010  0.00  0.00    -0.014 A 
ATOM     27  C   UNL     1       0.002  -0.004   0.002  0.00  0.00    +0.009 A 
ATOM     28  C   UNL     1       1.194  -0.661  -0.013  0.00  0.00    +0.001 A 
ATOM     29  C   UNL     1       2.399   0.038  -0.021  0.00  0.00    +0.001 A 
ATOM     30  C   UNL     1       2.420   1.399  -0.014  0.00  0.00    +0.008 A 
ENDBRANCH  20  21
ENDBRANCH   4  20
TORSDOF 6
