REMARK  Name = ZINC20028206
REMARK  4 active torsions:
REMARK  status: ('A' for Active; 'I' for Inactive)
REMARK    1  A    between atoms: C_1  and  O_2
REMARK    2  A    between atoms: O_2  and  C_3
REMARK    3  A    between atoms: C_8  and  N_9
REMARK    4  A    between atoms: N_12  and  C_13
REMARK                            x       y       z     vdW  Elec       q    Type
REMARK                         _______ _______ _______ _____ _____    ______ ____
ROOT
ATOM      1  N   UNL     1       0.037  -2.807   0.258  0.00  0.00    -0.323 N 
ATOM      2  C   UNL     1       0.089  -4.169   0.166  0.00  0.00    +0.203 C 
ATOM      3  N   UNL     1       0.856  -4.884   1.042  0.00  0.00    -0.369 N 
ATOM      4  N   UNL     1      -0.602  -4.795  -0.771  0.00  0.00    -0.179 NA
ATOM      5  H   UNL     1       0.609  -2.341   0.888  0.00  0.00    +0.169 HD
ATOM      6  H   UNL     1       0.876  -4.639   1.981  0.00  0.00    +0.159 HD
ATOM      7  H   UNL     1       1.379  -5.637   0.726  0.00  0.00    +0.159 HD
ENDROOT
BRANCH   4   8
ATOM      8  C   UNL     1      -0.667  -6.137  -0.774  0.00  0.00    +0.234 A 
ATOM      9  N   UNL     1      -1.274  -6.780  -1.813  0.00  0.00    -0.327 N 
ATOM     10  C   UNL     1      -1.352  -8.150  -1.840  0.00  0.00    +0.027 A 
ATOM     11  C   UNL     1      -0.816  -8.854  -0.832  0.00  0.00    +0.038 A 
ATOM     12  C   UNL     1      -0.194  -8.154   0.243  0.00  0.00    +0.278 A 
ATOM     13  N   UNL     1      -0.136  -6.820   0.229  0.00  0.00    -0.173 NA
ATOM     14  O   UNL     1       0.291  -8.776   1.177  0.00  0.00    -0.265 OA
ATOM     15  C   UNL     1      -0.831 -10.358  -0.782  0.00  0.00    +0.042 C 
ATOM     16  C   UNL     1      -1.880 -10.918  -1.740  0.00  0.00    +0.005 C 
ATOM     17  C   UNL     1      -1.673 -10.269  -3.114  0.00  0.00    +0.006 C 
ATOM     18  C   UNL     1      -2.049  -8.792  -3.009  0.00  0.00    +0.054 C 
ATOM     19  H   UNL     1      -1.654  -6.263  -2.540  0.00  0.00    +0.169 HD
ENDBRANCH   4   8
BRANCH   1  25
ATOM     20  C   UNL     1      -0.586  -0.744  -0.844  0.00  0.00    +0.143 A 
ATOM     21  C   UNL     1      -1.456  -0.033  -1.655  0.00  0.00    +0.049 A 
ATOM     22  C   UNL     1      -2.578  -0.652  -2.175  0.00  0.00    +0.024 A 
ATOM     23  C   UNL     1      -2.836  -1.981  -1.887  0.00  0.00    +0.043 A 
ATOM     24  C   UNL     1      -1.972  -2.696  -1.078  0.00  0.00    +0.049 A 
ATOM     25  C   UNL     1      -0.842  -2.083  -0.558  0.00  0.00    +0.085 A 
ATOM     26 CL   UNL     1      -4.247  -2.751  -2.543  0.00  0.00    -0.083 Cl
BRANCH  20  28
ATOM     27  C   UNL     1       0.716   1.239  -0.667  0.00  0.00    +0.277 C 
ATOM     28  O   UNL     1       0.517  -0.136  -0.332  0.00  0.00    -0.493 OA
ENDBRANCH  20  28
ENDBRANCH   1  25
TORSDOF 3
