REMARK  Name = ZINC39198794
REMARK  10 active torsions:
REMARK  status: ('A' for Active; 'I' for Inactive)
REMARK    1  A    between atoms: C_1  and  C_2
REMARK    2  A    between atoms: C_4  and  N_17
REMARK    3  A    between atoms: N_8  and  C_11
REMARK    4  A    between atoms: N_9  and  C_10
REMARK    5  A    between atoms: C_18  and  C_20
REMARK    6  A    between atoms: C_20  and  N_21
REMARK    7  A    between atoms: N_21  and  C_22
REMARK    8  A    between atoms: N_21  and  C_23
REMARK    9  A    between atoms: C_23  and  C_24
REMARK   10  A    between atoms: C_24  and  C_25
REMARK                            x       y       z     vdW  Elec       q    Type
REMARK                         _______ _______ _______ _____ _____    ______ ____
ROOT
ATOM      1  N   UNL     1      -0.709  -0.912  -1.897  0.00  0.00    -0.304 N 
ATOM      2  C   UNL     1      -0.671  -1.175  -3.218  0.00  0.00    +0.197 C 
ATOM      3  O   UNL     1       0.391  -1.182  -3.804  0.00  0.00    -0.278 OA
ATOM      4  H   UNL     1      -1.558  -0.906  -1.427  0.00  0.00    +0.149 HD
ENDROOT
BRANCH   1   7
ATOM      5  C   UNL     1       0.563   1.693  -0.164  0.00  0.00    +0.028 C 
ATOM      6  C   UNL     1       0.253   0.217   0.093  0.00  0.00    +0.102 C 
ATOM      7  C   UNL     1       0.532  -0.635  -1.169  0.00  0.00    +0.179 C 
ATOM      8  C   UNL     1       1.111  -1.907  -0.576  0.00  0.00    +0.256 C 
ATOM      9  O   UNL     1       1.250  -2.965  -1.153  0.00  0.00    -0.272 OA
ATOM     10  N   UNL     1       1.444  -1.654   0.704  0.00  0.00    -0.201 N 
ATOM     11  N   UNL     1       1.204  -0.362   1.070  0.00  0.00    -0.218 NA
ATOM     12  C   UNL     1       2.451   0.413   1.113  0.00  0.00    +0.128 C 
BRANCH  10  13
ATOM     13  C   UNL     1       1.979  -2.615   1.568  0.00  0.00    +0.053 A 
ATOM     14  C   UNL     1       1.462  -2.765   2.848  0.00  0.00    +0.025 A 
ATOM     15  C   UNL     1       1.992  -3.715   3.699  0.00  0.00    +0.002 A 
ATOM     16  C   UNL     1       3.037  -4.516   3.277  0.00  0.00    +0.000 A 
ATOM     17  C   UNL     1       3.555  -4.369   2.003  0.00  0.00    +0.002 A 
ATOM     18  C   UNL     1       3.025  -3.425   1.145  0.00  0.00    +0.025 A 
ENDBRANCH  10  13
ENDBRANCH   1   7
BRANCH   2  19
ATOM     19  C   UNL     1      -1.948  -1.459  -3.967  0.00  0.00    +0.018 C 
BRANCH  19  20
ATOM     20  N   UNL     1      -1.640  -1.712  -5.381  0.00  0.00    +0.384 N 
ATOM     21  C   UNL     1      -1.096  -0.491  -5.990  0.00  0.00    -0.096 C 
ATOM     22  H   UNL     1      -0.959  -2.454  -5.449  0.00  0.00    -0.082 HD
BRANCH  20  23
ATOM     23  C   UNL     1      -2.867  -2.107  -6.086  0.00  0.00    -0.074 C 
BRANCH  23  24
ATOM     24  C   UNL     1      -2.526  -2.490  -7.527  0.00  0.00    +0.019 C 
BRANCH  24  25
ATOM     25  C   UNL     1      -3.784  -2.895  -8.250  0.00  0.00    -0.024 A 
ATOM     26  C   UNL     1      -4.732  -1.999  -8.918  0.00  0.00    +0.003 A 
ATOM     27  C   UNL     1      -4.796  -0.617  -9.101  0.00  0.00    +0.010 A 
ATOM     28  C   UNL     1      -5.841  -0.072  -9.793  0.00  0.00    +0.001 A 
ATOM     29  C   UNL     1      -6.840  -0.882 -10.316  0.00  0.00    +0.002 A 
ATOM     30  C   UNL     1      -6.795  -2.249 -10.147  0.00  0.00    +0.026 A 
ATOM     31  C   UNL     1      -5.741  -2.825  -9.447  0.00  0.00    +0.047 A 
ATOM     32  N   UNL     1      -5.418  -4.122  -9.117  0.00  0.00    -0.360 N 
ATOM     33  C   UNL     1      -4.247  -4.145  -8.409  0.00  0.00    +0.087 A 
ATOM     34  H   UNL     1      -5.941  -4.904  -9.354  0.00  0.00    +0.165 HD
ENDBRANCH  24  25
ENDBRANCH  23  24
ENDBRANCH  20  23
ENDBRANCH  19  20
ENDBRANCH   2  19
TORSDOF 7
