REMARK  Name = ZINC18077530
REMARK  10 active torsions:
REMARK  status: ('A' for Active; 'I' for Inactive)
REMARK    1  A    between atoms: C_1  and  O_2
REMARK    2  A    between atoms: O_2  and  C_3
REMARK    3  A    between atoms: C_3  and  C_5
REMARK    4  A    between atoms: C_5  and  C_6
REMARK    5  A    between atoms: C_15  and  N_25
REMARK    6  A    between atoms: N_16  and  C_17
REMARK    7  A    between atoms: C_17  and  C_19
REMARK    8  A    between atoms: N_25  and  C_26
REMARK    9  A    between atoms: C_29  and  O_32
REMARK   10  A    between atoms: O_32  and  C_33
REMARK                            x       y       z     vdW  Elec       q    Type
REMARK                         _______ _______ _______ _____ _____    ______ ____
ROOT
ATOM      1  C   UNL     1       1.657  -2.638  -2.556  0.00  0.00    +0.061 A 
ATOM      2  C   UNL     1       2.811  -3.365  -2.598  0.00  0.00    +0.094 A 
ATOM      3  C   UNL     1       3.089  -4.131  -3.745  0.00  0.00    +0.253 A 
ATOM      4  O   UNL     1       4.112  -4.793  -3.817  0.00  0.00    -0.268 OA
ATOM      5  N   UNL     1       2.203  -4.119  -4.764  0.00  0.00    -0.293 N 
ATOM      6  H   UNL     1       2.375  -4.640  -5.564  0.00  0.00    +0.172 HD
ATOM      7  C   UNL     1       1.069  -3.375  -4.664  0.00  0.00    +0.211 A 
ATOM      8  N   UNL     1       0.813  -2.665  -3.586  0.00  0.00    -0.218 NA
ATOM      9  N   UNL     1       0.172  -3.369  -5.706  0.00  0.00    -0.297 N 
ATOM     10  C   UNL     1      -0.974  -2.623  -5.619  0.00  0.00    +0.223 C 
ATOM     11  N   UNL     1      -1.218  -1.910  -4.531  0.00  0.00    -0.141 NA
ATOM     12  H   UNL     1       0.351  -3.892  -6.503  0.00  0.00    +0.172 HD
ENDROOT
BRANCH  11  13
ATOM     13  C   UNL     1      -2.285  -1.100  -4.487  0.00  0.00    +0.270 C 
ATOM     14  O   UNL     1      -3.075  -1.082  -5.413  0.00  0.00    -0.268 OA
BRANCH  13  15
ATOM     15  C   UNL     1      -2.503  -0.227  -3.310  0.00  0.00    +0.039 A 
ATOM     16  C   UNL     1      -1.653  -0.313  -2.207  0.00  0.00    +0.013 A 
ATOM     17  C   UNL     1      -1.861   0.503  -1.114  0.00  0.00    +0.001 A 
ATOM     18  C   UNL     1      -2.910   1.406  -1.111  0.00  0.00    +0.000 A 
ATOM     19  C   UNL     1      -3.756   1.496  -2.203  0.00  0.00    +0.001 A 
ATOM     20  C   UNL     1      -3.555   0.689  -3.304  0.00  0.00    +0.013 A 
ENDBRANCH  13  15
ENDBRANCH  11  13
BRANCH   1  21
ATOM     21  C   UNL     1       1.333  -1.810  -1.339  0.00  0.00    +0.176 C 
BRANCH  21  22
ATOM     22  C   UNL     1       1.788  -0.391  -1.563  0.00  0.00    +0.313 C 
ATOM     23  O   UNL     1       2.320  -0.084  -2.603  0.00  0.00    -0.250 OA
BRANCH  22  25
ATOM     24  C   UNL     1       2.058   1.857  -0.886  0.00  0.00    +0.280 C 
ATOM     25  O   UNL     1       1.602   0.532  -0.606  0.00  0.00    -0.468 OA
ENDBRANCH  22  25
ENDBRANCH  21  22
ENDBRANCH   1  21
BRANCH  10  26
ATOM     26  N   UNL     1      -1.864  -2.617  -6.652  0.00  0.00    -0.215 NA
BRANCH  26  27
ATOM     27  C   UNL     1      -2.142  -3.802  -7.345  0.00  0.00    +0.068 A 
ATOM     28  C   UNL     1      -1.626  -5.009  -6.891  0.00  0.00    +0.031 A 
ATOM     29  C   UNL     1      -1.901  -6.177  -7.573  0.00  0.00    +0.048 A 
ATOM     30  C   UNL     1      -2.691  -6.146  -8.713  0.00  0.00    +0.129 A 
ATOM     31  C   UNL     1      -3.206  -4.940  -9.168  0.00  0.00    +0.048 A 
ATOM     32  C   UNL     1      -2.938  -3.772  -8.482  0.00  0.00    +0.031 A 
BRANCH  30  33
ATOM     33  O   UNL     1      -2.961  -7.296  -9.385  0.00  0.00    -0.456 OA
BRANCH  33  34
ATOM     34  C   UNL     1      -3.646  -7.206 -10.555  0.00  0.00    +0.128 A 
ATOM     35  C   UNL     1      -3.000  -6.784 -11.708  0.00  0.00    +0.046 A 
ATOM     36  C   UNL     1      -3.699  -6.693 -12.896  0.00  0.00    +0.004 A 
ATOM     37  C   UNL     1      -5.041  -7.023 -12.937  0.00  0.00    +0.000 A 
ATOM     38  C   UNL     1      -5.687  -7.444 -11.790  0.00  0.00    +0.004 A 
ATOM     39  C   UNL     1      -4.992  -7.542 -10.600  0.00  0.00    +0.046 A 
ENDBRANCH  33  34
ENDBRANCH  30  33
ENDBRANCH  26  27
ENDBRANCH  10  26
TORSDOF 9
