REMARK  Name = ZINC20352058
REMARK  5 active torsions:
REMARK  status: ('A' for Active; 'I' for Inactive)
REMARK    1  A    between atoms: C_6  and  C_7
REMARK    2  A    between atoms: C_7  and  O_8
REMARK    3  A    between atoms: O_8  and  C_9
REMARK    4  A    between atoms: C_12  and  C_16
REMARK    5  A    between atoms: C_14  and  N_15
REMARK                            x       y       z     vdW  Elec       q    Type
REMARK                         _______ _______ _______ _____ _____    ______ ____
ROOT
ATOM      1  C   UNL     1       1.186   2.059   0.002  0.00  0.00    +0.142 A 
ATOM      2  C   UNL     1       2.359   1.322  -0.013  0.00  0.00    +0.048 A 
ATOM      3  C   UNL     1       3.582   1.968  -0.021  0.00  0.00    +0.016 A 
ATOM      4  C   UNL     1       3.638   3.349  -0.015  0.00  0.00    +0.057 A 
ATOM      5  C   UNL     1       2.472   4.092   0.000  0.00  0.00    +0.038 A 
ATOM      6  C   UNL     1       1.242   3.451   0.003  0.00  0.00    +0.067 A 
ENDROOT
BRANCH   4   7
ATOM      7  C   UNL     1       4.974   4.047  -0.024  0.00  0.00    +0.417 C 
ATOM      8  F   UNL     1       5.998   3.094  -0.038  0.00  0.00    -0.166 F 
ATOM      9  F   UNL     1       5.071   4.853  -1.163  0.00  0.00    -0.166 F 
ATOM     10  F   UNL     1       5.093   4.841   1.122  0.00  0.00    -0.166 F 
ENDBRANCH   4   7
BRANCH   6  11
ATOM     11  N   UNL     1       0.060   4.200   0.013  0.00  0.00    -0.355 N 
ATOM     12  H   UNL     1       0.106   5.300   0.013  0.00  0.00    +0.142 HD
ATOM     13  H   UNL     1      -0.915   3.691   0.019  0.00  0.00    +0.142 HD
ENDBRANCH   6  11
BRANCH   1  14
ATOM     14  O   UNL     1      -0.017   1.425   0.010  0.00  0.00    -0.486 OA
BRANCH  14  15
ATOM     15  C   UNL     1       0.002  -0.004   0.002  0.00  0.00    +0.264 C 
BRANCH  15  21
ATOM     16  C   UNL     1      -2.045  -0.776   1.215  0.00  0.00    +0.011 A 
ATOM     17  C   UNL     1      -3.344  -1.250   1.230  0.00  0.00    +0.050 A 
ATOM     18  C   UNL     1      -4.010  -1.485   0.039  0.00  0.00    +0.166 A 
ATOM     19  C   UNL     1      -3.370  -1.237  -1.173  0.00  0.00    +0.167 A 
ATOM     20  C   UNL     1      -2.070  -0.758  -1.181  0.00  0.00    +0.056 A 
ATOM     21  C   UNL     1      -1.412  -0.526   0.013  0.00  0.00    -0.007 A 
ATOM     22  O   UNL     1      -4.227  -1.544  -2.190  0.00  0.00    -0.453 OA
ATOM     23  C   UNL     1      -5.250  -2.366  -1.596  0.00  0.00    +0.466 C 
ATOM     24  O   UNL     1      -5.269  -1.947  -0.219  0.00  0.00    -0.453 OA
ENDBRANCH  15  21
ENDBRANCH  14  15
ENDBRANCH   1  14
TORSDOF 5
