REMARK  Name = ZINC39466866
REMARK  7 active torsions:
REMARK  status: ('A' for Active; 'I' for Inactive)
REMARK    1  A    between atoms: C_1  and  C_2
REMARK    2  A    between atoms: C_2  and  O_3
REMARK    3  A    between atoms: O_3  and  C_4
REMARK    4  A    between atoms: P_13  and  C_29
REMARK    5  A    between atoms: C_21  and  C_22
REMARK    6  A    between atoms: C_22  and  C_23
REMARK    7  A    between atoms: C_29  and  C_30
REMARK                            x       y       z     vdW  Elec       q    Type
REMARK                         _______ _______ _______ _____ _____    ______ ____
ROOT
ATOM      1  C   UNL     1       0.802  -1.824   1.306  0.00  0.00    +0.120 C 
ATOM      2  C   UNL     1       0.280  -2.645   0.386  0.00  0.00    +0.023 C 
ATOM      3  C   UNL     1       0.431  -4.130   0.574  0.00  0.00    +0.019 C 
ATOM      4  C   UNL     1       0.310  -4.879  -0.749  0.00  0.00    -0.002 C 
ATOM      5  C   UNL     1       0.510  -6.381  -0.506  0.00  0.00    -0.020 C 
ATOM      6  C   UNL     1       0.401  -7.081  -1.867  0.00  0.00    +0.156 C 
ATOM      7  O   UNL     1       0.495  -8.505  -1.679  0.00  0.00    -0.319 OA
ATOM      8  P   UNL     1       1.734  -9.072  -0.789  0.00  0.00    +0.262 P 
ATOM      9  O   UNL     1       2.966  -9.137  -1.607  0.00  0.00    -0.274 OA
ATOM     10  N   UNL     1       1.920  -7.984   0.439  0.00  0.00    -0.291 NA
ATOM     11  N   UNL     1       1.810  -6.647   0.111  0.00  0.00    +0.397 N 
ATOM     12  C   UNL     1       1.964  -5.914   1.379  0.00  0.00    -0.046 C 
ATOM     13  C   UNL     1       1.823  -4.415   1.153  0.00  0.00    +0.005 C 
ATOM     14  C   UNL     1       1.996  -3.624   2.420  0.00  0.00    -0.017 C 
ATOM     15  C   UNL     1       1.502  -2.390   2.476  0.00  0.00    -0.005 C 
ATOM     16  H   UNL     1       2.107  -8.275   1.345  0.00  0.00    +0.111 HD
ATOM     17  H   UNL     1       2.546  -6.381  -0.526  0.00  0.00    -0.055 HD
ENDROOT
BRANCH   1  18
ATOM     18  O   UNL     1       0.693  -0.477   1.160  0.00  0.00    -0.492 OA
BRANCH  18  20
ATOM     19  C   UNL     1      -0.019   1.526   0.010  0.00  0.00    +0.048 C 
ATOM     20  C   UNL     1       0.002  -0.004   0.002  0.00  0.00    +0.225 C 
ENDBRANCH  18  20
ENDBRANCH   1  18
BRANCH  15  21
ATOM     21  C   UNL     1       1.654  -1.574   3.734  0.00  0.00    +0.073 C 
BRANCH  21  22
ATOM     22  C   UNL     1       2.869  -0.691   3.617  0.00  0.00    -0.043 A 
ATOM     23  C   UNL     1       4.102  -1.153   4.037  0.00  0.00    +0.004 A 
ATOM     24  C   UNL     1       5.217  -0.343   3.930  0.00  0.00    +0.000 A 
ATOM     25  C   UNL     1       5.099   0.929   3.401  0.00  0.00    +0.000 A 
ATOM     26  C   UNL     1       3.866   1.391   2.980  0.00  0.00    +0.000 A 
ATOM     27  C   UNL     1       2.752   0.579   3.084  0.00  0.00    +0.004 A 
ENDBRANCH  21  22
ENDBRANCH  15  21
BRANCH   8  28
ATOM     28  C   UNL     1       1.332 -10.720  -0.122  0.00  0.00    +0.147 C 
BRANCH  28  29
ATOM     29  C   UNL     1       1.068 -11.671  -1.260  0.00  0.00    -0.037 A 
ATOM     30  C   UNL     1      -0.213 -11.811  -1.762  0.00  0.00    +0.004 A 
ATOM     31  C   UNL     1      -0.454 -12.684  -2.806  0.00  0.00    +0.000 A 
ATOM     32  C   UNL     1       0.584 -13.417  -3.348  0.00  0.00    +0.000 A 
ATOM     33  C   UNL     1       1.865 -13.277  -2.847  0.00  0.00    +0.000 A 
ATOM     34  C   UNL     1       2.107 -12.401  -1.806  0.00  0.00    +0.004 A 
ENDBRANCH  28  29
ENDBRANCH   8  28
TORSDOF 6
