REMARK  Name = ZINC00170519
REMARK  6 active torsions:
REMARK  status: ('A' for Active; 'I' for Inactive)
REMARK    1  A    between atoms: C_1  and  C_2
REMARK    2  A    between atoms: C_4  and  C_20
REMARK    3  A    between atoms: C_6  and  C_13
REMARK    4  A    between atoms: C_8  and  C_12
REMARK    5  A    between atoms: C_18  and  O_19
REMARK    6  A    between atoms: C_25  and  O_26
REMARK                            x       y       z     vdW  Elec       q    Type
REMARK                         _______ _______ _______ _____ _____    ______ ____
ROOT
ATOM      1  C   UNL     1       4.273   0.061  -1.715  0.00  0.00    +0.014 C 
ATOM      2  C   UNL     1       2.887   0.707  -1.672  0.00  0.00    +0.043 C 
ATOM      3  C   UNL     1       2.590   1.200  -0.251  0.00  0.00    -0.026 C 
ATOM      4  C   UNL     1       1.335  -0.798   0.322  0.00  0.00    -0.026 C 
ATOM      5  C   UNL     1       1.546  -1.427  -1.060  0.00  0.00    +0.043 C 
ATOM      6  C   UNL     1       1.835  -0.316  -2.047  0.00  0.00    +0.136 C 
ATOM      7  O   UNL     1       1.246  -0.247  -3.099  0.00  0.00    -0.297 OA
ATOM      8  C   UNL     1       2.731  -2.394  -1.011  0.00  0.00    +0.014 C 
ATOM      9  N   UNL     1       2.498   0.046   0.665  0.00  0.00    +0.389 N 
ATOM     10  H   UNL     1       2.395   0.386   1.628  0.00  0.00    -0.084 HD
ATOM     11  H   UNL     1       3.355  -0.514   0.590  0.00  0.00    -0.084 HD
ENDROOT
BRANCH   4  12
ATOM     12  C   UNL     1       1.197  -1.887   1.354  0.00  0.00    -0.019 A 
ATOM     13  C   UNL     1       2.277  -2.233   2.143  0.00  0.00    +0.005 A 
ATOM     14  C   UNL     1       2.150  -3.228   3.094  0.00  0.00    +0.000 A 
ATOM     15  C   UNL     1       0.945  -3.889   3.250  0.00  0.00    +0.004 A 
ATOM     16  C   UNL     1      -0.136  -3.551   2.460  0.00  0.00    +0.045 A 
ATOM     17  C   UNL     1      -0.013  -2.548   1.509  0.00  0.00    +0.118 A 
BRANCH  17  18
ATOM     18  O   UNL     1      -1.075  -2.213   0.730  0.00  0.00    -0.507 OA
ATOM     19  H   UNL     1      -1.132  -2.715  -0.094  0.00  0.00    +0.292 HD
ENDBRANCH  17  18
ENDBRANCH   4  12
BRANCH   3  20
ATOM     20  C   UNL     1       1.290   1.962  -0.244  0.00  0.00    -0.019 A 
ATOM     21  C   UNL     1       0.708   2.348  -1.437  0.00  0.00    +0.005 A 
ATOM     22  C   UNL     1      -0.482   3.050  -1.431  0.00  0.00    +0.000 A 
ATOM     23  C   UNL     1      -1.100   3.359  -0.233  0.00  0.00    +0.004 A 
ATOM     24  C   UNL     1      -0.522   2.976   0.962  0.00  0.00    +0.045 A 
ATOM     25  C   UNL     1       0.675   2.275   0.959  0.00  0.00    +0.118 A 
BRANCH  25  26
ATOM     26  O   UNL     1       1.245   1.897   2.133  0.00  0.00    -0.507 OA
ATOM     27  H   UNL     1       1.856   2.550   2.502  0.00  0.00    +0.292 HD
ENDBRANCH  25  26
ENDBRANCH   3  20
TORSDOF 4
