REMARK  Name = ZINC21464276
REMARK  6 active torsions:
REMARK  status: ('A' for Active; 'I' for Inactive)
REMARK    1  A    between atoms: C_1  and  C_2
REMARK    2  A    between atoms: C_5  and  C_8
REMARK    3  A    between atoms: C_22  and  C_23
REMARK    4  A    between atoms: C_23  and  O_25
REMARK    5  A    between atoms: O_25  and  C_26
REMARK    6  A    between atoms: C_26  and  C_27
REMARK                            x       y       z     vdW  Elec       q    Type
REMARK                         _______ _______ _______ _____ _____    ______ ____
ROOT
ATOM      1  C   UNL     1       8.055  -2.055   2.326  0.00  0.00    +0.013 C 
ATOM      2  C   UNL     1       7.035  -1.180   2.358  0.00  0.00    -0.021 C 
ATOM      3  C   UNL     1       6.452  -0.707   3.672  0.00  0.00    +0.037 C 
ATOM      4  C   UNL     1       4.924  -0.713   3.528  0.00  0.00    +0.009 C 
ATOM      5  C   UNL     1       4.514   0.304   2.468  0.00  0.00    +0.038 C 
ATOM      6  C   UNL     1       5.228   0.056   1.168  0.00  0.00    -0.007 A 
ATOM      7  C   UNL     1       6.444  -0.647   1.110  0.00  0.00    +0.072 A 
ATOM      8  N   UNL     1       7.080  -0.853  -0.031  0.00  0.00    -0.247 NA
ATOM      9  C   UNL     1       6.615  -0.417  -1.201  0.00  0.00    +0.072 A 
ATOM     10  C   UNL     1       7.319  -0.654  -2.397  0.00  0.00    +0.028 A 
ATOM     11  C   UNL     1       6.816  -0.198  -3.577  0.00  0.00    +0.002 A 
ATOM     12  C   UNL     1       5.613   0.503  -3.623  0.00  0.00    +0.001 A 
ATOM     13  C   UNL     1       4.905   0.752  -2.484  0.00  0.00    +0.011 A 
ATOM     14  C   UNL     1       5.389   0.293  -1.255  0.00  0.00    +0.015 A 
ATOM     15  C   UNL     1       4.668   0.542  -0.006  0.00  0.00    +0.073 A 
ENDROOT
BRANCH   1  20
ATOM     16  C   UNL     1      10.713  -3.555   7.199  0.00  0.00    +0.044 C 
ATOM     17  C   UNL     1      10.017  -3.162   5.922  0.00  0.00    -0.050 A 
ATOM     18  C   UNL     1       9.890  -4.082   4.895  0.00  0.00    +0.004 A 
ATOM     19  C   UNL     1       9.254  -3.729   3.723  0.00  0.00    +0.008 A 
ATOM     20  C   UNL     1       8.736  -2.440   3.574  0.00  0.00    -0.025 A 
ATOM     21  C   UNL     1       8.872  -1.515   4.613  0.00  0.00    +0.008 A 
ATOM     22  C   UNL     1       9.506  -1.884   5.781  0.00  0.00    +0.004 A 
ENDBRANCH   1  20
BRANCH  15  23
ATOM     23  C   UNL     1       3.388   1.281   0.004  0.00  0.00    +0.341 C 
ATOM     24  O   UNL     1       3.384   2.488   0.134  0.00  0.00    -0.245 OA
BRANCH  23  25
ATOM     25  O   UNL     1       2.225   0.614  -0.131  0.00  0.00    -0.452 OA
BRANCH  25  26
ATOM     26  C   UNL     1       1.007   1.404  -0.112  0.00  0.00    +0.328 C 
BRANCH  26  27
ATOM     27  C   UNL     1      -0.184   0.494  -0.274  0.00  0.00    +0.261 C 
ATOM     28  O   UNL     1      -0.021  -0.701  -0.394  0.00  0.00    -0.271 OA
ATOM     29  N   UNL     1      -1.429   1.010  -0.291  0.00  0.00    -0.222 N 
ATOM     30  C   UNL     1      -2.669   0.237  -0.454  0.00  0.00    +0.137 C 
ATOM     31  C   UNL     1      -3.779   1.305  -0.397  0.00  0.00    +0.125 C 
ATOM     32  N   UNL     1      -3.046   2.567  -0.218  0.00  0.00    -0.297 N 
ATOM     33  C   UNL     1      -1.732   2.309  -0.169  0.00  0.00    +0.309 C 
ATOM     34  O   UNL     1      -0.892   3.175  -0.026  0.00  0.00    -0.252 OA
ATOM     35  H   UNL     1      -3.595   3.517  -0.148  0.00  0.00    +0.150 HD
ENDBRANCH  26  27
ENDBRANCH  25  26
ENDBRANCH  23  25
ENDBRANCH  15  23
TORSDOF 5
