REMARK  Name = ZINC47145669
REMARK  2 active torsions:
REMARK  status: ('A' for Active; 'I' for Inactive)
REMARK    1  A    between atoms: C_6  and  C_7
REMARK    2  A    between atoms: N_23  and  C_26
REMARK                            x       y       z     vdW  Elec       q    Type
REMARK                         _______ _______ _______ _____ _____    ______ ____
ROOT
ATOM      1  C   UNL     1      -1.293  -0.775   0.010  0.00  0.00    +0.072 C 
ATOM      2  C   UNL     1      -1.428  -1.548  -1.271  0.00  0.00    +0.033 A 
ATOM      3  C   UNL     1      -1.178  -2.853  -1.518  0.00  0.00    +0.088 A 
ATOM      4  N   UNL     1      -1.424  -3.257  -2.807  0.00  0.00    -0.311 N 
ATOM      5  H   UNL     1      -1.279  -4.183  -3.060  0.00  0.00    +0.170 HD
ATOM      6  C   UNL     1      -1.866  -2.370  -3.718  0.00  0.00    +0.289 A 
ATOM      7  O   UNL     1      -2.128  -2.561  -4.893  0.00  0.00    -0.260 OA
ATOM      8  S   UNL     1      -1.971  -0.936  -2.845  0.00  0.00    -0.030 S 
ATOM      9  S   UNL     1      -0.557  -3.931  -0.236  0.00  0.00    -0.093 S 
ATOM     10  C   UNL     1      -0.071  -2.704   1.005  0.00  0.00    +0.152 C 
ATOM     11  C   UNL     1      -1.296  -1.747   1.163  0.00  0.00    +0.110 C 
ATOM     12  C   UNL     1      -1.075  -1.236   2.551  0.00  0.00    +0.232 C 
ATOM     13  O   UNL     1      -1.395  -0.150   2.987  0.00  0.00    -0.274 OA
ATOM     14  N   UNL     1      -0.445  -2.233   3.225  0.00  0.00    -0.209 N 
ATOM     15  C   UNL     1       0.046  -3.239   2.406  0.00  0.00    +0.240 C 
ATOM     16  O   UNL     1       0.468  -4.326   2.737  0.00  0.00    -0.274 OA
ENDROOT
BRANCH   1  22
ATOM     17  C   UNL     1       1.108  -0.518  -0.648  0.00  0.00    +0.005 A 
ATOM     18  C   UNL     1       2.296   0.189  -0.656  0.00  0.00    +0.015 A 
ATOM     19  C   UNL     1       2.378   1.411  -0.013  0.00  0.00    +0.018 A 
ATOM     20  C   UNL     1       1.271   1.925   0.638  0.00  0.00    +0.015 A 
ATOM     21  C   UNL     1       0.083   1.217   0.645  0.00  0.00    +0.005 A 
ATOM     22  C   UNL     1       0.002  -0.004   0.002  0.00  0.00    -0.039 A 
ATOM     23 BR   UNL     1       4.003   2.378  -0.023  0.00  0.00    -0.050 Br
ENDBRANCH   1  22
BRANCH  14  24
ATOM     24  C   UNL     1      -0.285  -2.238   4.618  0.00  0.00    +0.044 A 
ATOM     25  C   UNL     1      -0.788  -1.191   5.379  0.00  0.00    +0.025 A 
ATOM     26  C   UNL     1      -0.629  -1.198   6.751  0.00  0.00    +0.022 A 
ATOM     27  C   UNL     1       0.030  -2.247   7.367  0.00  0.00    +0.041 A 
ATOM     28  C   UNL     1       0.532  -3.291   6.611  0.00  0.00    +0.022 A 
ATOM     29  C   UNL     1       0.370  -3.292   5.239  0.00  0.00    +0.025 A 
ATOM     30 CL   UNL     1       0.228  -2.252   9.092  0.00  0.00    -0.084 Cl
ENDBRANCH  14  24
TORSDOF 2
