REMARK  Name = ZINC39911711
REMARK  17 active torsions:
REMARK  status: ('A' for Active; 'I' for Inactive)
REMARK    1  A    between atoms: C_1  and  C_2
REMARK    2  A    between atoms: C_2  and  C_3
REMARK    3  A    between atoms: C_3  and  C_4
REMARK    4  A    between atoms: C_4  and  O_5
REMARK    5  A    between atoms: O_5  and  C_6
REMARK    6  A    between atoms: C_9  and  C_14
REMARK    7  A    between atoms: C_11  and  O_12
REMARK    8  A    between atoms: O_12  and  C_13
REMARK    9  A    between atoms: C_17  and  C_30
REMARK   10  A    between atoms: N_24  and  C_25
REMARK   11  A    between atoms: C_25  and  C_26
REMARK   12  A    between atoms: C_26  and  C_27
REMARK   13  A    between atoms: C_27  and  O_28
REMARK   14  A    between atoms: O_28  and  C_29
REMARK   15  A    between atoms: C_32  and  C_38
REMARK   16  A    between atoms: C_34  and  C_37
REMARK   17  A    between atoms: C_35  and  O_36
REMARK                            x       y       z     vdW  Elec       q    Type
REMARK                         _______ _______ _______ _____ _____    ______ ____
ROOT
ATOM      1  C   UNL     1      -3.276  -8.003  -0.895  0.00  0.00    +0.141 C 
ATOM      2  C   UNL     1      -3.101  -8.308  -2.358  0.00  0.00    +0.035 A 
ATOM      3  C   UNL     1      -3.552  -8.108  -3.667  0.00  0.00    +0.102 A 
ATOM      4  N   UNL     1      -2.770  -8.808  -4.465  0.00  0.00    -0.173 NA
ATOM      5  N   UNL     1      -1.870  -9.430  -3.790  0.00  0.00    -0.272 N 
ATOM      6  H   UNL     1      -1.187 -10.005  -4.169  0.00  0.00    +0.189 HD
ATOM      7  C   UNL     1      -2.019  -9.161  -2.459  0.00  0.00    +0.126 A 
ATOM      8  C   UNL     1      -1.496  -9.413  -1.111  0.00  0.00    +0.265 C 
ATOM      9  O   UNL     1      -0.543 -10.125  -0.858  0.00  0.00    -0.268 OA
ATOM     10  N   UNL     1      -2.220  -8.744  -0.194  0.00  0.00    -0.285 N 
ENDROOT
BRANCH   3  11
ATOM     11  C   UNL     1      -4.700  -7.263  -4.081  0.00  0.00    +0.044 A 
ATOM     12  C   UNL     1      -5.521  -6.679  -3.120  0.00  0.00    +0.017 A 
ATOM     13  C   UNL     1      -6.588  -5.894  -3.510  0.00  0.00    -0.049 A 
ATOM     14  C   UNL     1      -6.844  -5.685  -4.854  0.00  0.00    +0.010 A 
ATOM     15  C   UNL     1      -6.035  -6.260  -5.815  0.00  0.00    -0.008 A 
ATOM     16  C   UNL     1      -4.958  -7.045  -5.437  0.00  0.00    +0.129 A 
ATOM     17  C   UNL     1      -6.322  -6.028  -7.277  0.00  0.00    +0.047 C 
ATOM     18  C   UNL     1      -7.476  -5.264  -2.469  0.00  0.00    +0.044 C 
BRANCH  16  19
ATOM     19  O   UNL     1      -4.158  -7.606  -6.382  0.00  0.00    -0.506 OA
ATOM     20  H   UNL     1      -4.446  -8.482  -6.671  0.00  0.00    +0.292 HD
ENDBRANCH  16  19
ENDBRANCH   3  11
BRANCH   1  24
ATOM     21  C   UNL     1      -2.841  -3.805  -0.203  0.00  0.00    +0.162 A 
ATOM     22  C   UNL     1      -4.080  -4.409  -0.061  0.00  0.00    +0.050 A 
ATOM     23  C   UNL     1      -4.218  -5.766  -0.286  0.00  0.00    +0.009 A 
ATOM     24  C   UNL     1      -3.121  -6.524  -0.652  0.00  0.00    -0.019 A 
ATOM     25  C   UNL     1      -1.881  -5.928  -0.795  0.00  0.00    +0.055 A 
ATOM     26  C   UNL     1      -1.738  -4.567  -0.577  0.00  0.00    +0.162 A 
BRANCH  26  27
ATOM     27  O   UNL     1      -0.521  -3.978  -0.722  0.00  0.00    -0.491 OA
ATOM     28  C   UNL     1       0.556  -4.813  -1.152  0.00  0.00    +0.277 C 
ENDBRANCH  26  27
BRANCH  21  29
ATOM     29  O   UNL     1      -2.704  -2.470   0.018  0.00  0.00    -0.488 OA
BRANCH  29  30
ATOM     30  C   UNL     1      -3.878  -1.752   0.399  0.00  0.00    +0.229 C 
BRANCH  30  31
ATOM     31  C   UNL     1      -3.530  -0.276   0.602  0.00  0.00    +0.041 C 
BRANCH  31  33
ATOM     32  C   UNL     1      -4.440   1.970   1.212  0.00  0.00    +0.004 C 
ATOM     33  C   UNL     1      -4.788   0.494   1.010  0.00  0.00    -0.000 C 
ENDBRANCH  31  33
ENDBRANCH  30  31
ENDBRANCH  29  30
ENDBRANCH  21  29
ENDBRANCH   1  24
BRANCH  10  34
ATOM     34  C   UNL     1      -1.995  -8.754   1.253  0.00  0.00    +0.111 C 
BRANCH  34  35
ATOM     35  C   UNL     1      -2.799  -9.891   1.887  0.00  0.00    +0.047 C 
BRANCH  35  36
ATOM     36  C   UNL     1      -2.563  -9.900   3.399  0.00  0.00    +0.161 C 
BRANCH  36  37
ATOM     37  O   UNL     1      -3.314 -10.962   3.991  0.00  0.00    -0.383 OA
ATOM     38  C   UNL     1      -3.164 -11.060   5.409  0.00  0.00    +0.193 C 
ENDBRANCH  36  37
ENDBRANCH  35  36
ENDBRANCH  34  35
ENDBRANCH  10  34
TORSDOF 12
