REMARK  Name = ZINC12608356
REMARK  9 active torsions:
REMARK  status: ('A' for Active; 'I' for Inactive)
REMARK    1  A    between atoms: C_1  and  C_2
REMARK    2  A    between atoms: C_5  and  S_8
REMARK    3  A    between atoms: S_8  and  N_11
REMARK    4  A    between atoms: C_17  and  C_19
REMARK    5  A    between atoms: C_19  and  S_20
REMARK    6  A    between atoms: S_20  and  C_21
REMARK    7  A    between atoms: C_22  and  C_32
REMARK    8  A    between atoms: C_23  and  C_28
REMARK    9  A    between atoms: C_25  and  C_27
REMARK                            x       y       z     vdW  Elec       q    Type
REMARK                         _______ _______ _______ _____ _____    ______ ____
ROOT
ATOM      1  N   UNL     1      -0.897   1.885  -1.312  0.00  0.00    -0.174 NA
ATOM      2  C   UNL     1      -1.885   0.978  -1.913  0.00  0.00    +0.128 C 
ATOM      3  C   UNL     1      -3.242   1.700  -1.960  0.00  0.00    +0.125 C 
ATOM      4  N   UNL     1      -3.046   3.028  -2.557  0.00  0.00    -0.298 N 
ATOM      5  C   UNL     1      -2.054   3.934  -1.959  0.00  0.00    +0.125 C 
ATOM      6  C   UNL     1      -0.701   3.214  -1.909  0.00  0.00    +0.128 C 
ATOM      7  C   UNL     1      -3.762   3.410  -3.633  0.00  0.00    +0.226 C 
ATOM      8  O   UNL     1      -3.591   4.509  -4.117  0.00  0.00    -0.275 OA
ENDROOT
BRANCH   1   9
ATOM      9  S   UNL     1      -0.017   1.417   0.010  0.00  0.00    +0.061 S 
ATOM     10  O   UNL     1       0.002  -0.004   0.002  0.00  0.00    -0.153 OA
ATOM     11  O   UNL     1       1.172   2.195   0.003  0.00  0.00    -0.153 OA
BRANCH   9  16
ATOM     12  C   UNL     1      -3.131   3.072   4.906  0.00  0.00    +0.044 C 
ATOM     13  C   UNL     1      -2.353   2.659   3.683  0.00  0.00    -0.050 A 
ATOM     14  C   UNL     1      -2.559   1.412   3.121  0.00  0.00    +0.005 A 
ATOM     15  C   UNL     1      -1.846   1.033   2.000  0.00  0.00    +0.029 A 
ATOM     16  C   UNL     1      -0.927   1.900   1.439  0.00  0.00    +0.105 A 
ATOM     17  C   UNL     1      -0.717   3.145   2.004  0.00  0.00    +0.029 A 
ATOM     18  C   UNL     1      -1.434   3.526   3.123  0.00  0.00    +0.005 A 
ENDBRANCH   9  16
ENDBRANCH   1   9
BRANCH   7  19
ATOM     19  C   UNL     1      -4.775   2.471  -4.235  0.00  0.00    +0.171 C 
BRANCH  19  20
ATOM     20  S   UNL     1      -5.566   3.266  -5.656  0.00  0.00    -0.095 S 
BRANCH  20  21
ATOM     21  C   UNL     1      -6.669   1.984  -6.150  0.00  0.00    +0.116 A 
ATOM     22  C   UNL     1      -7.513   2.176  -7.258  0.00  0.00    +0.095 A 
ATOM     23  C   UNL     1      -8.381   1.143  -7.631  0.00  0.00    +0.076 A 
ATOM     24  C   UNL     1      -8.368  -0.026  -6.890  0.00  0.00    +0.036 A 
ATOM     25  C   UNL     1      -7.509  -0.140  -5.812  0.00  0.00    +0.040 A 
ATOM     26  N   UNL     1      -6.695   0.843  -5.479  0.00  0.00    -0.244 NA
ATOM     27  C   UNL     1      -7.498  -1.414  -5.007  0.00  0.00    +0.065 C 
BRANCH  23  28
ATOM     28  C   UNL     1      -9.305   1.299  -8.811  0.00  0.00    +0.419 C 
ATOM     29  F   UNL     1     -10.060   0.132  -8.970  0.00  0.00    -0.166 F 
ATOM     30  F   UNL     1     -10.162   2.383  -8.592  0.00  0.00    -0.166 F 
ATOM     31  F   UNL     1      -8.551   1.527  -9.967  0.00  0.00    -0.166 F 
ENDBRANCH  23  28
BRANCH  22  32
ATOM     32  C   UNL     1      -7.486   3.406  -7.992  0.00  0.00    +0.102 C 
ATOM     33  N   UNL     1      -7.464   4.381  -8.573  0.00  0.00    -0.191 NA
ENDBRANCH  22  32
ENDBRANCH  20  21
ENDBRANCH  19  20
ENDBRANCH   7  19
TORSDOF 7
