REMARK  Name = ZINC46569548
REMARK  15 active torsions:
REMARK  status: ('A' for Active; 'I' for Inactive)
REMARK    1  A    between atoms: C_1  and  C_2
REMARK    2  A    between atoms: C_2  and  C_3
REMARK    3  A    between atoms: C_3  and  C_4
REMARK    4  A    between atoms: C_4  and  N_5
REMARK    5  A    between atoms: N_5  and  C_6
REMARK    6  A    between atoms: C_7  and  N_19
REMARK    7  A    between atoms: N_8  and  C_15
REMARK    8  A    between atoms: C_15  and  C_16
REMARK    9  A    between atoms: C_16  and  C_17
REMARK   10  A    between atoms: C_16  and  C_18
REMARK   11  A    between atoms: C_20  and  C_22
REMARK   12  A    between atoms: C_22  and  C_23
REMARK   13  A    between atoms: C_23  and  C_24
REMARK   14  A    between atoms: C_27  and  O_31
REMARK   15  A    between atoms: O_31  and  C_32
REMARK                            x       y       z     vdW  Elec       q    Type
REMARK                         _______ _______ _______ _____ _____    ______ ____
ROOT
ATOM      1  N   UNL     1      -2.780  -2.572   0.016  0.00  0.00    -0.264 N 
ATOM      2  C   UNL     1      -3.279  -2.904   1.226  0.00  0.00    +0.220 C 
ATOM      3  O   UNL     1      -4.371  -3.425   1.309  0.00  0.00    -0.275 OA
ENDROOT
BRANCH   1   4
ATOM      4  C   UNL     1      -3.572  -2.728  -1.141  0.00  0.00    +0.140 A 
ATOM      5  C   UNL     1      -3.224  -3.645  -2.111  0.00  0.00    +0.127 A 
ATOM      6  N   UNL     1      -4.017  -3.773  -3.228  0.00  0.00    -0.280 N 
ATOM      7  C   UNL     1      -5.118  -3.014  -3.373  0.00  0.00    +0.331 A 
ATOM      8  O   UNL     1      -5.805  -3.143  -4.368  0.00  0.00    -0.246 OA
ATOM      9  N   UNL     1      -5.473  -2.116  -2.437  0.00  0.00    -0.273 N 
ATOM     10  H   UNL     1      -6.271  -1.580  -2.565  0.00  0.00    +0.173 HD
ATOM     11  C   UNL     1      -4.734  -1.954  -1.322  0.00  0.00    +0.277 A 
ATOM     12  O   UNL     1      -5.067  -1.140  -0.477  0.00  0.00    -0.266 OA
BRANCH   5  13
ATOM     13  N   UNL     1      -2.099  -4.420  -1.964  0.00  0.00    -0.343 N 
ATOM     14  H   UNL     1      -1.505  -4.275  -1.211  0.00  0.00    +0.144 HD
ATOM     15  H   UNL     1      -1.899  -5.112  -2.614  0.00  0.00    +0.144 HD
ENDBRANCH   5  13
BRANCH   6  16
ATOM     16  C   UNL     1      -3.659  -4.743  -4.267  0.00  0.00    +0.131 C 
BRANCH  16  17
ATOM     17  C   UNL     1      -4.318  -6.089  -3.957  0.00  0.00    +0.003 C 
ATOM     18  C   UNL     1      -5.839  -5.944  -4.044  0.00  0.00    +0.009 C 
ATOM     19  C   UNL     1      -3.846  -7.133  -4.970  0.00  0.00    +0.009 C 
ENDBRANCH  16  17
ENDBRANCH   6  16
ENDBRANCH   1   4
BRANCH   1  20
ATOM     20  C   UNL     1      -1.415  -2.051  -0.095  0.00  0.00    +0.114 C 
BRANCH  20  21
ATOM     21  C   UNL     1      -1.452  -0.521  -0.090  0.00  0.00    +0.019 C 
BRANCH  21  23
ATOM     22  C   UNL     1      -0.063   1.553  -0.201  0.00  0.00    +0.004 C 
ATOM     23  C   UNL     1      -0.027   0.023  -0.206  0.00  0.00    -0.002 C 
ENDBRANCH  21  23
ENDBRANCH  20  21
ENDBRANCH   1  20
BRANCH   2  24
ATOM     24  C   UNL     1      -2.479  -2.627   2.473  0.00  0.00    +0.101 C 
BRANCH  24  25
ATOM     25  C   UNL     1      -3.266  -3.095   3.698  0.00  0.00    +0.044 C 
BRANCH  25  26
ATOM     26  C   UNL     1      -2.467  -2.818   4.945  0.00  0.00    -0.046 A 
ATOM     27  C   UNL     1      -1.587  -3.770   5.426  0.00  0.00    +0.007 A 
ATOM     28  C   UNL     1      -0.853  -3.518   6.570  0.00  0.00    +0.047 A 
ATOM     29  C   UNL     1      -0.999  -2.310   7.234  0.00  0.00    +0.134 A 
ATOM     30  C   UNL     1      -1.882  -1.355   6.749  0.00  0.00    +0.060 A 
ATOM     31  C   UNL     1      -2.610  -1.610   5.602  0.00  0.00    +0.022 A 
ATOM     32 BR   UNL     1      -2.085   0.293   7.652  0.00  0.00    -0.047 Br
BRANCH  29  33
ATOM     33  O   UNL     1      -0.278  -2.060   8.360  0.00  0.00    -0.494 OA
ATOM     34  C   UNL     1       0.611  -3.088   8.802  0.00  0.00    +0.277 C 
ENDBRANCH  29  33
ENDBRANCH  25  26
ENDBRANCH  24  25
ENDBRANCH   2  24
TORSDOF 11
