REMARK  Name = ZINC56828193
REMARK  7 active torsions:
REMARK  status: ('A' for Active; 'I' for Inactive)
REMARK    1  A    between atoms: C_1  and  C_2
REMARK    2  A    between atoms: C_2  and  C_4
REMARK    3  A    between atoms: C_2  and  N_13
REMARK    4  A    between atoms: C_4  and  C_5
REMARK    5  A    between atoms: C_5  and  C_6
REMARK    6  A    between atoms: C_9  and  O_12
REMARK    7  A    between atoms: C_20  and  C_23
REMARK                            x       y       z     vdW  Elec       q    Type
REMARK                         _______ _______ _______ _____ _____    ______ ____
ROOT
ATOM      1  N   UNL     1       0.711  -0.490   1.189  0.00  0.00    -0.297 N 
ATOM      2  C   UNL     1       2.054  -0.600   1.174  0.00  0.00    +0.303 C 
ATOM      3  O   UNL     1       2.670  -0.384   0.148  0.00  0.00    -0.253 OA
ATOM      4  N   UNL     1       2.714  -0.949   2.296  0.00  0.00    -0.281 N 
ATOM      5  C   UNL     1       4.185  -0.965   2.335  0.00  0.00    +0.137 C 
ATOM      6  C   UNL     1       4.644  -0.170   3.564  0.00  0.00    +0.179 C 
ATOM      7  O   UNL     1       3.972  -0.668   4.723  0.00  0.00    -0.369 OA
ATOM      8  C   UNL     1       2.551  -0.515   4.688  0.00  0.00    +0.166 C 
ATOM      9  C   UNL     1       1.985  -1.321   3.519  0.00  0.00    +0.145 C 
ATOM     10  H   UNL     1       0.213  -0.733   1.985  0.00  0.00    +0.151 HD
ENDROOT
BRANCH   8  11
ATOM     11  C   UNL     1       1.958  -1.013   5.980  0.00  0.00    -0.017 A 
ATOM     12  C   UNL     1       2.527  -2.094   6.630  0.00  0.00    +0.007 A 
ATOM     13  C   UNL     1       1.984  -2.551   7.815  0.00  0.00    +0.020 A 
ATOM     14  C   UNL     1       0.871  -1.929   8.352  0.00  0.00    +0.041 A 
ATOM     15  C   UNL     1       0.303  -0.848   7.702  0.00  0.00    +0.020 A 
ATOM     16  C   UNL     1       0.850  -0.387   6.519  0.00  0.00    +0.007 A 
ATOM     17 CL   UNL     1       0.188  -2.503   9.841  0.00  0.00    -0.084 Cl
ENDBRANCH   8  11
BRANCH   1  19
ATOM     18  C   UNL     1      -0.019   1.527   0.013  0.00  0.00    +0.028 C 
ATOM     19  C   UNL     1       0.002  -0.003   0.003  0.00  0.00    +0.072 C 
BRANCH  19  20
ATOM     20  C   UNL     1      -1.433  -0.532   0.012  0.00  0.00    +0.026 C 
BRANCH  20  21
ATOM     21  C   UNL     1      -1.415  -2.056  -0.124  0.00  0.00    +0.037 C 
BRANCH  21  22
ATOM     22  C   UNL     1      -2.829  -2.578  -0.115  0.00  0.00    -0.047 A 
ATOM     23  C   UNL     1      -3.431  -2.918   1.083  0.00  0.00    +0.007 A 
ATOM     24  C   UNL     1      -4.727  -3.397   1.094  0.00  0.00    +0.045 A 
ATOM     25  C   UNL     1      -5.424  -3.536  -0.097  0.00  0.00    +0.117 A 
ATOM     26  C   UNL     1      -4.818  -3.194  -1.297  0.00  0.00    +0.045 A 
ATOM     27  C   UNL     1      -3.524  -2.711  -1.302  0.00  0.00    +0.007 A 
BRANCH  25  28
ATOM     28  O   UNL     1      -6.699  -4.008  -0.088  0.00  0.00    -0.507 OA
ATOM     29  H   UNL     1      -7.372  -3.319  -0.004  0.00  0.00    +0.292 HD
ENDBRANCH  25  28
ENDBRANCH  21  22
ENDBRANCH  20  21
ENDBRANCH  19  20
ENDBRANCH   1  19
TORSDOF 6
