REMARK  Name = ZINC36601065
REMARK  17 active torsions:
REMARK  status: ('A' for Active; 'I' for Inactive)
REMARK    1  A    between atoms: C_1  and  C_2
REMARK    2  A    between atoms: C_5  and  C_9
REMARK    3  A    between atoms: C_6  and  C_8
REMARK    4  A    between atoms: C_9  and  C_11
REMARK    5  A    between atoms: C_9  and  N_22
REMARK    6  A    between atoms: N_13  and  C_14
REMARK    7  A    between atoms: C_14  and  C_15
REMARK    8  A    between atoms: C_14  and  C_16
REMARK    9  A    between atoms: C_14  and  C_17
REMARK   10  A    between atoms: C_17  and  C_18
REMARK   11  A    between atoms: C_18  and  C_19
REMARK   12  A    between atoms: C_18  and  C_20
REMARK   13  A    between atoms: C_18  and  C_21
REMARK   14  A    between atoms: N_22  and  C_23
REMARK   15  A    between atoms: C_23  and  C_24
REMARK   16  A    between atoms: C_27  and  C_29
REMARK   17  A    between atoms: C_30  and  C_32
REMARK                            x       y       z     vdW  Elec       q    Type
REMARK                         _______ _______ _______ _____ _____    ______ ____
ROOT
ATOM      1  C   UNL     1       1.103  -4.699   0.189  0.00  0.00    +0.193 C 
ENDROOT
BRANCH   1   6
ATOM      2  C   UNL     1       3.943  -1.505  -3.701  0.00  0.00    +0.044 C 
ATOM      3  C   UNL     1       3.202  -2.338  -2.686  0.00  0.00    -0.050 A 
ATOM      4  C   UNL     1       3.812  -3.442  -2.121  0.00  0.00    +0.004 A 
ATOM      5  C   UNL     1       3.133  -4.206  -1.191  0.00  0.00    +0.006 A 
ATOM      6  C   UNL     1       1.844  -3.865  -0.825  0.00  0.00    -0.015 A 
ATOM      7  C   UNL     1       1.234  -2.760  -1.389  0.00  0.00    -0.045 A 
ATOM      8  C   UNL     1       1.915  -1.994  -2.317  0.00  0.00    +0.007 A 
ATOM      9  C   UNL     1      -0.171  -2.389  -0.991  0.00  0.00    +0.044 C 
ENDBRANCH   1   6
BRANCH   1  10
ATOM     10  C   UNL     1       2.085  -5.293   1.165  0.00  0.00    +0.239 C 
ATOM     11  O   UNL     1       2.508  -6.416   0.992  0.00  0.00    -0.273 OA
ATOM     12  N   UNL     1       2.493  -4.575   2.231  0.00  0.00    -0.308 N 
ATOM     13  H   UNL     1       2.098  -3.708   2.412  0.00  0.00    +0.149 HD
BRANCH  12  14
ATOM     14  C   UNL     1       3.534  -5.105   3.116  0.00  0.00    +0.030 C 
ATOM     15  C   UNL     1       3.079  -6.448   3.691  0.00  0.00    +0.031 C 
ATOM     16  C   UNL     1       4.827  -5.303   2.321  0.00  0.00    +0.031 C 
BRANCH  14  17
ATOM     17  C   UNL     1       3.783  -4.119   4.258  0.00  0.00    +0.031 C 
BRANCH  17  18
ATOM     18  C   UNL     1       3.627  -2.688   3.740  0.00  0.00    -0.036 C 
ATOM     19  C   UNL     1       2.143  -2.314   3.714  0.00  0.00    +0.010 C 
ATOM     20  C   UNL     1       4.379  -1.726   4.662  0.00  0.00    +0.010 C 
ATOM     21  C   UNL     1       4.201  -2.592   2.325  0.00  0.00    +0.010 C 
ENDBRANCH  17  18
ENDBRANCH  14  17
ENDBRANCH  12  14
ENDBRANCH   1  10
BRANCH   1  22
ATOM     22  N   UNL     1       0.383  -5.776  -0.496  0.00  0.00    -0.277 N 
ATOM     23  C   UNL     1      -0.930  -5.964  -0.261  0.00  0.00    +0.237 C 
ATOM     24  O   UNL     1      -1.548  -6.791  -0.898  0.00  0.00    -0.274 OA
BRANCH  23  25
ATOM     25  C   UNL     1      -1.632  -5.147   0.793  0.00  0.00    +0.159 C 
ATOM     26  C   UNL     1      -1.459  -5.803   2.181  0.00  0.00    +0.041 C 
ATOM     27  C   UNL     1      -2.737  -6.668   2.283  0.00  0.00    +0.098 C 
ATOM     28  C   UNL     1      -3.723  -5.982   1.363  0.00  0.00    +0.214 C 
ATOM     29  O   UNL     1      -4.921  -6.170   1.365  0.00  0.00    -0.276 OA
ATOM     30  N   UNL     1      -3.078  -5.131   0.543  0.00  0.00    -0.304 N 
ATOM     31  H   UNL     1      -3.512  -4.579  -0.126  0.00  0.00    +0.149 HD
ENDBRANCH  23  25
BRANCH  22  32
ATOM     32  C   UNL     1       1.092  -6.647  -1.436  0.00  0.00    +0.183 C 
BRANCH  32  33
ATOM     33  C   UNL     1       1.471  -7.931  -0.743  0.00  0.00    +0.122 A 
ATOM     34  C   UNL     1       0.662  -8.987  -0.545  0.00  0.00    +0.046 A 
ATOM     35  C   UNL     1       1.422  -9.963   0.139  0.00  0.00    +0.045 A 
ATOM     36  C   UNL     1       2.651  -9.445   0.318  0.00  0.00    +0.102 A 
ATOM     37  O   UNL     1       2.676  -8.216  -0.223  0.00  0.00    -0.463 OA
ATOM     38  C   UNL     1       3.804 -10.130   1.005  0.00  0.00    +0.086 C 
ENDBRANCH  32  33
ENDBRANCH  22  32
ENDBRANCH   1  22
TORSDOF 9
