REMARK  Name = ZINC59114422
REMARK  6 active torsions:
REMARK  status: ('A' for Active; 'I' for Inactive)
REMARK    1  A    between atoms: C_1  and  C_2
REMARK    2  A    between atoms: C_5  and  N_8
REMARK    3  A    between atoms: N_9  and  C_10
REMARK    4  A    between atoms: C_13  and  N_16
REMARK    5  A    between atoms: N_16  and  C_17
REMARK    6  A    between atoms: C_17  and  N_19
REMARK                            x       y       z     vdW  Elec       q    Type
REMARK                         _______ _______ _______ _____ _____    ______ ____
ROOT
ATOM      1  C   UNL     1      -0.279  -6.127   1.354  0.00  0.00    +0.086 A 
ATOM      2  C   UNL     1      -0.176  -6.746   0.104  0.00  0.00    +0.031 A 
ATOM      3  C   UNL     1      -0.043  -8.114   0.024  0.00  0.00    +0.025 A 
ATOM      4  C   UNL     1      -0.011  -8.881   1.185  0.00  0.00    +0.033 A 
ATOM      5  C   UNL     1      -0.113  -8.269   2.430  0.00  0.00    +0.025 A 
ATOM      6  C   UNL     1      -0.240  -6.901   2.519  0.00  0.00    +0.031 A 
ENDROOT
BRANCH   1   8
ATOM      7  N   UNL     1      -0.445  -4.059   0.362  0.00  0.00    -0.149 NA
ATOM      8  N   UNL     1      -0.410  -4.771   1.438  0.00  0.00    -0.149 NA
BRANCH   7  13
ATOM      9  C   UNL     1      -0.990   1.547   0.708  0.00  0.00    +0.044 C 
ATOM     10  C   UNL     1      -0.844   0.050   0.616  0.00  0.00    -0.050 A 
ATOM     11  C   UNL     1      -0.748  -0.557  -0.624  0.00  0.00    +0.005 A 
ATOM     12  C   UNL     1      -0.615  -1.927  -0.716  0.00  0.00    +0.030 A 
ATOM     13  C   UNL     1      -0.577  -2.701   0.446  0.00  0.00    +0.086 A 
ATOM     14  C   UNL     1      -0.674  -2.081   1.694  0.00  0.00    +0.030 A 
ATOM     15  C   UNL     1      -0.801  -0.710   1.771  0.00  0.00    +0.005 A 
ENDBRANCH   7  13
ENDBRANCH   1   8
BRANCH   4  16
ATOM     16  N   UNL     1       0.124 -10.267   1.099  0.00  0.00    -0.296 N 
ATOM     17  H   UNL     1       0.121 -10.702   0.232  0.00  0.00    +0.154 HD
BRANCH  16  18
ATOM     18  C   UNL     1       0.258 -11.001   2.221  0.00  0.00    +0.141 C 
ATOM     19  S   UNL     1      -1.047 -11.961   2.777  0.00  0.00    -0.018 S 
BRANCH  18  20
ATOM     20  N   UNL     1       1.419 -10.980   2.906  0.00  0.00    -0.282 N 
ATOM     21  C   UNL     1       1.696 -11.763   4.113  0.00  0.00    +0.117 C 
ATOM     22  C   UNL     1       3.136 -11.397   4.509  0.00  0.00    +0.056 C 
ATOM     23  C   UNL     1       3.578 -10.402   3.460  0.00  0.00    -0.024 A 
ATOM     24  C   UNL     1       2.537 -10.214   2.564  0.00  0.00    +0.039 A 
ATOM     25  C   UNL     1       2.713  -9.334   1.495  0.00  0.00    +0.024 A 
ATOM     26  C   UNL     1       3.909  -8.667   1.333  0.00  0.00    +0.002 A 
ATOM     27  C   UNL     1       4.942  -8.864   2.230  0.00  0.00    +0.000 A 
ATOM     28  C   UNL     1       4.772  -9.728   3.297  0.00  0.00    +0.005 A 
ENDBRANCH  18  20
ENDBRANCH  16  18
ENDBRANCH   4  16
TORSDOF 5
