REMARK  Name = ZINC64185892
REMARK  6 active torsions:
REMARK  status: ('A' for Active; 'I' for Inactive)
REMARK    1  A    between atoms: C_2  and  C_3
REMARK    2  A    between atoms: C_3  and  N_4
REMARK    3  A    between atoms: N_7  and  C_8
REMARK    4  A    between atoms: C_8  and  C_9
REMARK    5  A    between atoms: C_9  and  C_11
REMARK    6  A    between atoms: C_9  and  C_17
REMARK                            x       y       z     vdW  Elec       q    Type
REMARK                         _______ _______ _______ _____ _____    ______ ____
ROOT
ATOM      1  C   UNL     1       4.601   5.472   0.113  0.00  0.00    +0.048 C 
ENDROOT
BRANCH   1   2
ATOM      2  C   UNL     1       4.777   6.968   0.156  0.00  0.00    -0.036 C 
ATOM      3  C   UNL     1       5.496   7.727  -0.702  0.00  0.00    -0.001 A 
ATOM      4  C   UNL     1       6.300   7.400  -1.886  0.00  0.00    +0.010 A 
ATOM      5  C   UNL     1       6.918   8.399  -2.556  0.00  0.00    +0.001 A 
ATOM      6  C   UNL     1       6.811   9.736  -2.149  0.00  0.00    +0.002 A 
ATOM      7  C   UNL     1       6.091  10.115  -1.072  0.00  0.00    +0.026 A 
ATOM      8  C   UNL     1       5.399   9.147  -0.293  0.00  0.00    +0.043 A 
ATOM      9  N   UNL     1       4.649   9.261   0.776  0.00  0.00    -0.380 N 
ATOM     10  C   UNL     1       4.180   7.926   1.163  0.00  0.00    +0.145 C 
ATOM     11  H   UNL     1       4.436  10.090   1.233  0.00  0.00    +0.160 HD
ENDBRANCH   1   2
BRANCH   1  12
ATOM     12  C   UNL     1       5.128   4.859   1.412  0.00  0.00    +0.063 C 
ATOM     13  C   UNL     1       6.655   5.085   1.569  0.00  0.00    +0.042 C 
ATOM     14  C   UNL     1       7.311   3.877   2.158  0.00  0.00    -0.019 C 
ATOM     15  C   UNL     1       6.689   2.715   2.133  0.00  0.00    +0.036 C 
ATOM     16  S   UNL     1       5.117   3.018   1.344  0.00  0.00    -0.129 S 
ENDBRANCH   1  12
BRANCH   1  17
ATOM     17  C   UNL     1       3.116   5.138  -0.043  0.00  0.00    +0.114 C 
BRANCH  17  21
ATOM     18  N   UNL     1       1.586   1.824  -0.486  0.00  0.00    -0.289 N 
ATOM     19  C   UNL     1       1.729   3.149  -0.289  0.00  0.00    +0.300 C 
ATOM     20  O   UNL     1       0.748   3.851  -0.138  0.00  0.00    -0.253 OA
ATOM     21  N   UNL     1       2.960   3.697  -0.258  0.00  0.00    -0.299 N 
ATOM     22  H   UNL     1       2.369   1.264  -0.607  0.00  0.00    +0.151 HD
ATOM     23  H   UNL     1       3.743   3.137  -0.378  0.00  0.00    +0.150 HD
BRANCH  18  24
ATOM     24  C   UNL     1       0.247   1.229  -0.520  0.00  0.00    +0.195 C 
BRANCH  24  26
ATOM     25  C   UNL     1       0.451  -1.377  -0.929  0.00  0.00    +0.005 C 
ATOM     26  C   UNL     1       0.361  -0.221  -0.748  0.00  0.00    -0.087 C 
ENDBRANCH  24  26
ENDBRANCH  18  24
ENDBRANCH  17  21
ENDBRANCH   1  17
TORSDOF 6
