REMARK  Name = ZINC13621124
REMARK  9 active torsions:
REMARK  status: ('A' for Active; 'I' for Inactive)
REMARK    1  A    between atoms: C_1  and  C_2
REMARK    2  A    between atoms: C_2  and  O_3
REMARK    3  A    between atoms: O_3  and  C_4
REMARK    4  A    between atoms: C_7  and  C_10
REMARK    5  A    between atoms: C_11  and  C_12
REMARK    6  A    between atoms: N_14  and  C_15
REMARK    7  A    between atoms: C_15  and  N_17
REMARK    8  A    between atoms: N_17  and  N_18
REMARK    9  A    between atoms: C_19  and  C_21
REMARK                            x       y       z     vdW  Elec       q    Type
REMARK                         _______ _______ _______ _____ _____    ______ ____
ROOT
ATOM      1  C   UNL     1       2.320   1.245  -0.013  0.00  0.00    +0.153 C 
ATOM      2  S   UNL     1       2.343  -0.467  -0.023  0.00  0.00    -0.017 S 
ENDROOT
BRANCH   1   5
ATOM      3  C   UNL     1      -0.014   1.213   0.009  0.00  0.00    +0.242 C 
ATOM      4  O   UNL     1       0.002  -0.004   0.002  0.00  0.00    -0.270 OA
ATOM      5  N   UNL     1       1.143   1.903   0.001  0.00  0.00    -0.263 N 
ATOM      6  H   UNL     1       1.130   2.872   0.007  0.00  0.00    +0.157 HD
BRANCH   3   8
ATOM      7  C   UNL     1      -2.450   1.235   0.020  0.00  0.00    +0.013 C 
ATOM      8  C   UNL     1      -1.290   1.926   0.019  0.00  0.00    +0.068 C 
BRANCH   7  12
ATOM      9  C   UNL     1      -6.152   3.305   0.049  0.00  0.00    +0.121 A 
ATOM     10  C   UNL     1      -6.136   1.915   0.042  0.00  0.00    +0.046 A 
ATOM     11  C   UNL     1      -4.937   1.239   0.032  0.00  0.00    +0.011 A 
ATOM     12  C   UNL     1      -3.733   1.952   0.030  0.00  0.00    -0.025 A 
ATOM     13  C   UNL     1      -3.755   3.352   0.044  0.00  0.00    +0.011 A 
ATOM     14  C   UNL     1      -4.959   4.019   0.047  0.00  0.00    +0.046 A 
BRANCH   9  15
ATOM     15  O   UNL     1      -7.336   3.968   0.058  0.00  0.00    -0.492 OA
BRANCH  15  17
ATOM     16  C   UNL     1      -8.702   5.962   0.075  0.00  0.00    +0.048 C 
ATOM     17  C   UNL     1      -7.281   5.396   0.065  0.00  0.00    +0.225 C 
ENDBRANCH  15  17
ENDBRANCH   9  15
ENDBRANCH   7  12
ENDBRANCH   3   8
ENDBRANCH   1   5
BRANCH   1  18
ATOM     18  N   UNL     1       3.478   1.934  -0.021  0.00  0.00    -0.245 N 
ATOM     19  H   UNL     1       4.324   1.461  -0.031  0.00  0.00    +0.172 HD
BRANCH  18  20
ATOM     20  N   UNL     1       3.458   3.335  -0.013  0.00  0.00    -0.231 N 
ATOM     21  C   UNL     1       4.616   4.025  -0.020  0.00  0.00    +0.262 C 
ATOM     22  O   UNL     1       5.677   3.431  -0.034  0.00  0.00    -0.269 OA
ATOM     23  H   UNL     1       2.612   3.809  -0.002  0.00  0.00    +0.173 HD
BRANCH  21  24
ATOM     24  C   UNL     1       4.596   5.502  -0.012  0.00  0.00    +0.057 A 
ATOM     25  C   UNL     1       3.379   6.186   0.003  0.00  0.00    +0.016 A 
ATOM     26  C   UNL     1       3.367   7.565   0.011  0.00  0.00    +0.021 A 
ATOM     27  C   UNL     1       4.559   8.272   0.003  0.00  0.00    +0.042 A 
ATOM     28  C   UNL     1       5.769   7.600  -0.013  0.00  0.00    +0.040 A 
ATOM     29  C   UNL     1       5.795   6.220  -0.014  0.00  0.00    +0.054 A 
ATOM     30 CL   UNL     1       7.314   5.378  -0.025  0.00  0.00    -0.083 Cl
ATOM     31 CL   UNL     1       4.534  10.008   0.012  0.00  0.00    -0.083 Cl
ENDBRANCH  21  24
ENDBRANCH  18  20
ENDBRANCH   1  18
TORSDOF 8
