REMARK  Name = ZINC21228861
REMARK  8 active torsions:
REMARK  status: ('A' for Active; 'I' for Inactive)
REMARK    1  A    between atoms: C_1  and  C_2
REMARK    2  A    between atoms: C_2  and  C_3
REMARK    3  A    between atoms: C_6  and  C_9
REMARK    4  A    between atoms: C_14  and  C_24
REMARK    5  A    between atoms: C_28  and  O_32
REMARK    6  A    between atoms: C_29  and  O_30
REMARK    7  A    between atoms: O_30  and  C_31
REMARK    8  A    between atoms: O_32  and  C_33
REMARK                            x       y       z     vdW  Elec       q    Type
REMARK                         _______ _______ _______ _____ _____    ______ ____
ROOT
ATOM      1  C   UNL     1       4.289  -0.223   4.446  0.00  0.00    +0.032 C 
ATOM      2  C   UNL     1       4.540  -1.649   3.961  0.00  0.00    +0.059 C 
ATOM      3  C   UNL     1       4.052  -1.805   2.530  0.00  0.00    +0.017 C 
ATOM      4  C   UNL     1       4.091  -0.767   1.678  0.00  0.00    +0.037 C 
ATOM      5  C   UNL     1       3.646  -0.788   0.235  0.00  0.00    +0.140 C 
ATOM      6  N   UNL     1       3.391  -2.110  -0.296  0.00  0.00    -0.331 N 
ATOM      7  C   UNL     1       2.356  -2.899   0.207  0.00  0.00    +0.049 A 
ATOM      8  C   UNL     1       1.240  -3.201  -0.557  0.00  0.00    +0.025 A 
ATOM      9  C   UNL     1       0.188  -3.891   0.021  0.00  0.00    +0.002 A 
ATOM     10  C   UNL     1       0.248  -4.276   1.348  0.00  0.00    +0.002 A 
ATOM     11  C   UNL     1       1.371  -3.994   2.107  0.00  0.00    +0.025 A 
ATOM     12  C   UNL     1       2.432  -3.321   1.525  0.00  0.00    +0.052 A 
ATOM     13  N   UNL     1       3.607  -3.048   2.214  0.00  0.00    -0.316 N 
ATOM     14  C   UNL     1       4.580   0.489   2.108  0.00  0.00    +0.163 C 
ATOM     15  O   UNL     1       4.624   1.406   1.311  0.00  0.00    -0.292 OA
ATOM     16  C   UNL     1       5.048   0.729   3.512  0.00  0.00    +0.088 C 
ATOM     17  H   UNL     1       4.017  -2.506  -1.109  0.00  0.00    +0.147 HD
ATOM     18  H   UNL     1       4.192  -3.933   2.507  0.00  0.00    +0.152 HD
ENDROOT
BRANCH   1  22
ATOM     19  C   UNL     1       5.726   0.221   8.444  0.00  0.00    -0.048 A 
ATOM     20  C   UNL     1       4.389   0.433   8.163  0.00  0.00    +0.004 A 
ATOM     21  C   UNL     1       3.924   0.290   6.869  0.00  0.00    +0.004 A 
ATOM     22  C   UNL     1       4.796  -0.066   5.856  0.00  0.00    -0.043 A 
ATOM     23  C   UNL     1       6.131  -0.284   6.139  0.00  0.00    +0.004 A 
ATOM     24  C   UNL     1       6.598  -0.136   7.432  0.00  0.00    +0.004 A 
BRANCH  19  26
ATOM     25  C   UNL     1       6.130  -0.961  10.586  0.00  0.00    +0.009 C 
ATOM     26  C   UNL     1       6.233   0.378   9.854  0.00  0.00    +0.032 C 
ENDBRANCH  19  26
ENDBRANCH   1  22
BRANCH   5  27
ATOM     27  C   UNL     1       2.385   0.027   0.113  0.00  0.00    +0.023 A 
ATOM     28  C   UNL     1       1.611   0.276   1.232  0.00  0.00    +0.009 A 
ATOM     29  C   UNL     1       0.454   1.024   1.123  0.00  0.00    +0.004 A 
ATOM     30  C   UNL     1       0.065   1.528  -0.104  0.00  0.00    +0.049 A 
ATOM     31  C   UNL     1       0.836   1.282  -1.229  0.00  0.00    +0.162 A 
ATOM     32  C   UNL     1       2.001   0.528  -1.120  0.00  0.00    +0.167 A 
BRANCH  32  33
ATOM     33  O   UNL     1       2.760   0.284  -2.221  0.00  0.00    -0.491 OA
ATOM     34  C   UNL     1       2.377  -0.821  -3.042  0.00  0.00    +0.277 C 
ENDBRANCH  32  33
BRANCH  31  35
ATOM     35  O   UNL     1       0.455   1.777  -2.437  0.00  0.00    -0.491 OA
ATOM     36  C   UNL     1      -0.751   2.542  -2.474  0.00  0.00    +0.277 C 
ENDBRANCH  31  35
ENDBRANCH   5  27
TORSDOF 5
