REMARK  Name = ZINC39293372
REMARK  6 active torsions:
REMARK  status: ('A' for Active; 'I' for Inactive)
REMARK    1  A    between atoms: C_1  and  C_2
REMARK    2  A    between atoms: C_2  and  C_4
REMARK    3  A    between atoms: C_2  and  N_10
REMARK    4  A    between atoms: C_19  and  O_34
REMARK    5  A    between atoms: C_30  and  O_31
REMARK    6  A    between atoms: O_31  and  C_32
REMARK                            x       y       z     vdW  Elec       q    Type
REMARK                         _______ _______ _______ _____ _____    ______ ____
ROOT
ATOM      1  N   UNL     1      -1.305  -0.299  -2.407  0.00  0.00    -0.293 N 
ATOM      2  C   UNL     1       0.006  -0.608  -2.358  0.00  0.00    +0.303 C 
ATOM      3  O   UNL     1       0.640  -0.409  -1.341  0.00  0.00    -0.253 OA
ATOM      4  N   UNL     1       0.614  -1.138  -3.439  0.00  0.00    -0.281 N 
ATOM      5  C   UNL     1      -0.152  -1.254  -4.657  0.00  0.00    +0.111 C 
ATOM      6  C   UNL     1       0.149  -0.162  -5.646  0.00  0.00    +0.038 C 
ATOM      7  C   UNL     1       1.506  -0.318  -6.304  0.00  0.00    +0.056 C 
ATOM      8  C   UNL     1       1.637  -1.661  -6.949  0.00  0.00    -0.013 C 
ATOM      9  C   UNL     1       1.796  -1.873  -8.211  0.00  0.00    +0.001 C 
ATOM     10  C   UNL     1       1.883  -0.785  -9.233  0.00  0.00    +0.141 C 
ATOM     11  C   UNL     1       1.321   0.521  -8.709  0.00  0.00    +0.081 C 
ATOM     12  C   UNL     1       1.721   0.832  -7.294  0.00  0.00    +0.191 C 
ATOM     13  O   UNL     1       3.111   1.148  -7.172  0.00  0.00    -0.484 OA
ATOM     14  C   UNL     1       3.541   0.762  -5.950  0.00  0.00    +0.167 A 
ATOM     15  C   UNL     1       2.648  -0.129  -5.332  0.00  0.00    +0.016 A 
ATOM     16  C   UNL     1       2.915  -0.684  -4.115  0.00  0.00    -0.022 A 
ATOM     17  C   UNL     1       4.131  -0.344  -3.510  0.00  0.00    +0.009 A 
ATOM     18  C   UNL     1       5.004   0.548  -4.087  0.00  0.00    +0.050 A 
ATOM     19  C   UNL     1       4.733   1.133  -5.317  0.00  0.00    +0.162 A 
ATOM     20  C   UNL     1       1.996  -1.549  -3.306  0.00  0.00    +0.144 C 
ATOM     21  H   UNL     1      -1.793  -0.386  -3.241  0.00  0.00    +0.151 HD
ENDROOT
BRANCH   1  23
ATOM     22  C   UNL     1      -2.457  -1.037  -0.380  0.00  0.00    +0.033 C 
ATOM     23  C   UNL     1      -1.992   0.168  -1.201  0.00  0.00    +0.102 C 
BRANCH  23  24
ATOM     24  C   UNL     1      -3.187   0.999  -1.593  0.00  0.00    -0.027 A 
ATOM     25  C   UNL     1      -3.977   0.614  -2.660  0.00  0.00    +0.005 A 
ATOM     26  C   UNL     1      -5.072   1.376  -3.020  0.00  0.00    +0.000 A 
ATOM     27  C   UNL     1      -5.378   2.524  -2.313  0.00  0.00    +0.000 A 
ATOM     28  C   UNL     1      -4.588   2.909  -1.245  0.00  0.00    +0.000 A 
ATOM     29  C   UNL     1      -3.495   2.144  -0.882  0.00  0.00    +0.005 A 
ENDBRANCH  23  24
ENDBRANCH   1  23
BRANCH  19  30
ATOM     30  O   UNL     1       5.588   2.028  -5.883  0.00  0.00    -0.491 OA
ATOM     31  C   UNL     1       6.777   2.338  -5.154  0.00  0.00    +0.277 C 
ENDBRANCH  19  30
BRANCH  10  32
ATOM     32  O   UNL     1       3.252  -0.591  -9.592  0.00  0.00    -0.388 OA
ATOM     33  H   UNL     1       3.675  -1.375  -9.968  0.00  0.00    +0.210 HD
ENDBRANCH  10  32
TORSDOF 4
