REMARK  Name = ZINC44334497
REMARK  1 active torsions:
REMARK  status: ('A' for Active; 'I' for Inactive)
REMARK    1  A    between atoms: C_8  and  C_10
REMARK                            x       y       z     vdW  Elec       q    Type
REMARK                         _______ _______ _______ _____ _____    ______ ____
ROOT
ATOM      1  C   UNL     1      -0.017   1.376   0.012  0.00  0.00    +0.021 A 
ATOM      2  C   UNL     1      -1.236   2.040  -0.020  0.00  0.00    +0.056 A 
ATOM      3  C   UNL     1      -2.400   1.285  -0.019  0.00  0.00    +0.217 A 
ATOM      4  C   UNL     1      -2.303  -0.107   0.013  0.00  0.00    +0.151 A 
ATOM      5  N   UNL     1      -1.121  -0.698   0.043  0.00  0.00    -0.346 N 
ATOM      6  C   UNL     1       0.002  -0.004   0.043  0.00  0.00    +0.084 A 
ATOM      7  N   UNL     1      -3.464  -0.880   0.014  0.00  0.00    -0.264 N 
ATOM      8  C   UNL     1      -3.380  -2.221  -0.095  0.00  0.00    +0.266 C 
ATOM      9  O   UNL     1      -2.291  -2.764  -0.104  0.00  0.00    -0.268 OA
ATOM     10  O   UNL     1      -3.616   1.892  -0.050  0.00  0.00    -0.284 OA
ATOM     11  H   UNL     1      -4.331  -0.454   0.094  0.00  0.00    +0.157 HD
ATOM     12  H   UNL     1      -1.077  -1.667   0.065  0.00  0.00    +0.167 HD
ENDROOT
BRANCH   8  13
ATOM     13  C   UNL     1      -4.604  -3.028  -0.204  0.00  0.00    +0.103 A 
ATOM     14  C   UNL     1      -4.649  -4.381  -0.313  0.00  0.00    +0.041 A 
ATOM     15  C   UNL     1      -6.010  -4.763  -0.393  0.00  0.00    +0.001 A 
ATOM     16  C   UNL     1      -6.656  -6.000  -0.515  0.00  0.00    +0.025 A 
ATOM     17  C   UNL     1      -8.019  -6.051  -0.570  0.00  0.00    +0.019 A 
ATOM     18  C   UNL     1      -8.774  -4.885  -0.506  0.00  0.00    +0.017 A 
ATOM     19  C   UNL     1      -8.161  -3.659  -0.386  0.00  0.00    +0.027 A 
ATOM     20  C   UNL     1      -6.772  -3.581  -0.328  0.00  0.00    +0.047 A 
ATOM     21  N   UNL     1      -5.893  -2.531  -0.206  0.00  0.00    -0.351 N 
ATOM     22  H   UNL     1      -6.138  -1.595  -0.135  0.00  0.00    +0.166 HD
ATOM     23 BR   UNL     1      -8.889  -7.722  -0.735  0.00  0.00    -0.050 Br
ENDBRANCH   8  13
TORSDOF 1
