REMARK  Name = ZINC13713042
REMARK  3 active torsions:
REMARK  status: ('A' for Active; 'I' for Inactive)
REMARK    1  A    between atoms: C_1  and  C_2
REMARK    2  A    between atoms: C_5  and  C_8
REMARK    3  A    between atoms: C_19  and  C_21
REMARK                            x       y       z     vdW  Elec       q    Type
REMARK                         _______ _______ _______ _____ _____    ______ ____
ROOT
ATOM      1  C   UNL     1       0.059  -4.275  -0.021  0.00  0.00    +0.159 C 
ATOM      2  C   UNL     1       1.493  -4.730   0.141  0.00  0.00    +0.027 C 
ATOM      3  C   UNL     1       1.792  -5.521   1.191  0.00  0.00    +0.083 C 
ATOM      4  C   UNL     1       3.206  -5.952   1.344  0.00  0.00    +0.044 A 
ATOM      5  C   UNL     1       3.557  -7.002   2.181  0.00  0.00    +0.033 A 
ATOM      6  C   UNL     1       4.885  -7.371   2.291  0.00  0.00    +0.042 A 
ATOM      7  C   UNL     1       5.858  -6.698   1.571  0.00  0.00    +0.023 A 
ATOM      8  C   UNL     1       5.514  -5.651   0.736  0.00  0.00    +0.048 A 
ATOM      9  C   UNL     1       4.190  -5.269   0.617  0.00  0.00    +0.131 A 
ATOM     10  O   UNL     1       3.826  -4.240  -0.190  0.00  0.00    -0.479 OA
ATOM     11  C   UNL     1       2.555  -4.325  -0.838  0.00  0.00    +0.234 C 
ATOM     12 CL   UNL     1       5.334  -8.683   3.336  0.00  0.00    -0.084 Cl
ATOM     13  N   UNL     1       0.844  -5.911   2.079  0.00  0.00    -0.213 NA
ATOM     14  C   UNL     1      -0.420  -5.564   2.011  0.00  0.00    +0.237 C 
ATOM     15  N   UNL     1      -0.882  -4.751   1.000  0.00  0.00    -0.208 N 
ATOM     16  N   UNL     1      -2.249  -4.575   1.224  0.00  0.00    -0.251 N 
ATOM     17  C   UNL     1      -2.549  -5.282   2.349  0.00  0.00    +0.203 C 
ATOM     18  N   UNL     1      -1.479  -5.857   2.798  0.00  0.00    -0.205 NA
ATOM     19  H   UNL     1      -2.863  -4.053   0.685  0.00  0.00    +0.171 HD
ENDROOT
BRANCH   1  24
ATOM     20  C   UNL     1      -0.018   1.503   0.010  0.00  0.00    +0.044 C 
ATOM     21  C   UNL     1       0.002  -0.004   0.002  0.00  0.00    -0.050 A 
ATOM     22  C   UNL     1       0.006  -0.689  -1.199  0.00  0.00    +0.004 A 
ATOM     23  C   UNL     1       0.025  -2.071  -1.206  0.00  0.00    +0.006 A 
ATOM     24  C   UNL     1       0.040  -2.768  -0.013  0.00  0.00    -0.021 A 
ATOM     25  C   UNL     1       0.037  -2.084   1.188  0.00  0.00    +0.006 A 
ATOM     26  C   UNL     1       0.023  -0.702   1.195  0.00  0.00    +0.004 A 
ENDBRANCH   1  24
BRANCH  11  27
ATOM     27  C   UNL     1       2.628  -5.345  -1.945  0.00  0.00    -0.002 A 
ATOM     28  C   UNL     1       3.304  -6.534  -1.746  0.00  0.00    +0.007 A 
ATOM     29  C   UNL     1       3.370  -7.470  -2.761  0.00  0.00    +0.001 A 
ATOM     30  C   UNL     1       2.761  -7.218  -3.976  0.00  0.00    +0.015 A 
ATOM     31  C   UNL     1       2.085  -6.028  -4.176  0.00  0.00    +0.018 A 
ATOM     32  C   UNL     1       2.014  -5.093  -3.158  0.00  0.00    +0.022 A 
ATOM     33 BR   UNL     1       1.252  -5.681  -5.838  0.00  0.00    -0.050 Br
ENDBRANCH  11  27
TORSDOF 2
