REMARK  Name = ZINC08964824
REMARK  10 active torsions:
REMARK  status: ('A' for Active; 'I' for Inactive)
REMARK    1  A    between atoms: C_1  and  C_2
REMARK    2  A    between atoms: C_6  and  C_34
REMARK    3  A    between atoms: C_6  and  O_35
REMARK    4  A    between atoms: C_7  and  O_33
REMARK    5  A    between atoms: C_17  and  C_19
REMARK    6  A    between atoms: C_19  and  N_74
REMARK    7  A    between atoms: N_22  and  C_25
REMARK    8  A    between atoms: C_30  and  O_31
REMARK    9  A    between atoms: O_31  and  C_32
REMARK   10  A    between atoms: O_35  and  C_36
REMARK                            x       y       z     vdW  Elec       q    Type
REMARK                         _______ _______ _______ _____ _____    ______ ____
ROOT
ATOM      1  C   UNL     1       3.301   1.211  -2.204  0.00  0.00    +0.014 C 
ATOM      2  C   UNL     1       1.813   0.822  -2.196  0.00  0.00    +0.003 C 
ATOM      3  C   UNL     1       1.645  -0.526  -2.892  0.00  0.00    +0.010 C 
ATOM      4  C   UNL     1       2.028  -0.399  -4.366  0.00  0.00    +0.003 C 
ATOM      5  C   UNL     1       1.123   0.618  -5.049  0.00  0.00    +0.037 C 
ATOM      6  C   UNL     1       1.168   1.981  -4.374  0.00  0.00    +0.095 C 
ATOM      7  C   UNL     1       0.956   1.888  -2.859  0.00  0.00    +0.100 C 
ATOM      8  C   UNL     1      -0.531   1.573  -2.661  0.00  0.00    +0.046 C 
ATOM      9  C   UNL     1      -0.953   1.227  -1.269  0.00  0.00    +0.044 C 
ATOM     10  C   UNL     1      -0.017   0.242  -0.543  0.00  0.00    +0.181 C 
ATOM     11  C   UNL     1       1.434   0.685  -0.719  0.00  0.00    +0.054 C 
ATOM     12  O   UNL     1      -0.349   0.465   0.873  0.00  0.00    -0.461 OA
ATOM     13  C   UNL     1      -0.828   1.708   1.058  0.00  0.00    +0.309 C 
ATOM     14  O   UNL     1      -1.113   2.199   2.127  0.00  0.00    -0.251 OA
ATOM     15  C   UNL     1      -0.957   2.410  -0.285  0.00  0.00    +0.088 C 
ATOM     16  C   UNL     1       2.444   2.734  -4.738  0.00  0.00    +0.044 C 
ENDROOT
BRANCH   7  17
ATOM     17  O   UNL     1       1.246   3.172  -2.280  0.00  0.00    -0.385 OA
ATOM     18  H   UNL     1       0.807   3.911  -2.723  0.00  0.00    +0.210 HD
ENDBRANCH   7  17
BRANCH   6  19
ATOM     19  O   UNL     1       0.065   2.755  -4.908  0.00  0.00    -0.374 OA
ATOM     20  C   UNL     1       0.122   2.948  -6.323  0.00  0.00    +0.194 C 
ENDBRANCH   6  19
BRANCH  15  21
ATOM     21  C   UNL     1      -2.280   3.175  -0.362  0.00  0.00    -0.064 C 
BRANCH  21  27
ATOM     22  C   UNL     1      -1.499   4.968  -1.791  0.00  0.00    -0.060 C 
ATOM     23  C   UNL     1      -1.597   5.554  -3.202  0.00  0.00    +0.086 C 
ATOM     24  N   UNL     1      -2.987   5.947  -3.471  0.00  0.00    -0.331 N 
ATOM     25  C   UNL     1      -3.889   4.792  -3.360  0.00  0.00    +0.086 C 
ATOM     26  C   UNL     1      -3.791   4.205  -1.950  0.00  0.00    -0.060 C 
ATOM     27  N   UNL     1      -2.394   3.794  -1.700  0.00  0.00    +0.382 N 
ATOM     28  H   UNL     1      -2.116   3.107  -2.411  0.00  0.00    -0.082 HD
BRANCH  24  29
ATOM     29  C   UNL     1      -3.102   6.554  -4.727  0.00  0.00    +0.072 A 
ATOM     30  C   UNL     1      -2.037   6.522  -5.615  0.00  0.00    +0.027 A 
ATOM     31  C   UNL     1      -2.155   7.119  -6.856  0.00  0.00    +0.002 A 
ATOM     32  C   UNL     1      -3.329   7.757  -7.212  0.00  0.00    +0.004 A 
ATOM     33  C   UNL     1      -4.393   7.797  -6.329  0.00  0.00    +0.047 A 
ATOM     34  C   UNL     1      -4.285   7.198  -5.085  0.00  0.00    +0.141 A 
BRANCH  34  35
ATOM     35  O   UNL     1      -5.330   7.238  -4.216  0.00  0.00    -0.493 OA
ATOM     36  C   UNL     1      -6.510   7.915  -4.652  0.00  0.00    +0.277 C 
ENDBRANCH  34  35
ENDBRANCH  24  29
ENDBRANCH  21  27
ENDBRANCH  15  21
TORSDOF 6
