REMARK  Name = ZINC07317637
REMARK  7 active torsions:
REMARK  status: ('A' for Active; 'I' for Inactive)
REMARK    1  A    between atoms: C_1  and  C_2
REMARK    2  A    between atoms: N_10  and  C_14
REMARK    3  A    between atoms: C_14  and  N_60
REMARK    4  A    between atoms: C_15  and  N_60
REMARK    5  A    between atoms: C_16  and  C_17
REMARK    6  A    between atoms: C_16  and  N_60
REMARK    7  A    between atoms: C_22  and  N_23
REMARK                            x       y       z     vdW  Elec       q    Type
REMARK                         _______ _______ _______ _____ _____    ______ ____
ROOT
ATOM      1  C   UNL     1      -1.750   2.702  -0.368  0.00  0.00    +0.043 C 
ENDROOT
BRANCH   1  11
ATOM      2  C   UNL     1       3.203  -3.464  -1.573  0.00  0.00    +0.007 C 
ATOM      3  C   UNL     1       1.852  -2.758  -1.442  0.00  0.00    -0.014 C 
ATOM      4  C   UNL     1       1.728  -2.150  -0.044  0.00  0.00    +0.006 C 
ATOM      5  C   UNL     1       0.371  -1.454   0.090  0.00  0.00    +0.035 C 
ATOM      6  C   UNL     1       0.249  -0.364  -0.969  0.00  0.00    +0.112 C 
ATOM      7  C   UNL     1       0.396  -0.951  -2.368  0.00  0.00    +0.035 C 
ATOM      8  C   UNL     1       1.753  -1.649  -2.492  0.00  0.00    +0.006 C 
ATOM      9  C   UNL     1      -1.074   0.354  -0.835  0.00  0.00    +0.245 C 
ATOM     10  O   UNL     1      -2.183  -0.124  -0.944  0.00  0.00    -0.273 OA
ATOM     11  N   UNL     1      -0.762   1.639  -0.569  0.00  0.00    -0.241 N 
ATOM     12  C   UNL     1       0.563   1.824  -0.518  0.00  0.00    +0.308 C 
ATOM     13  O   UNL     1       1.088   2.897  -0.294  0.00  0.00    -0.252 OA
ATOM     14  N   UNL     1       1.249   0.687  -0.744  0.00  0.00    -0.285 N 
ATOM     15  H   UNL     1       2.214   0.583  -0.756  0.00  0.00    +0.151 HD
ENDBRANCH   1  11
BRANCH   1  17
ATOM     16  C   UNL     1      -3.091   1.757   1.413  0.00  0.00    -0.093 C 
ATOM     17  N   UNL     1      -2.076   2.776   1.072  0.00  0.00    +0.391 N 
ATOM     18  H   UNL     1      -1.225   2.595   1.617  0.00  0.00    -0.079 HD
BRANCH  17  19
ATOM     19  C   UNL     1      -2.582   4.124   1.407  0.00  0.00    -0.039 C 
BRANCH  19  20
ATOM     20  C   UNL     1      -2.696   4.242   2.905  0.00  0.00    -0.043 A 
ATOM     21  C   UNL     1      -3.913   4.028   3.524  0.00  0.00    +0.003 A 
ATOM     22  C   UNL     1      -4.018   4.132   4.898  0.00  0.00    +0.000 A 
ATOM     23  C   UNL     1      -2.909   4.460   5.657  0.00  0.00    +0.002 A 
ATOM     24  C   UNL     1      -1.692   4.680   5.044  0.00  0.00    +0.023 A 
ATOM     25  C   UNL     1      -1.581   4.572   3.664  0.00  0.00    +0.031 A 
BRANCH  25  26
ATOM     26  N   UNL     1      -0.351   4.795   3.040  0.00  0.00    -0.330 N 
ATOM     27  C   UNL     1       0.673   5.229   4.024  0.00  0.00    +0.105 C 
ATOM     28  C   UNL     1       2.010   4.916   3.305  0.00  0.00    +0.020 C 
ATOM     29  C   UNL     1       1.704   3.592   2.568  0.00  0.00    +0.020 C 
ATOM     30  C   UNL     1       0.171   3.549   2.437  0.00  0.00    +0.105 C 
ENDBRANCH  25  26
ENDBRANCH  19  20
ENDBRANCH  17  19
ENDBRANCH   1  17
TORSDOF 5
