REMARK  Name = ZINC09621180
REMARK  15 active torsions:
REMARK  status: ('A' for Active; 'I' for Inactive)
REMARK    1  A    between atoms: C_1  and  C_2
REMARK    2  A    between atoms: C_2  and  C_4
REMARK    3  A    between atoms: C_2  and  S_17
REMARK    4  A    between atoms: C_4  and  C_6
REMARK    5  A    between atoms: C_7  and  N_16
REMARK    6  A    between atoms: N_8  and  C_15
REMARK    7  A    between atoms: N_11  and  C_14
REMARK    8  A    between atoms: S_17  and  C_18
REMARK    9  A    between atoms: N_28  and  C_29
REMARK   10  A    between atoms: C_29  and  C_30
REMARK   11  A    between atoms: C_30  and  C_31
REMARK   12  A    between atoms: C_31  and  O_32
REMARK   13  A    between atoms: O_32  and  C_33
REMARK   14  A    between atoms: C_33  and  C_34
REMARK   15  A    between atoms: C_33  and  C_35
REMARK                            x       y       z     vdW  Elec       q    Type
REMARK                         _______ _______ _______ _____ _____    ______ ____
ROOT
ATOM      1  S   UNL     1       0.882  -0.647   1.471  0.00  0.00    -0.076 S 
ENDROOT
BRANCH   1   2
ATOM      2  C   UNL     1       2.546  -0.116   1.237  0.00  0.00    +0.173 A 
ATOM      3  N   UNL     1       2.839   0.560   0.154  0.00  0.00    -0.223 NA
ATOM      4  C   UNL     1       4.091   0.997  -0.089  0.00  0.00    +0.079 A 
ATOM      5  C   UNL     1       4.403   1.720  -1.245  0.00  0.00    +0.028 A 
ATOM      6  C   UNL     1       5.686   2.143  -1.451  0.00  0.00    +0.002 A 
ATOM      7  C   UNL     1       6.687   1.867  -0.529  0.00  0.00    +0.001 A 
ATOM      8  C   UNL     1       6.412   1.163   0.611  0.00  0.00    +0.015 A 
ATOM      9  C   UNL     1       5.112   0.719   0.847  0.00  0.00    +0.065 A 
ATOM     10  C   UNL     1       4.759  -0.042   2.054  0.00  0.00    +0.262 A 
ATOM     11  O   UNL     1       5.594  -0.312   2.897  0.00  0.00    -0.267 OA
ATOM     12  N   UNL     1       3.468  -0.424   2.195  0.00  0.00    -0.287 N 
BRANCH  12  13
ATOM     13  C   UNL     1       3.060  -1.179   3.382  0.00  0.00    +0.129 C 
BRANCH  13  14
ATOM     14  C   UNL     1       3.215  -2.678   3.112  0.00  0.00    +0.050 C 
BRANCH  14  15
ATOM     15  C   UNL     1       2.788  -3.466   4.352  0.00  0.00    +0.162 C 
BRANCH  15  16
ATOM     16  O   UNL     1       2.933  -4.865   4.100  0.00  0.00    -0.377 OA
BRANCH  16  17
ATOM     17  C   UNL     1       2.559  -5.696   5.201  0.00  0.00    +0.112 C 
ATOM     18  C   UNL     1       1.072  -6.043   5.096  0.00  0.00    +0.037 C 
ATOM     19  C   UNL     1       3.386  -6.983   5.173  0.00  0.00    +0.037 C 
ENDBRANCH  16  17
ENDBRANCH  15  16
ENDBRANCH  14  15
ENDBRANCH  13  14
ENDBRANCH  12  13
ENDBRANCH   1   2
BRANCH   1  21
ATOM     20  C   UNL     1       0.023   1.490  -0.004  0.00  0.00    +0.028 C 
ATOM     21  C   UNL     1       0.016  -0.040  -0.003  0.00  0.00    +0.122 C 
BRANCH  21  22
ATOM     22  C   UNL     1      -1.407  -0.535   0.011  0.00  0.00    +0.185 C 
ATOM     23  O   UNL     1      -1.941  -0.821   1.064  0.00  0.00    -0.291 OA
BRANCH  22  24
ATOM     24  C   UNL     1      -2.120  -0.668  -1.200  0.00  0.00    +0.121 A 
ATOM     25  C   UNL     1      -3.402  -1.244  -1.227  0.00  0.00    +0.116 A 
ATOM     26  N   UNL     1      -4.053  -1.351  -2.423  0.00  0.00    -0.284 N 
ATOM     27  C   UNL     1      -3.492  -0.918  -3.563  0.00  0.00    +0.333 A 
ATOM     28  O   UNL     1      -4.112  -1.036  -4.602  0.00  0.00    -0.246 OA
ATOM     29  N   UNL     1      -2.271  -0.360  -3.599  0.00  0.00    -0.263 N 
ATOM     30  C   UNL     1      -1.549  -0.204  -2.470  0.00  0.00    +0.269 A 
ATOM     31  O   UNL     1      -0.444   0.307  -2.505  0.00  0.00    -0.267 OA
ATOM     32  C   UNL     1      -1.719   0.090  -4.879  0.00  0.00    +0.157 C 
ATOM     33  C   UNL     1      -5.389  -1.949  -2.463  0.00  0.00    +0.155 C 
BRANCH  25  34
ATOM     34  N   UNL     1      -3.985  -1.688  -0.081  0.00  0.00    -0.344 N 
ATOM     35  H   UNL     1      -3.550  -1.541   0.773  0.00  0.00    +0.144 HD
ATOM     36  H   UNL     1      -4.836  -2.153  -0.118  0.00  0.00    +0.144 HD
ENDBRANCH  25  34
ENDBRANCH  22  24
ENDBRANCH  21  22
ENDBRANCH   1  21
TORSDOF 10
