REMARK  Name = ZINC27496556
REMARK  6 active torsions:
REMARK  status: ('A' for Active; 'I' for Inactive)
REMARK    1  A    between atoms: C_6  and  C_7
REMARK    2  A    between atoms: C_7  and  C_8
REMARK    3  A    between atoms: C_12  and  N_17
REMARK    4  A    between atoms: C_18  and  C_19
REMARK    5  A    between atoms: N_22  and  N_23
REMARK    6  A    between atoms: N_23  and  C_24
REMARK                            x       y       z     vdW  Elec       q    Type
REMARK                         _______ _______ _______ _____ _____    ______ ____
ROOT
ATOM      1  N   UNL     1      -2.710  -3.110  -6.746  0.00  0.00    -0.255 NA
ATOM      2  C   UNL     1      -3.830  -3.335  -7.377  0.00  0.00    +0.123 C 
ENDROOT
BRANCH   1   7
ATOM      3  C   UNL     1      -1.731  -0.955  -1.443  0.00  0.00    +0.201 A 
ATOM      4  N   UNL     1      -1.413  -2.004  -2.140  0.00  0.00    -0.213 NA
ATOM      5  C   UNL     1      -1.989  -1.905  -3.369  0.00  0.00    +0.112 A 
ATOM      6  C   UNL     1      -1.991  -2.719  -4.500  0.00  0.00    +0.059 A 
ATOM      7  C   UNL     1      -2.701  -2.319  -5.629  0.00  0.00    +0.066 A 
ATOM      8  C   UNL     1      -3.405  -1.109  -5.623  0.00  0.00    +0.031 A 
ATOM      9  C   UNL     1      -3.403  -0.311  -4.514  0.00  0.00    +0.050 A 
ATOM     10  C   UNL     1      -2.701  -0.695  -3.380  0.00  0.00    +0.155 A 
ATOM     11  O   UNL     1      -2.518  -0.139  -2.161  0.00  0.00    -0.439 OA
BRANCH   3  12
ATOM     12  C   UNL     1      -1.286  -0.695  -0.027  0.00  0.00    +0.131 C 
BRANCH  12  18
ATOM     13  C   UNL     1      -0.002   1.453  -0.045  0.00  0.00    +0.005 A 
ATOM     14  C   UNL     1       1.188   2.156  -0.058  0.00  0.00    +0.020 A 
ATOM     15  C   UNL     1       2.393   1.476  -0.066  0.00  0.00    +0.041 A 
ATOM     16  C   UNL     1       2.406   0.093  -0.061  0.00  0.00    +0.020 A 
ATOM     17  C   UNL     1       1.215  -0.609  -0.049  0.00  0.00    +0.005 A 
ATOM     18  C   UNL     1       0.012   0.071  -0.041  0.00  0.00    -0.038 A 
ATOM     19 CL   UNL     1       3.888   2.359  -0.083  0.00  0.00    -0.084 Cl
ENDBRANCH  12  18
ENDBRANCH   3  12
ENDBRANCH   1   7
BRANCH   2  20
ATOM     20  C   UNL     1      -3.839  -4.183  -8.575  0.00  0.00    +0.042 C 
ATOM     21  C   UNL     1      -5.022  -4.424  -9.257  0.00  0.00    +0.042 C 
ATOM     22  C   UNL     1      -5.010  -5.241 -10.404  0.00  0.00    +0.083 C 
ATOM     23  N   UNL     1      -6.147  -5.473 -11.060  0.00  0.00    -0.183 NA
ATOM     24  C   UNL     1      -3.804  -5.817 -10.868  0.00  0.00    +0.033 C 
ATOM     25  C   UNL     1      -2.634  -5.599 -10.223  0.00  0.00    +0.053 C 
ATOM     26  C   UNL     1      -2.596  -4.784  -9.073  0.00  0.00    +0.188 C 
ATOM     27  O   UNL     1      -1.539  -4.583  -8.494  0.00  0.00    -0.287 OA
BRANCH  23  28
ATOM     28  N   UNL     1      -6.128  -6.130 -12.170  0.00  0.00    -0.237 N 
ATOM     29  H   UNL     1      -5.298  -6.518 -12.491  0.00  0.00    +0.174 HD
BRANCH  28  30
ATOM     30  C   UNL     1      -7.299  -6.281 -12.910  0.00  0.00    +0.048 A 
ATOM     31  C   UNL     1      -8.488  -5.721 -12.455  0.00  0.00    +0.026 A 
ATOM     32  C   UNL     1      -9.646  -5.873 -13.190  0.00  0.00    +0.022 A 
ATOM     33  C   UNL     1      -9.625  -6.583 -14.379  0.00  0.00    +0.041 A 
ATOM     34  C   UNL     1      -8.444  -7.142 -14.834  0.00  0.00    +0.022 A 
ATOM     35  C   UNL     1      -7.280  -6.989 -14.107  0.00  0.00    +0.026 A 
ATOM     36 CL   UNL     1     -11.085  -6.772 -15.300  0.00  0.00    -0.084 Cl
ENDBRANCH  28  30
ENDBRANCH  23  28
ENDBRANCH   2  20
TORSDOF 6
