REMARK  Name = ZINC34929105
REMARK  11 active torsions:
REMARK  status: ('A' for Active; 'I' for Inactive)
REMARK    1  A    between atoms: C_1  and  C_2
REMARK    2  A    between atoms: C_2  and  C_4
REMARK    3  A    between atoms: C_2  and  N_16
REMARK    4  A    between atoms: C_4  and  C_5
REMARK    5  A    between atoms: C_5  and  C_6
REMARK    6  A    between atoms: C_6  and  N_7
REMARK    7  A    between atoms: N_7  and  C_8
REMARK    8  A    between atoms: C_8  and  C_9
REMARK    9  A    between atoms: N_16  and  C_17
REMARK   10  A    between atoms: C_19  and  O_27
REMARK   11  A    between atoms: O_27  and  C_28
REMARK                            x       y       z     vdW  Elec       q    Type
REMARK                         _______ _______ _______ _____ _____    ______ ____
ROOT
ATOM      1  C   UNL     1      -0.019   1.526   0.010  0.00  0.00    +0.028 C 
ATOM      2  C   UNL     1       0.002  -0.004   0.002  0.00  0.00    +0.067 C 
ENDROOT
BRANCH   2   3
ATOM      3  N   UNL     1       0.711  -0.489   1.189  0.00  0.00    -0.340 N 
ATOM      4  H   UNL     1       0.213  -0.731   1.986  0.00  0.00    +0.146 HD
BRANCH   3   5
ATOM      5  C   UNL     1       2.100  -0.604   1.173  0.00  0.00    +0.057 A 
ATOM      6  C   UNL     1       2.809  -0.256   0.046  0.00  0.00    +0.070 A 
ATOM      7  C   UNL     1       4.201  -0.365   0.015  0.00  0.00    +0.123 A 
ATOM      8  C   UNL     1       4.895  -0.824   1.113  0.00  0.00    +0.055 A 
ATOM      9  C   UNL     1       4.198  -1.185   2.276  0.00  0.00    +0.006 A 
ATOM     10  C   UNL     1       2.786  -1.071   2.316  0.00  0.00    +0.092 A 
ATOM     11  N   UNL     1       2.123  -1.410   3.425  0.00  0.00    -0.253 NA
ATOM     12  C   UNL     1       2.751  -1.845   4.490  0.00  0.00    +0.111 A 
ATOM     13  C   UNL     1       4.138  -1.975   4.521  0.00  0.00    +0.020 A 
ATOM     14  C   UNL     1       4.876  -1.658   3.417  0.00  0.00    +0.011 A 
BRANCH   7  15
ATOM     15  O   UNL     1       4.878  -0.017  -1.110  0.00  0.00    -0.495 OA
ATOM     16  C   UNL     1       6.301  -0.151  -1.079  0.00  0.00    +0.277 C 
ENDBRANCH   7  15
ENDBRANCH   3   5
ENDBRANCH   2   3
BRANCH   2  17
ATOM     17  C   UNL     1      -1.433  -0.534   0.013  0.00  0.00    +0.020 C 
BRANCH  17  18
ATOM     18  C   UNL     1      -1.416  -2.058  -0.121  0.00  0.00    -0.017 C 
BRANCH  18  19
ATOM     19  C   UNL     1      -2.851  -2.587  -0.110  0.00  0.00    -0.082 C 
BRANCH  19  20
ATOM     20  N   UNL     1      -2.834  -4.051  -0.239  0.00  0.00    +0.382 N 
ATOM     21  H   UNL     1      -2.388  -4.307  -1.107  0.00  0.00    -0.085 HD
ATOM     22  H   UNL     1      -2.322  -4.450   0.533  0.00  0.00    -0.085 HD
BRANCH  20  23
ATOM     23  C   UNL     1      -4.212  -4.559  -0.229  0.00  0.00    -0.047 C 
BRANCH  23  24
ATOM     24  C   UNL     1      -4.195  -6.060  -0.361  0.00  0.00    -0.064 A 
ATOM     25  C   UNL     1      -4.229  -6.644  -1.613  0.00  0.00    +0.003 A 
ATOM     26  C   UNL     1      -4.213  -8.021  -1.735  0.00  0.00    +0.020 A 
ATOM     27  C   UNL     1      -4.163  -8.814  -0.603  0.00  0.00    +0.041 A 
ATOM     28  C   UNL     1      -4.129  -8.229   0.650  0.00  0.00    +0.020 A 
ATOM     29  C   UNL     1      -4.139  -6.853   0.771  0.00  0.00    +0.003 A 
ATOM     30 CL   UNL     1      -4.144 -10.544  -0.755  0.00  0.00    -0.084 Cl
ENDBRANCH  23  24
ENDBRANCH  20  23
ENDBRANCH  19  20
ENDBRANCH  18  19
ENDBRANCH  17  18
ENDBRANCH   2  17
TORSDOF 9
