REMARK  Name = ZINC39879736
REMARK  5 active torsions:
REMARK  status: ('A' for Active; 'I' for Inactive)
REMARK    1  A    between atoms: C_1  and  C_2
REMARK    2  A    between atoms: N_15  and  C_25
REMARK    3  A    between atoms: C_16  and  C_18
REMARK    4  A    between atoms: C_28  and  C_31
REMARK    5  A    between atoms: C_31  and  C_33
REMARK                            x       y       z     vdW  Elec       q    Type
REMARK                         _______ _______ _______ _____ _____    ______ ____
ROOT
ATOM      1  C   UNL     1      -0.018   1.503   0.010  0.00  0.00    +0.044 C 
ATOM      2  C   UNL     1       0.002  -0.004   0.002  0.00  0.00    -0.050 A 
ATOM      3  C   UNL     1       0.006  -0.689  -1.205  0.00  0.00    +0.007 A 
ATOM      4  C   UNL     1       0.021  -2.065  -1.235  0.00  0.00    +0.047 A 
ATOM      5  C   UNL     1       0.035  -2.790  -0.043  0.00  0.00    +0.139 A 
ATOM      6  C   UNL     1       0.037  -2.086   1.172  0.00  0.00    +0.065 A 
ATOM      7  C   UNL     1       0.023  -0.692   1.183  0.00  0.00    +0.018 A 
ATOM      8  C   UNL     1       0.068  -2.849   2.446  0.00  0.00    +0.199 A 
ATOM      9  O   UNL     1      -0.097  -2.332   3.537  0.00  0.00    -0.287 OA
ATOM     10  C   UNL     1       0.314  -4.283   2.265  0.00  0.00    +0.072 A 
ATOM     11  C   UNL     1       0.294  -4.850   1.022  0.00  0.00    +0.199 A 
ATOM     12  O   UNL     1       0.043  -4.142  -0.096  0.00  0.00    -0.450 OA
ATOM     13  C   UNL     1       0.583  -6.287   1.166  0.00  0.00    +0.287 C 
ATOM     14  O   UNL     1       0.643  -7.080   0.247  0.00  0.00    -0.266 OA
ATOM     15  N   UNL     1       0.770  -6.596   2.465  0.00  0.00    -0.253 N 
ATOM     16  C   UNL     1       0.614  -5.362   3.253  0.00  0.00    +0.150 C 
ENDROOT
BRANCH  16  17
ATOM     17  C   UNL     1       1.891  -5.051   3.991  0.00  0.00    -0.021 A 
ATOM     18  C   UNL     1       3.113  -5.280   3.385  0.00  0.00    +0.006 A 
ATOM     19  C   UNL     1       4.284  -4.995   4.060  0.00  0.00    +0.002 A 
ATOM     20  C   UNL     1       4.236  -4.481   5.343  0.00  0.00    +0.020 A 
ATOM     21  C   UNL     1       3.014  -4.252   5.950  0.00  0.00    +0.041 A 
ATOM     22  C   UNL     1       1.841  -4.532   5.270  0.00  0.00    +0.025 A 
ATOM     23 CL   UNL     1       2.952  -3.607   7.560  0.00  0.00    -0.084 Cl
ENDBRANCH  16  17
BRANCH  15  24
ATOM     24  C   UNL     1       1.060  -7.859   2.972  0.00  0.00    +0.038 A 
ATOM     25  C   UNL     1       1.224  -8.035   4.344  0.00  0.00    +0.024 A 
ATOM     26  C   UNL     1       1.509  -9.273   4.846  0.00  0.00    +0.013 A 
ATOM     27  C   UNL     1       1.636 -10.366   3.979  0.00  0.00    +0.017 A 
ATOM     28  C   UNL     1       1.471 -10.184   2.600  0.00  0.00    +0.013 A 
ATOM     29  C   UNL     1       1.180  -8.943   2.107  0.00  0.00    +0.024 A 
BRANCH  27  30
ATOM     30  C   UNL     1       1.943 -11.699   4.514  0.00  0.00    +0.160 C 
ATOM     31  O   UNL     1       2.086 -11.855   5.708  0.00  0.00    -0.292 OA
ATOM     32  C   UNL     1       2.079 -12.873   3.579  0.00  0.00    +0.091 C 
ENDBRANCH  27  30
ENDBRANCH  15  24
TORSDOF 3
