REMARK  Name = ZINC40055969
REMARK  7 active torsions:
REMARK  status: ('A' for Active; 'I' for Inactive)
REMARK    1  A    between atoms: C_1  and  C_2
REMARK    2  A    between atoms: C_6  and  N_8
REMARK    3  A    between atoms: C_9  and  C_26
REMARK    4  A    between atoms: C_17  and  C_24
REMARK    5  A    between atoms: C_29  and  O_34
REMARK    6  A    between atoms: C_30  and  O_32
REMARK    7  A    between atoms: O_32  and  C_33
REMARK                            x       y       z     vdW  Elec       q    Type
REMARK                         _______ _______ _______ _____ _____    ______ ____
ROOT
ATOM      1  N   UNL     1       0.051  -2.637   2.416  0.00  0.00    -0.238 N 
ATOM      2  C   UNL     1      -0.062  -1.996   3.736  0.00  0.00    +0.151 C 
ATOM      3  C   UNL     1       0.009  -3.105   4.734  0.00  0.00    +0.072 A 
ATOM      4  C   UNL     1      -0.038  -3.091   6.200  0.00  0.00    +0.199 A 
ATOM      5  O   UNL     1      -0.327  -2.101   6.848  0.00  0.00    -0.287 OA
ATOM      6  C   UNL     1       0.299  -4.398   6.818  0.00  0.00    +0.066 A 
ATOM      7  C   UNL     1       0.493  -4.498   8.196  0.00  0.00    +0.035 A 
ATOM      8  C   UNL     1       0.810  -5.718   8.752  0.00  0.00    +0.045 A 
ATOM      9  C   UNL     1       0.936  -6.840   7.943  0.00  0.00    -0.029 A 
ATOM     10  C   UNL     1       0.745  -6.753   6.582  0.00  0.00    +0.051 A 
ATOM     11  C   UNL     1       0.421  -5.530   5.996  0.00  0.00    +0.140 A 
ATOM     12  O   UNL     1       0.229  -5.475   4.658  0.00  0.00    -0.450 OA
ATOM     13  C   UNL     1       0.144  -4.277   4.045  0.00  0.00    +0.199 A 
ATOM     14  C   UNL     1       0.165  -3.967   2.606  0.00  0.00    +0.288 C 
ATOM     15  O   UNL     1       0.272  -4.790   1.718  0.00  0.00    -0.266 OA
ATOM     16  C   UNL     1       1.287  -8.169   8.562  0.00  0.00    +0.045 C 
ATOM     17 CL   UNL     1       1.053  -5.853  10.466  0.00  0.00    -0.083 Cl
ENDROOT
BRANCH   1  23
ATOM     18  C   UNL     1      -0.018   1.503   0.010  0.00  0.00    +0.065 C 
ATOM     19  C   UNL     1       0.002  -0.004   0.002  0.00  0.00    +0.040 A 
ATOM     20  C   UNL     1       0.006  -0.679  -1.203  0.00  0.00    +0.023 A 
ATOM     21  C   UNL     1       0.025  -2.067  -1.204  0.00  0.00    +0.005 A 
ATOM     22  C   UNL     1       0.040  -2.728   0.011  0.00  0.00    +0.044 A 
ATOM     23  C   UNL     1       0.035  -1.984   1.186  0.00  0.00    +0.129 A 
ATOM     24  N   UNL     1       0.022  -0.661   1.145  0.00  0.00    -0.237 NA
ENDBRANCH   1  23
BRANCH   2  25
ATOM     25  C   UNL     1      -1.379  -1.273   3.853  0.00  0.00    -0.018 A 
ATOM     26  C   UNL     1      -2.523  -1.833   3.316  0.00  0.00    +0.009 A 
ATOM     27  C   UNL     1      -3.733  -1.173   3.420  0.00  0.00    +0.049 A 
ATOM     28  C   UNL     1      -3.801   0.052   4.065  0.00  0.00    +0.158 A 
ATOM     29  C   UNL     1      -2.650   0.615   4.606  0.00  0.00    +0.162 A 
ATOM     30  C   UNL     1      -1.440  -0.054   4.502  0.00  0.00    +0.055 A 
BRANCH  29  31
ATOM     31  O   UNL     1      -2.711   1.817   5.239  0.00  0.00    -0.491 OA
ATOM     32  C   UNL     1      -1.490   2.334   5.770  0.00  0.00    +0.277 C 
ENDBRANCH  29  31
BRANCH  28  33
ATOM     33  O   UNL     1      -4.991   0.702   4.168  0.00  0.00    -0.503 OA
ATOM     34  H   UNL     1      -5.494   0.479   4.963  0.00  0.00    +0.292 HD
ENDBRANCH  28  33
ENDBRANCH   2  25
TORSDOF 4
