REMARK  Name = ZINC03345049
REMARK  10 active torsions:
REMARK  status: ('A' for Active; 'I' for Inactive)
REMARK    1  A    between atoms: C_1  and  O_2
REMARK    2  A    between atoms: O_2  and  C_3
REMARK    3  A    between atoms: C_6  and  C_11
REMARK    4  A    between atoms: C_8  and  O_9
REMARK    5  A    between atoms: O_9  and  C_10
REMARK    6  A    between atoms: C_12  and  C_13
REMARK    7  A    between atoms: N_15  and  C_16
REMARK    8  A    between atoms: C_16  and  C_17
REMARK    9  A    between atoms: C_17  and  C_19
REMARK   10  A    between atoms: C_17  and  C_26
REMARK                            x       y       z     vdW  Elec       q    Type
REMARK                         _______ _______ _______ _____ _____    ______ ____
ROOT
ATOM      1  C   UNL     1       3.676   3.969  -0.012  0.00  0.00    +0.069 C 
ENDROOT
BRANCH   1   2
ATOM      2  C   UNL     1       2.186   4.197   0.004  0.00  0.00    -0.013 A 
ATOM      3  C   UNL     1       1.560   5.385   0.016  0.00  0.00    +0.088 A 
ATOM      4  N   UNL     1       0.205   5.198   0.028  0.00  0.00    -0.360 N 
ATOM      5  H   UNL     1      -0.455   5.909   0.038  0.00  0.00    +0.165 HD
ATOM      6  C   UNL     1      -0.082   3.852   0.024  0.00  0.00    +0.047 A 
ATOM      7  C   UNL     1       1.147   3.166   0.008  0.00  0.00    +0.003 A 
ATOM      8  C   UNL     1       1.165   1.770   0.000  0.00  0.00    +0.010 A 
ATOM      9  C   UNL     1      -0.013   1.076   0.008  0.00  0.00    +0.001 A 
ATOM     10  C   UNL     1      -1.227   1.748   0.017  0.00  0.00    +0.002 A 
ATOM     11  C   UNL     1      -1.268   3.125   0.031  0.00  0.00    +0.026 A 
ENDBRANCH   1   2
BRANCH   1  12
ATOM     12  C   UNL     1       4.268   4.602  -1.245  0.00  0.00    -0.020 A 
ATOM     13  C   UNL     1       4.136   5.962  -1.455  0.00  0.00    +0.006 A 
ATOM     14  C   UNL     1       4.679   6.543  -2.586  0.00  0.00    +0.000 A 
ATOM     15  C   UNL     1       5.354   5.764  -3.507  0.00  0.00    +0.001 A 
ATOM     16  C   UNL     1       5.487   4.404  -3.298  0.00  0.00    +0.020 A 
ATOM     17  C   UNL     1       4.948   3.823  -2.164  0.00  0.00    +0.045 A 
ATOM     18 CL   UNL     1       5.120   2.117  -1.897  0.00  0.00    -0.083 Cl
ENDBRANCH   1  12
BRANCH   1  19
ATOM     19  C   UNL     1       4.301   4.598   1.234  0.00  0.00    +0.117 C 
BRANCH  19  22
ATOM     20  C   UNL     1       6.490   4.725   2.297  0.00  0.00    +0.237 C 
ATOM     21  O   UNL     1       5.991   5.401   3.178  0.00  0.00    -0.271 OA
ATOM     22  N   UNL     1       5.729   4.274   1.280  0.00  0.00    -0.311 N 
ATOM     23  H   UNL     1       6.127   3.735   0.579  0.00  0.00    +0.149 HD
BRANCH  20  25
ATOM     24  C   UNL     1       8.678   4.853   3.362  0.00  0.00    +0.013 C 
ATOM     25  C   UNL     1       7.916   4.402   2.343  0.00  0.00    +0.068 C 
BRANCH  24  29
ATOM     26  C   UNL     1      12.815   3.912   3.489  0.00  0.00    +0.162 A 
ATOM     27  C   UNL     1      12.030   3.448   2.442  0.00  0.00    +0.050 A 
ATOM     28  C   UNL     1      10.687   3.751   2.397  0.00  0.00    +0.012 A 
ATOM     29  C   UNL     1      10.111   4.529   3.408  0.00  0.00    -0.021 A 
ATOM     30  C   UNL     1      10.904   5.001   4.460  0.00  0.00    +0.057 A 
ATOM     31  C   UNL     1      12.248   4.688   4.500  0.00  0.00    +0.162 A 
BRANCH  26  33
ATOM     32  C   UNL     1      14.654   2.812   2.461  0.00  0.00    +0.277 C 
ATOM     33  O   UNL     1      14.139   3.610   3.529  0.00  0.00    -0.491 OA
ENDBRANCH  26  33
BRANCH  31  34
ATOM     34  O   UNL     1      13.021   5.140   5.524  0.00  0.00    -0.491 OA
ATOM     35  C   UNL     1      12.375   5.929   6.525  0.00  0.00    +0.277 C 
ENDBRANCH  31  34
ENDBRANCH  24  29
ENDBRANCH  20  25
ENDBRANCH  19  22
ENDBRANCH   1  19
TORSDOF 8
