REMARK  Name = ZINC50043678
REMARK  4 active torsions:
REMARK  status: ('A' for Active; 'I' for Inactive)
REMARK    1  A    between atoms: C_1  and  C_2
REMARK    2  A    between atoms: C_7  and  C_9
REMARK    3  A    between atoms: C_7  and  C_10
REMARK    4  A    between atoms: C_12  and  C_18
REMARK                            x       y       z     vdW  Elec       q    Type
REMARK                         _______ _______ _______ _____ _____    ______ ____
ROOT
ATOM      1  C   UNL     1      -0.194   1.401   0.189  0.00  0.00    +0.039 C 
ATOM      2  C   UNL     1      -0.060  -0.122   0.127  0.00  0.00    +0.133 C 
ATOM      3  C   UNL     1       0.612  -0.523  -1.191  0.00  0.00    +0.138 C 
ATOM      4  N   UNL     1       0.898  -1.966  -1.145  0.00  0.00    -0.310 N 
ATOM      5  C   UNL     1       1.604  -2.494   0.033  0.00  0.00    +0.141 C 
ATOM      6  C   UNL     1       0.883  -1.996   1.291  0.00  0.00    +0.080 C 
ATOM      7  O   UNL     1       0.739  -0.576   1.222  0.00  0.00    -0.368 OA
ATOM      8  C   UNL     1       1.703  -2.367   2.529  0.00  0.00    +0.043 C 
ATOM      9  C   UNL     1      -0.499  -2.646   1.379  0.00  0.00    +0.043 C 
ATOM     10  C   UNL     1       0.513  -2.805  -2.185  0.00  0.00    +0.126 A 
ATOM     11  C   UNL     1       1.389  -3.041  -3.240  0.00  0.00    +0.008 A 
ATOM     12  C   UNL     1       0.993  -3.878  -4.268  0.00  0.00    +0.025 A 
ATOM     13  C   UNL     1      -0.270  -4.453  -4.206  0.00  0.00    +0.036 A 
ATOM     14  C   UNL     1      -1.087  -4.175  -3.128  0.00  0.00    +0.128 A 
ATOM     15  N   UNL     1      -0.681  -3.376  -2.159  0.00  0.00    -0.239 NA
ATOM     16 BR   UNL     1      -0.864  -5.605  -5.583  0.00  0.00    -0.049 Br
ENDROOT
BRANCH  11  17
ATOM     17  C   UNL     1       2.749  -2.393  -3.263  0.00  0.00    +0.147 C 
ATOM     18 CL   UNL     1       3.965  -3.525  -2.562  0.00  0.00    -0.120 Cl
ENDBRANCH  11  17
TORSDOF 1
