REMARK  Name = ZINC35450165
REMARK  9 active torsions:
REMARK  status: ('A' for Active; 'I' for Inactive)
REMARK    1  A    between atoms: C_1  and  C_2
REMARK    2  A    between atoms: C_2  and  C_3
REMARK    3  A    between atoms: C_3  and  C_5
REMARK    4  A    between atoms: C_3  and  S_6
REMARK    5  A    between atoms: S_6  and  C_7
REMARK    6  A    between atoms: C_17  and  C_19
REMARK    7  A    between atoms: C_24  and  N_25
REMARK    8  A    between atoms: C_31  and  C_33
REMARK    9  A    between atoms: C_31  and  C_34
REMARK                            x       y       z     vdW  Elec       q    Type
REMARK                         _______ _______ _______ _____ _____    ______ ____
ROOT
ATOM      1  C   UNL     1      -4.833   0.120   1.302  0.00  0.00    +0.172 A 
ATOM      2  N   UNL     1      -5.201  -0.461   0.179  0.00  0.00    -0.185 NA
ATOM      3  C   UNL     1      -6.361  -1.128   0.094  0.00  0.00    +0.280 A 
ATOM      4  O   UNL     1      -6.689  -1.661  -0.957  0.00  0.00    -0.265 OA
ATOM      5  C   UNL     1      -7.203  -1.212   1.224  0.00  0.00    +0.069 A 
ATOM      6  C   UNL     1      -6.814  -0.604   2.378  0.00  0.00    +0.111 A 
ATOM      7  N   UNL     1      -5.617   0.061   2.415  0.00  0.00    -0.322 N 
ATOM      8  N   UNL     1      -7.617  -0.660   3.493  0.00  0.00    -0.304 N 
ATOM      9  C   UNL     1      -8.945  -0.969   3.383  0.00  0.00    +0.017 C 
ATOM     10  C   UNL     1      -9.417  -1.593   2.282  0.00  0.00    +0.024 C 
ATOM     11  C   UNL     1      -8.498  -1.965   1.147  0.00  0.00    +0.095 C 
ATOM     12  C   UNL     1     -10.779  -1.919   2.163  0.00  0.00    +0.162 C 
ATOM     13  O   UNL     1     -11.176  -2.463   1.152  0.00  0.00    -0.292 OA
ATOM     14  C   UNL     1     -11.756  -1.608   3.265  0.00  0.00    +0.086 C 
ATOM     15  C   UNL     1     -11.012  -1.604   4.604  0.00  0.00    -0.023 C 
ATOM     16  C   UNL     1      -9.865  -0.594   4.519  0.00  0.00    +0.058 C 
ATOM     17  C   UNL     1     -10.448  -2.999   4.884  0.00  0.00    +0.011 C 
ATOM     18  C   UNL     1     -11.972  -1.199   5.725  0.00  0.00    +0.011 C 
ATOM     19  H   UNL     1      -7.237  -0.478   4.367  0.00  0.00    +0.153 HD
ATOM     20  H   UNL     1      -5.328   0.492   3.235  0.00  0.00    +0.169 HD
ENDROOT
BRANCH  11  21
ATOM     21  C   UNL     1      -8.214  -3.443   1.208  0.00  0.00    -0.005 A 
ATOM     22  C   UNL     1      -7.726  -4.007   2.373  0.00  0.00    +0.007 A 
ATOM     23  C   UNL     1      -7.466  -5.363   2.428  0.00  0.00    +0.000 A 
ATOM     24  C   UNL     1      -7.692  -6.156   1.319  0.00  0.00    +0.002 A 
ATOM     25  C   UNL     1      -8.180  -5.593   0.154  0.00  0.00    +0.033 A 
ATOM     26  C   UNL     1      -8.445  -4.238   0.100  0.00  0.00    +0.130 A 
BRANCH  26  27
ATOM     27  N   UNL     1      -8.972  -3.636  -1.145  0.00  0.00    +0.057 N 
ATOM     28  O   UNL     1      -9.515  -4.332  -1.971  0.00  0.00    -0.126 OA
ATOM     29  O   UNL     1      -8.860  -2.447  -1.337  0.00  0.00    -0.126 OA
ENDBRANCH  26  27
ENDBRANCH  11  21
BRANCH   1  30
ATOM     30  S   UNL     1      -3.299   0.984   1.369  0.00  0.00    -0.085 S 
BRANCH  30  31
ATOM     31  C   UNL     1      -2.620   0.801  -0.303  0.00  0.00    +0.051 C 
ATOM     32  C   UNL     1      -2.315  -0.674  -0.571  0.00  0.00    +0.019 C 
BRANCH  31  34
ATOM     33  C   UNL     1      -1.655   3.106  -0.277  0.00  0.00    +0.005 C 
ATOM     34  C   UNL     1      -1.331   1.618  -0.422  0.00  0.00    +0.011 C 
ENDBRANCH  31  34
ENDBRANCH  30  31
ENDBRANCH   1  30
TORSDOF 5
