REMARK  Name = ZINC36152593
REMARK  5 active torsions:
REMARK  status: ('A' for Active; 'I' for Inactive)
REMARK    1  A    between atoms: C_1  and  C_2
REMARK    2  A    between atoms: C_2  and  C_3
REMARK    3  A    between atoms: N_16  and  C_19
REMARK    4  A    between atoms: C_19  and  C_20
REMARK    5  A    between atoms: C_25  and  C_26
REMARK                            x       y       z     vdW  Elec       q    Type
REMARK                         _______ _______ _______ _____ _____    ______ ____
ROOT
ATOM      1  C   UNL     1      -1.461  -0.508  -0.128  0.00  0.00    +0.217 C 
ATOM      2  O   UNL     1      -2.390   0.270  -0.080  0.00  0.00    -0.276 OA
ATOM      3  N   UNL     1      -1.693  -1.835  -0.150  0.00  0.00    -0.274 N 
ATOM      4  C   UNL     1      -0.607  -2.816  -0.202  0.00  0.00    +0.120 C 
ATOM      5  C   UNL     1      -1.010  -4.130   0.533  0.00  0.00    +0.091 C 
ATOM      6  S   UNL     1      -2.786  -4.199   0.013  0.00  0.00    -0.120 S 
ATOM      7  C   UNL     1      -3.046  -2.388  -0.118  0.00  0.00    +0.188 C 
ATOM      8  C   UNL     1      -3.844  -2.056  -1.342  0.00  0.00    +0.017 A 
ATOM      9  C   UNL     1      -3.647  -2.250  -2.691  0.00  0.00    +0.009 A 
ATOM     10  C   UNL     1      -4.595  -1.818  -3.600  0.00  0.00    +0.000 A 
ATOM     11  C   UNL     1      -5.743  -1.189  -3.151  0.00  0.00    +0.002 A 
ATOM     12  C   UNL     1      -5.946  -0.992  -1.801  0.00  0.00    +0.024 A 
ATOM     13  C   UNL     1      -4.995  -1.423  -0.878  0.00  0.00    +0.043 A 
ATOM     14  N   UNL     1      -4.972  -1.337   0.516  0.00  0.00    -0.264 N 
ATOM     15  C   UNL     1      -3.855  -1.883   1.040  0.00  0.00    +0.259 C 
ATOM     16  O   UNL     1      -3.564  -1.951   2.215  0.00  0.00    -0.272 OA
ENDROOT
BRANCH   1  18
ATOM     17  C   UNL     1      -0.061   1.539  -0.129  0.00  0.00    +0.013 C 
ATOM     18  C   UNL     1      -0.046   0.009  -0.164  0.00  0.00    +0.093 C 
ENDBRANCH   1  18
BRANCH  14  19
ATOM     19  C   UNL     1      -6.036  -0.725   1.315  0.00  0.00    +0.149 C 
BRANCH  19  20
ATOM     20  C   UNL     1      -7.112  -1.746   1.585  0.00  0.00    -0.027 A 
ATOM     21  C   UNL     1      -6.930  -3.061   1.199  0.00  0.00    +0.005 A 
ATOM     22  C   UNL     1      -7.917  -3.996   1.446  0.00  0.00    +0.000 A 
ATOM     23  C   UNL     1      -9.086  -3.617   2.079  0.00  0.00    +0.000 A 
ATOM     24  C   UNL     1      -9.268  -2.303   2.465  0.00  0.00    +0.003 A 
ATOM     25  C   UNL     1      -8.279  -1.368   2.222  0.00  0.00    -0.046 A 
ATOM     26  C   UNL     1      -8.475   0.065   2.648  0.00  0.00    +0.044 C 
ENDBRANCH  19  20
ENDBRANCH  14  19
TORSDOF 3
