REMARK  Name = ZINC35431683
REMARK  5 active torsions:
REMARK  status: ('A' for Active; 'I' for Inactive)
REMARK    1  A    between atoms: C_1  and  C_2
REMARK    2  A    between atoms: C_9  and  S_28
REMARK    3  A    between atoms: N_12  and  C_15
REMARK    4  A    between atoms: C_15  and  C_16
REMARK    5  A    between atoms: S_28  and  N_31
REMARK                            x       y       z     vdW  Elec       q    Type
REMARK                         _______ _______ _______ _____ _____    ______ ____
ROOT
ATOM      1  C   UNL     1      -0.036   1.549   0.031  0.00  0.00    +0.018 C 
ATOM      2  C   UNL     1       0.012   0.020   0.005  0.00  0.00    +0.083 C 
ATOM      3  C   UNL     1      -1.418  -0.536   0.116  0.00  0.00    +0.087 C 
ATOM      4  S   UNL     1      -1.910  -0.430   1.869  0.00  0.00    -0.123 S 
ATOM      5  C   UNL     1      -1.285   1.142   2.369  0.00  0.00    +0.029 A 
ATOM      6  C   UNL     1      -2.146   2.203   2.600  0.00  0.00    +0.018 A 
ATOM      7  C   UNL     1      -1.634   3.427   2.992  0.00  0.00    +0.030 A 
ATOM      8  C   UNL     1      -0.270   3.592   3.154  0.00  0.00    +0.107 A 
ATOM      9  C   UNL     1       0.594   2.536   2.924  0.00  0.00    +0.053 A 
ATOM     10  C   UNL     1       0.089   1.308   2.530  0.00  0.00    +0.052 A 
ATOM     11  N   UNL     1       0.947   0.225   2.288  0.00  0.00    -0.261 N 
ATOM     12  C   UNL     1       0.850  -0.469   1.149  0.00  0.00    +0.224 C 
ATOM     13  O   UNL     1       1.459  -1.512   1.038  0.00  0.00    -0.275 OA
ENDROOT
BRANCH   8  14
ATOM     14  S   UNL     1       0.370   5.155   3.654  0.00  0.00    +0.061 S 
ATOM     15  O   UNL     1       1.718   5.204   3.206  0.00  0.00    -0.153 OA
ATOM     16  O   UNL     1      -0.594   6.128   3.277  0.00  0.00    -0.153 OA
BRANCH  14  17
ATOM     17  N   UNL     1       0.421   5.156   5.309  0.00  0.00    -0.172 NA
ATOM     18  C   UNL     1      -0.729   5.619   6.102  0.00  0.00    +0.137 C 
ATOM     19  C   UNL     1      -1.052   4.552   7.154  0.00  0.00    +0.177 C 
ATOM     20  O   UNL     1       0.137   4.236   7.884  0.00  0.00    -0.377 OA
ATOM     21  C   UNL     1       1.181   3.672   7.087  0.00  0.00    +0.177 C 
ATOM     22  C   UNL     1       1.615   4.689   6.031  0.00  0.00    +0.137 C 
ENDBRANCH  14  17
ENDBRANCH   8  14
BRANCH  11  23
ATOM     23  C   UNL     1       1.950  -0.149   3.288  0.00  0.00    +0.209 C 
BRANCH  23  24
ATOM     24  C   UNL     1       1.359  -1.155   4.241  0.00  0.00    +0.238 C 
ATOM     25  O   UNL     1       0.244  -1.592   4.047  0.00  0.00    -0.274 OA
ATOM     26  N   UNL     1       2.068  -1.570   5.309  0.00  0.00    -0.270 N 
ATOM     27  C   UNL     1       3.384  -0.985   5.605  0.00  0.00    +0.114 C 
ATOM     28  C   UNL     1       4.339  -2.133   5.955  0.00  0.00    +0.024 C 
ATOM     29  C   UNL     1       3.838  -2.825   7.222  0.00  0.00    +0.038 C 
ATOM     30  C   UNL     1       2.384  -3.191   7.083  0.00  0.00    -0.026 A 
ATOM     31  C   UNL     1       1.562  -2.562   6.159  0.00  0.00    +0.039 A 
ATOM     32  C   UNL     1       0.222  -2.917   6.063  0.00  0.00    +0.024 A 
ATOM     33  C   UNL     1      -0.296  -3.894   6.890  0.00  0.00    +0.002 A 
ATOM     34  C   UNL     1       0.521  -4.520   7.813  0.00  0.00    +0.000 A 
ATOM     35  C   UNL     1       1.860  -4.176   7.904  0.00  0.00    +0.005 A 
ENDBRANCH  23  24
ENDBRANCH  11  23
TORSDOF 4
