REMARK  Name = ZINC33785313
REMARK  8 active torsions:
REMARK  status: ('A' for Active; 'I' for Inactive)
REMARK    1  A    between atoms: C_1  and  C_2
REMARK    2  A    between atoms: C_5  and  N_8
REMARK    3  A    between atoms: C_9  and  C_34
REMARK    4  A    between atoms: C_17  and  C_23
REMARK    5  A    between atoms: N_25  and  C_26
REMARK    6  A    between atoms: C_30  and  S_32
REMARK    7  A    between atoms: S_32  and  C_33
REMARK    8  A    between atoms: N_36  and  C_37
REMARK                            x       y       z     vdW  Elec       q    Type
REMARK                         _______ _______ _______ _____ _____    ______ ____
ROOT
ATOM      1  N   UNL     1      -1.436  -0.590   0.045  0.00  0.00    -0.283 N 
ATOM      2  C   UNL     1      -2.009  -1.445  -1.042  0.00  0.00    +0.199 C 
ATOM      3  C   UNL     1      -3.466  -1.110  -0.963  0.00  0.00    +0.127 C 
ATOM      4  C   UNL     1      -3.778   0.287  -1.469  0.00  0.00    +0.009 C 
ATOM      5  C   UNL     1      -5.089   0.430  -1.345  0.00  0.00    +0.004 C 
ATOM      6  C   UNL     1      -5.572  -0.874  -0.698  0.00  0.00    +0.155 C 
ATOM      7  O   UNL     1      -4.617  -1.858  -1.278  0.00  0.00    -0.358 OA
ATOM      8  C   UNL     1      -5.038  -0.729   0.780  0.00  0.00    +0.123 C 
ATOM      9  C   UNL     1      -3.591  -1.115   0.614  0.00  0.00    +0.128 C 
ATOM     10  C   UNL     1      -2.408  -0.314   0.976  0.00  0.00    +0.224 C 
ATOM     11  O   UNL     1      -2.312   0.446   1.917  0.00  0.00    -0.275 OA
ENDROOT
BRANCH   1  16
ATOM     12  C   UNL     1       3.526   1.862   1.524  0.00  0.00    +0.007 C 
ATOM     13  C   UNL     1       2.078   1.374   1.458  0.00  0.00    -0.014 C 
ATOM     14  C   UNL     1       1.423   1.895   0.176  0.00  0.00    +0.005 C 
ATOM     15  C   UNL     1      -0.025   1.407   0.109  0.00  0.00    +0.023 C 
ATOM     16  C   UNL     1      -0.049  -0.123   0.109  0.00  0.00    +0.077 C 
ATOM     17  C   UNL     1       0.606  -0.643   1.390  0.00  0.00    +0.023 C 
ATOM     18  C   UNL     1       2.054  -0.156   1.457  0.00  0.00    +0.005 C 
ENDBRANCH   1  16
BRANCH   8  19
ATOM     19  C   UNL     1      -5.167   0.692   1.264  0.00  0.00    +0.224 C 
ATOM     20  O   UNL     1      -4.336   1.517   0.951  0.00  0.00    -0.275 OA
ATOM     21  N   UNL     1      -6.207   1.046   2.046  0.00  0.00    -0.285 N 
ATOM     22  H   UNL     1      -6.919   0.283   2.393  0.00  0.00    +0.155 HD
BRANCH  21  23
ATOM     23  C   UNL     1      -6.380   2.385   2.415  0.00  0.00    +0.034 A 
ATOM     24  C   UNL     1      -7.660   2.912   2.539  0.00  0.00    +0.023 A 
ATOM     25  C   UNL     1      -7.833   4.233   2.903  0.00  0.00    +0.003 A 
ATOM     26  C   UNL     1      -6.735   5.035   3.147  0.00  0.00    +0.015 A 
ATOM     27  C   UNL     1      -5.452   4.514   3.025  0.00  0.00    +0.009 A 
ATOM     28  C   UNL     1      -5.275   3.185   2.664  0.00  0.00    +0.038 A 
BRANCH  27  29
ATOM     29  S   UNL     1      -4.051   5.537   3.335  0.00  0.00    -0.129 S 
ATOM     30  C   UNL     1      -4.770   7.145   3.770  0.00  0.00    +0.090 C 
ENDBRANCH  27  29
ENDBRANCH  21  23
ENDBRANCH   8  19
BRANCH   2  31
ATOM     31  C   UNL     1      -1.776  -2.906  -0.757  0.00  0.00    +0.237 C 
ATOM     32  O   UNL     1      -1.506  -3.269   0.369  0.00  0.00    -0.274 OA
ATOM     33  N   UNL     1      -1.868  -3.810  -1.752  0.00  0.00    -0.311 N 
ATOM     34  H   UNL     1      -2.113  -3.481  -2.773  0.00  0.00    +0.149 HD
BRANCH  33  35
ATOM     35  C   UNL     1      -1.642  -5.231  -1.475  0.00  0.00    +0.073 C 
ATOM     36  C   UNL     1      -0.143  -5.530  -1.539  0.00  0.00    +0.022 C 
ATOM     37  C   UNL     1       0.094  -7.014  -1.250  0.00  0.00    +0.002 C 
ATOM     38  C   UNL     1      -0.640  -7.860  -2.292  0.00  0.00    +0.000 C 
ATOM     39  C   UNL     1      -2.139  -7.560  -2.227  0.00  0.00    +0.002 C 
ATOM     40  C   UNL     1      -2.376  -6.077  -2.517  0.00  0.00    +0.022 C 
ENDBRANCH  33  35
ENDBRANCH   2  31
TORSDOF 6
