REMARK  Name = ZINC20764652
REMARK  8 active torsions:
REMARK  status: ('A' for Active; 'I' for Inactive)
REMARK    1  A    between atoms: C_1  and  C_2
REMARK    2  A    between atoms: C_2  and  O_3
REMARK    3  A    between atoms: O_3  and  C_4
REMARK    4  A    between atoms: C_8  and  C_11
REMARK    5  A    between atoms: C_9  and  O_10
REMARK    6  A    between atoms: C_14  and  C_27
REMARK    7  A    between atoms: C_16  and  C_19
REMARK    8  A    between atoms: C_30  and  C_33
REMARK                            x       y       z     vdW  Elec       q    Type
REMARK                         _______ _______ _______ _____ _____    ______ ____
ROOT
ATOM      1  C   UNL     1      -4.946   0.857  -0.361  0.00  0.00    -0.028 C 
ATOM      2  C   UNL     1      -3.790   1.783   0.030  0.00  0.00    +0.044 C 
ATOM      3  C   UNL     1      -2.502   1.009   0.019  0.00  0.00    +0.040 C 
ATOM      4  N   UNL     1      -2.455  -0.270   0.007  0.00  0.00    -0.299 NA
ATOM      5  C   UNL     1      -3.630  -1.132   0.002  0.00  0.00    +0.081 C 
ATOM      6  N   UNL     1      -4.823  -0.386   0.420  0.00  0.00    +0.401 N 
ATOM      7  H   UNL     1      -4.738  -0.141   1.489  0.00  0.00    -0.081 HD
ATOM      8  H   UNL     1      -5.714  -1.011   0.257  0.00  0.00    -0.081 HD
ENDROOT
BRANCH   5   9
ATOM      9  C   UNL     1      -3.842  -1.667  -1.391  0.00  0.00    -0.039 A 
ATOM     10  C   UNL     1      -2.761  -1.839  -2.236  0.00  0.00    +0.006 A 
ATOM     11  C   UNL     1      -2.954  -2.329  -3.514  0.00  0.00    +0.040 A 
ATOM     12  C   UNL     1      -4.229  -2.648  -3.948  0.00  0.00    +0.137 A 
ATOM     13  C   UNL     1      -5.311  -2.474  -3.101  0.00  0.00    +0.053 A 
ATOM     14  C   UNL     1      -5.115  -1.989  -1.821  0.00  0.00    +0.022 A 
ATOM     15 BR   UNL     1      -7.055  -2.909  -3.691  0.00  0.00    -0.047 Br
ATOM     16  F   UNL     1      -4.419  -3.127  -5.197  0.00  0.00    -0.204 F 
ENDBRANCH   5   9
BRANCH   3  17
ATOM     17  C   UNL     1      -1.230   1.759   0.017  0.00  0.00    -0.004 A 
ATOM     18  C   UNL     1      -0.013   1.076   0.008  0.00  0.00    +0.010 A 
ATOM     19  C   UNL     1       1.172   1.783   0.000  0.00  0.00    +0.004 A 
ATOM     20  C   UNL     1       1.155   3.167   0.008  0.00  0.00    -0.050 A 
ATOM     21  C   UNL     1      -0.048   3.850   0.022  0.00  0.00    +0.004 A 
ATOM     22  C   UNL     1      -1.240   3.155   0.030  0.00  0.00    +0.010 A 
ATOM     23  C   UNL     1       2.452   3.933  -0.001  0.00  0.00    +0.044 C 
ENDBRANCH   3  17
BRANCH   1  28
ATOM     24  C   UNL     1      -8.042   3.011  -0.678  0.00  0.00    +0.162 A 
ATOM     25  C   UNL     1      -8.678   2.751   0.525  0.00  0.00    +0.049 A 
ATOM     26  C   UNL     1      -8.107   1.881   1.435  0.00  0.00    +0.004 A 
ATOM     27  C   UNL     1      -6.903   1.266   1.145  0.00  0.00    +0.006 A 
ATOM     28  C   UNL     1      -6.261   1.525  -0.051  0.00  0.00    -0.016 A 
ATOM     29  C   UNL     1      -6.828   2.396  -0.967  0.00  0.00    +0.160 A 
BRANCH  29  30
ATOM     30  O   UNL     1      -6.200   2.649  -2.147  0.00  0.00    -0.503 OA
ATOM     31  H   UNL     1      -5.240   2.162  -2.374  0.00  0.00    +0.292 HD
ENDBRANCH  29  30
BRANCH  24  32
ATOM     32  O   UNL     1      -8.603   3.866  -1.575  0.00  0.00    -0.489 OA
BRANCH  32  34
ATOM     33  C   UNL     1     -10.322   5.385  -2.335  0.00  0.00    +0.048 C 
ATOM     34  C   UNL     1      -9.851   4.461  -1.210  0.00  0.00    +0.226 C 
ENDBRANCH  32  34
ENDBRANCH  24  32
ENDBRANCH   1  28
TORSDOF 6
