REMARK  Name = ZINC03838607
REMARK  6 active torsions:
REMARK  status: ('A' for Active; 'I' for Inactive)
REMARK    1  A    between atoms: C_4  and  C_9
REMARK    2  A    between atoms: C_5  and  C_7
REMARK    3  A    between atoms: C_24  and  C_25
REMARK    4  A    between atoms: C_24  and  N_53
REMARK    5  A    between atoms: C_28  and  C_30
REMARK    6  A    between atoms: C_30  and  O_31
REMARK                            x       y       z     vdW  Elec       q    Type
REMARK                         _______ _______ _______ _____ _____    ______ ____
ROOT
ATOM      1  C   UNL     1      -0.943   4.072   2.480  0.00  0.00    +0.003 A 
ATOM      2  C   UNL     1      -1.194   5.459   2.429  0.00  0.00    +0.015 A 
ATOM      3  C   UNL     1      -1.163   6.086   1.221  0.00  0.00    +0.071 A 
ATOM      4  C   UNL     1      -0.858   5.347   0.069  0.00  0.00    +0.252 A 
ATOM      5  O   UNL     1      -0.872   5.900  -1.018  0.00  0.00    -0.268 OA
ATOM      6  N   UNL     1      -0.548   4.029   0.142  0.00  0.00    -0.311 N 
ATOM      7  C   UNL     1      -0.652   3.378   1.321  0.00  0.00    +0.031 A 
ATOM      8  C   UNL     1      -0.492   1.879   1.429  0.00  0.00    +0.020 C 
ATOM      9  C   UNL     1       0.417   1.386   0.297  0.00  0.00    +0.011 C 
ATOM     10  C   UNL     1      -0.187   1.871  -1.024  0.00  0.00    -0.007 C 
ATOM     11  C   UNL     1      -0.097   3.386  -1.093  0.00  0.00    +0.126 C 
ATOM     12  C   UNL     1      -1.618   1.381  -1.178  0.00  0.00    -0.073 C 
ATOM     13  C   UNL     1      -1.882   1.252   1.230  0.00  0.00    -0.069 C 
ATOM     14  N   UNL     1      -2.440   1.806  -0.024  0.00  0.00    +0.385 N 
ATOM     15  H   UNL     1      -2.430   2.832   0.032  0.00  0.00    -0.081 HD
ENDROOT
BRANCH   1  19
ATOM     16  C   UNL     1      -1.081   2.018   6.210  0.00  0.00    +0.001 A 
ATOM     17  C   UNL     1       0.138   2.331   5.630  0.00  0.00    +0.001 A 
ATOM     18  C   UNL     1       0.188   2.991   4.420  0.00  0.00    +0.010 A 
ATOM     19  C   UNL     1      -0.992   3.358   3.777  0.00  0.00    +0.001 A 
ATOM     20  C   UNL     1      -2.230   3.042   4.365  0.00  0.00    +0.060 A 
ATOM     21  C   UNL     1      -2.260   2.368   5.587  0.00  0.00    +0.019 A 
BRANCH  20  22
ATOM     22  C   UNL     1      -3.452   3.408   3.713  0.00  0.00    +0.100 C 
ATOM     23  N   UNL     1      -4.421   3.699   3.197  0.00  0.00    -0.191 NA
ENDBRANCH  20  22
ENDBRANCH   1  19
BRANCH  14  24
ATOM     24  C   UNL     1      -3.834   1.349  -0.201  0.00  0.00    -0.003 C 
BRANCH  24  25
ATOM     25  C   UNL     1      -4.489   2.195  -1.263  0.00  0.00    +0.089 A 
ATOM     26  C   UNL     1      -4.605   1.873  -2.564  0.00  0.00    +0.043 A 
ATOM     27  C   UNL     1      -5.283   2.943  -3.192  0.00  0.00    +0.047 A 
ATOM     28  C   UNL     1      -5.533   3.858  -2.238  0.00  0.00    +0.130 A 
ATOM     29  O   UNL     1      -5.050   3.400  -1.072  0.00  0.00    -0.464 OA
BRANCH  28  30
ATOM     30  C   UNL     1      -6.237   5.175  -2.443  0.00  0.00    +0.230 C 
BRANCH  30  31
ATOM     31  O   UNL     1      -7.642   5.000  -2.251  0.00  0.00    -0.387 OA
ATOM     32  H   UNL     1      -8.159   5.808  -2.367  0.00  0.00    +0.210 HD
ENDBRANCH  30  31
ENDBRANCH  28  30
ENDBRANCH  24  25
ENDBRANCH  14  24
TORSDOF 6
