REMARK  Name = ZINC02129798
REMARK  7 active torsions:
REMARK  status: ('A' for Active; 'I' for Inactive)
REMARK    1  A    between atoms: C_1  and  C_2
REMARK    2  A    between atoms: C_17  and  C_19
REMARK    3  A    between atoms: C_19  and  C_20
REMARK    4  A    between atoms: C_20  and  C_21
REMARK    5  A    between atoms: N_25  and  C_28
REMARK    6  A    between atoms: C_28  and  C_30
REMARK    7  A    between atoms: C_28  and  C_31
REMARK                            x       y       z     vdW  Elec       q    Type
REMARK                         _______ _______ _______ _____ _____    ______ ____
ROOT
ATOM      1  C   UNL     1       4.874   9.335   6.939  0.00  0.00    +0.044 C 
ATOM      2  C   UNL     1       5.225   8.827   5.564  0.00  0.00    -0.049 A 
ATOM      3  C   UNL     1       4.229   8.628   4.623  0.00  0.00    +0.008 A 
ATOM      4  C   UNL     1       4.550   8.164   3.368  0.00  0.00    -0.026 A 
ATOM      5  C   UNL     1       5.872   7.889   3.029  0.00  0.00    +0.054 A 
ATOM      6  C   UNL     1       6.868   8.092   3.982  0.00  0.00    +0.063 A 
ATOM      7  C   UNL     1       6.542   8.559   5.239  0.00  0.00    +0.025 A 
ATOM      8 CL   UNL     1       8.525   7.757   3.586  0.00  0.00    -0.082 Cl
ATOM      9  N   UNL     1       5.948   7.433   1.711  0.00  0.00    -0.285 N 
ATOM     10  C   UNL     1       4.738   7.380   1.121  0.00  0.00    +0.211 C 
ATOM     11  O   UNL     1       4.500   7.025  -0.014  0.00  0.00    -0.277 OA
ATOM     12  C   UNL     1       3.738   7.847   2.143  0.00  0.00    +0.050 C 
ATOM     13  C   UNL     1       2.684   6.772   2.429  0.00  0.00    +0.088 C 
ATOM     14  C   UNL     1       1.458   7.185   1.567  0.00  0.00    +0.073 C 
ATOM     15  C   UNL     1       1.908   8.462   0.827  0.00  0.00    -0.057 C 
ATOM     16  C   UNL     1       1.334   6.053   0.573  0.00  0.00    +0.225 C 
ATOM     17  O   UNL     1       0.492   5.973  -0.296  0.00  0.00    -0.275 OA
ATOM     18  N   UNL     1       2.299   5.154   0.799  0.00  0.00    -0.235 N 
ATOM     19  C   UNL     1       3.111   5.456   1.819  0.00  0.00    +0.226 C 
ATOM     20  O   UNL     1       4.044   4.780   2.195  0.00  0.00    -0.275 OA
ATOM     21  H   UNL     1       6.775   7.183   1.271  0.00  0.00    +0.155 HD
ATOM     22  N   UNL     1       2.988   8.994   1.662  0.00  0.00    +0.394 N 
ATOM     23  H   UNL     1       3.595   9.609   1.107  0.00  0.00    -0.083 HD
ATOM     24  H   UNL     1       2.598   9.521   2.452  0.00  0.00    -0.083 HD
ENDROOT
BRANCH  18  25
ATOM     25  C   UNL     1       2.451   3.937  -0.001  0.00  0.00    +0.111 C 
ATOM     26  C   UNL     1       2.693   4.314  -1.464  0.00  0.00    +0.033 C 
BRANCH  25  27
ATOM     27  C   UNL     1       1.197   3.107   0.103  0.00  0.00    -0.027 A 
ATOM     28  C   UNL     1       0.725   2.426  -1.003  0.00  0.00    +0.005 A 
ATOM     29  C   UNL     1      -0.425   1.665  -0.907  0.00  0.00    +0.000 A 
ATOM     30  C   UNL     1      -1.107   1.591   0.293  0.00  0.00    +0.000 A 
ATOM     31  C   UNL     1      -0.632   2.268   1.401  0.00  0.00    +0.000 A 
ATOM     32  C   UNL     1       0.518   3.028   1.305  0.00  0.00    +0.005 A 
ENDBRANCH  25  27
ENDBRANCH  18  25
BRANCH  15  33
ATOM     33  C   UNL     1       0.746   9.451   0.716  0.00  0.00    -0.004 C 
BRANCH  33  34
ATOM     34  C   UNL     1       1.177  10.653  -0.128  0.00  0.00    +0.123 C 
BRANCH  34  35
ATOM     35  C   UNL     1       0.033  11.627  -0.237  0.00  0.00    +0.356 C 
ATOM     36  O   UNL     1      -1.020  11.385   0.305  0.00  0.00    -0.246 OA
ATOM     37  O   UNL     1       0.183  12.763  -0.935  0.00  0.00    -0.246 OA
ENDBRANCH  34  35
ENDBRANCH  33  34
ENDBRANCH  15  33
TORSDOF 5
