REMARK  Name = ZINC13500088
REMARK  12 active torsions:
REMARK  status: ('A' for Active; 'I' for Inactive)
REMARK    1  A    between atoms: C_1  and  C_2
REMARK    2  A    between atoms: C_2  and  C_3
REMARK    3  A    between atoms: C_3  and  C_4
REMARK    4  A    between atoms: C_4  and  C_6
REMARK    5  A    between atoms: C_4  and  N_72
REMARK    6  A    between atoms: N_10  and  C_11
REMARK    7  A    between atoms: C_11  and  C_12
REMARK    8  A    between atoms: C_17  and  C_18
REMARK    9  A    between atoms: C_17  and  N_72
REMARK   10  A    between atoms: C_22  and  C_31
REMARK   11  A    between atoms: C_24  and  C_30
REMARK   12  A    between atoms: C_32  and  N_72
REMARK                            x       y       z     vdW  Elec       q    Type
REMARK                         _______ _______ _______ _____ _____    ______ ____
ROOT
ATOM      1  N   UNL     1      -3.202   1.043  -1.343  0.00  0.00    +0.391 N 
ATOM      2  H   UNL     1      -2.400   0.811  -1.941  0.00  0.00    -0.080 HD
ENDROOT
BRANCH   1   3
ATOM      3  C   UNL     1      -3.802   2.308  -1.815  0.00  0.00    -0.067 C 
ATOM      4  C   UNL     1      -5.105   2.596  -1.067  0.00  0.00    -0.015 C 
ATOM      5  C   UNL     1      -5.707   3.907  -1.575  0.00  0.00    -0.002 C 
ATOM      6  C   UNL     1      -5.995   3.789  -3.073  0.00  0.00    -0.000 C 
ATOM      7  C   UNL     1      -4.692   3.502  -3.822  0.00  0.00    -0.002 C 
ATOM      8  C   UNL     1      -4.090   2.190  -3.313  0.00  0.00    -0.015 C 
ENDBRANCH   1   3
BRANCH   1   9
ATOM      9  C   UNL     1      -4.195  -0.049  -1.427  0.00  0.00    +0.003 C 
BRANCH   9  10
ATOM     10  C   UNL     1      -5.161   0.028  -0.273  0.00  0.00    +0.139 A 
ATOM     11  N   UNL     1      -4.856   0.141   0.997  0.00  0.00    -0.115 NA
ATOM     12  N   UNL     1      -5.955   0.177   1.669  0.00  0.00    -0.023 NA
ATOM     13  N   UNL     1      -6.953   0.080   0.861  0.00  0.00    -0.044 NA
ATOM     14  N   UNL     1      -6.504  -0.014  -0.345  0.00  0.00    -0.223 N 
BRANCH  14  15
ATOM     15  C   UNL     1      -7.306  -0.141  -1.564  0.00  0.00    +0.221 C 
BRANCH  15  16
ATOM     16  C   UNL     1      -7.545  -1.600  -1.858  0.00  0.00    +0.126 A 
ATOM     17  C   UNL     1      -8.579  -2.334  -1.410  0.00  0.00    +0.046 A 
ATOM     18  C   UNL     1      -8.409  -3.639  -1.926  0.00  0.00    +0.041 A 
ATOM     19  C   UNL     1      -7.277  -3.627  -2.652  0.00  0.00    +0.195 A 
ATOM     20  O   UNL     1      -6.757  -2.389  -2.607  0.00  0.00    -0.466 OA
ENDBRANCH  15  16
ENDBRANCH  14  15
ENDBRANCH   9  10
BRANCH   9  21
ATOM     21  C   UNL     1      -3.455  -1.388  -1.385  0.00  0.00    -0.008 C 
BRANCH  21  23
ATOM     22  C   UNL     1      -1.931  -2.911  -2.649  0.00  0.00    +0.004 C 
ATOM     23  C   UNL     1      -2.575  -1.524  -2.629  0.00  0.00    -0.005 C 
ENDBRANCH  21  23
ENDBRANCH   9  21
ENDBRANCH   1   9
BRANCH   1  24
ATOM     24  C   UNL     1      -2.733   1.194   0.050  0.00  0.00    -0.036 C 
BRANCH  24  25
ATOM     25  C   UNL     1      -1.479   2.029   0.051  0.00  0.00    +0.001 A 
ATOM     26  C   UNL     1      -1.520   3.310   0.494  0.00  0.00    +0.017 A 
ATOM     27  C   UNL     1      -0.285   4.096   0.475  0.00  0.00    -0.001 A 
ATOM     28  C   UNL     1      -0.266   5.425   0.913  0.00  0.00    +0.013 A 
ATOM     29  C   UNL     1       0.902   6.132   0.882  0.00  0.00    -0.050 A 
ATOM     30  C   UNL     1       2.072   5.543   0.421  0.00  0.00    +0.008 A 
ATOM     31  C   UNL     1       2.077   4.236  -0.014  0.00  0.00    -0.026 A 
ATOM     32  C   UNL     1       0.899   3.496   0.007  0.00  0.00    +0.052 A 
ATOM     33  N   UNL     1       0.875   2.187  -0.424  0.00  0.00    -0.322 N 
ATOM     34  H   UNL     1       1.692   1.775  -0.747  0.00  0.00    +0.169 HD
ATOM     35  C   UNL     1      -0.264   1.473  -0.403  0.00  0.00    +0.251 A 
ATOM     36  O   UNL     1      -0.248   0.318  -0.792  0.00  0.00    -0.268 OA
ATOM     37  C   UNL     1       3.354   3.609  -0.512  0.00  0.00    +0.046 C 
ATOM     38  C   UNL     1       0.922   7.563   1.353  0.00  0.00    +0.044 C 
ENDBRANCH  24  25
ENDBRANCH   1  24
TORSDOF 9
