REMARK  Name = ZINC02106961
REMARK  14 active torsions:
REMARK  status: ('A' for Active; 'I' for Inactive)
REMARK    1  A    between atoms: C_1  and  C_2
REMARK    2  A    between atoms: C_2  and  C_3
REMARK    3  A    between atoms: C_3  and  C_4
REMARK    4  A    between atoms: C_4  and  N_5
REMARK    5  A    between atoms: N_5  and  C_6
REMARK    6  A    between atoms: N_5  and  C_10
REMARK    7  A    between atoms: C_6  and  C_7
REMARK    8  A    between atoms: C_7  and  C_8
REMARK    9  A    between atoms: C_8  and  C_9
REMARK   10  A    between atoms: C_10  and  C_11
REMARK   11  A    between atoms: C_11  and  C_12
REMARK   12  A    between atoms: C_12  and  N_13
REMARK   13  A    between atoms: C_33  and  C_34
REMARK   14  A    between atoms: C_33  and  C_35
REMARK                            x       y       z     vdW  Elec       q    Type
REMARK                         _______ _______ _______ _____ _____    ______ ____
ROOT
ATOM      1  N   UNL     1       3.311  -5.357   5.493  0.00  0.00    -0.291 N 
ATOM      2  C   UNL     1       4.764  -5.378   5.503  0.00  0.00    +0.203 C 
ATOM      3  C   UNL     1       5.306  -6.243   6.595  0.00  0.00    +0.234 C 
ATOM      4  O   UNL     1       6.510  -6.353   6.684  0.00  0.00    -0.274 OA
ATOM      5  N   UNL     1       4.553  -6.902   7.478  0.00  0.00    -0.278 N 
ATOM      6  C   UNL     1       3.096  -6.787   7.530  0.00  0.00    +0.167 C 
ATOM      7  C   UNL     1       2.555  -5.979   6.395  0.00  0.00    +0.237 C 
ATOM      8  O   UNL     1       1.351  -5.889   6.286  0.00  0.00    -0.274 OA
ATOM      9  C   UNL     1       2.689  -6.137   8.860  0.00  0.00    +0.069 C 
ATOM     10  C   UNL     1       3.462  -6.791   9.977  0.00  0.00    -0.015 A 
ATOM     11  C   UNL     1       3.177  -6.773  11.397  0.00  0.00    +0.003 A 
ATOM     12  C   UNL     1       2.159  -6.183  12.153  0.00  0.00    +0.010 A 
ATOM     13  C   UNL     1       2.202  -6.378  13.511  0.00  0.00    +0.001 A 
ATOM     14  C   UNL     1       3.202  -7.122  14.117  0.00  0.00    +0.002 A 
ATOM     15  C   UNL     1       4.222  -7.715  13.394  0.00  0.00    +0.026 A 
ATOM     16  C   UNL     1       4.204  -7.535  12.012  0.00  0.00    +0.047 A 
ATOM     17  N   UNL     1       5.036  -7.970  11.021  0.00  0.00    -0.356 N 
ATOM     18  H   UNL     1       5.828  -8.513  11.156  0.00  0.00    +0.166 HD
ATOM     19  C   UNL     1       4.584  -7.524   9.808  0.00  0.00    +0.044 A 
ATOM     20  C   UNL     1       5.211  -7.792   8.458  0.00  0.00    +0.073 C 
ATOM     21  C   UNL     1       6.710  -7.489   8.512  0.00  0.00    +0.038 C 
ATOM     22  C   UNL     1       4.989  -9.254   8.064  0.00  0.00    +0.038 C 
ENDROOT
BRANCH   1  23
ATOM     23  C   UNL     1       2.640  -4.602   4.431  0.00  0.00    +0.106 C 
BRANCH  23  24
ATOM     24  C   UNL     1       2.423  -3.159   4.891  0.00  0.00    +0.000 C 
BRANCH  24  25
ATOM     25  C   UNL     1       1.722  -2.371   3.783  0.00  0.00    -0.077 C 
BRANCH  25  26
ATOM     26  N   UNL     1       1.406  -1.020   4.267  0.00  0.00    +0.380 N 
ATOM     27  H   UNL     1       0.883  -1.085   5.127  0.00  0.00    -0.082 HD
BRANCH  26  28
ATOM     28  C   UNL     1       2.654  -0.283   4.507  0.00  0.00    -0.079 C 
BRANCH  28  29
ATOM     29  C   UNL     1       2.330   1.078   5.128  0.00  0.00    -0.019 C 
BRANCH  29  31
ATOM     30  C   UNL     1       3.306   3.206   5.999  0.00  0.00    +0.004 C 
ATOM     31  C   UNL     1       3.629   1.846   5.378  0.00  0.00    -0.005 C 
ENDBRANCH  29  31
ENDBRANCH  28  29
ENDBRANCH  26  28
BRANCH  26  32
ATOM     32  C   UNL     1       0.606  -0.313   3.258  0.00  0.00    -0.079 C 
BRANCH  32  33
ATOM     33  C   UNL     1      -0.756  -0.996   3.118  0.00  0.00    -0.019 C 
BRANCH  33  34
ATOM     34  C   UNL     1      -1.567  -0.297   2.025  0.00  0.00    -0.005 C 
ATOM     35  C   UNL     1      -2.929  -0.980   1.885  0.00  0.00    +0.004 C 
ENDBRANCH  33  34
ENDBRANCH  32  33
ENDBRANCH  26  32
ENDBRANCH  25  26
ENDBRANCH  24  25
ENDBRANCH  23  24
ENDBRANCH   1  23
TORSDOF 10
