REMARK  Name = ZINC41474287
REMARK  12 active torsions:
REMARK  status: ('A' for Active; 'I' for Inactive)
REMARK    1  A    between atoms: C_1  and  C_2
REMARK    2  A    between atoms: C_4  and  N_14
REMARK    3  A    between atoms: C_7  and  O_12
REMARK    4  A    between atoms: O_12  and  C_13
REMARK    5  A    between atoms: N_14  and  C_15
REMARK    6  A    between atoms: C_15  and  C_16
REMARK    7  A    between atoms: C_16  and  C_18
REMARK    8  A    between atoms: C_16  and  N_26
REMARK    9  A    between atoms: C_21  and  O_24
REMARK   10  A    between atoms: O_24  and  C_25
REMARK   11  A    between atoms: N_26  and  C_27
REMARK   12  A    between atoms: N_26  and  C_28
REMARK                            x       y       z     vdW  Elec       q    Type
REMARK                         _______ _______ _______ _____ _____    ______ ____
ROOT
ATOM      1  N   UNL     1      -0.331  -3.360  -2.598  0.00  0.00    -0.345 N 
ATOM      2  H   UNL     1      -0.469  -4.303  -2.776  0.00  0.00    +0.146 HD
ENDROOT
BRANCH   1   6
ATOM      3  C   UNL     1       0.017   0.359   0.590  0.00  0.00    +0.063 C 
ATOM      4  C   UNL     1      -0.197  -1.105   0.302  0.00  0.00    +0.015 A 
ATOM      5  C   UNL     1      -0.164  -1.546  -1.014  0.00  0.00    +0.044 A 
ATOM      6  C   UNL     1      -0.358  -2.889  -1.293  0.00  0.00    +0.038 A 
ATOM      7  C   UNL     1      -0.586  -3.765  -0.205  0.00  0.00    +0.023 A 
ATOM      8  C   UNL     1      -0.790  -5.137  -0.405  0.00  0.00    +0.057 A 
ATOM      9  C   UNL     1      -1.007  -5.951   0.671  0.00  0.00    +0.121 A 
ATOM     10  C   UNL     1      -1.025  -5.430   1.968  0.00  0.00    +0.047 A 
ATOM     11  C   UNL     1      -0.830  -4.103   2.192  0.00  0.00    +0.030 A 
ATOM     12  C   UNL     1      -0.604  -3.236   1.108  0.00  0.00    +0.049 A 
ATOM     13  N   UNL     1      -0.404  -1.927   1.304  0.00  0.00    -0.358 N 
ATOM     14  H   UNL     1      -0.415  -1.578   2.208  0.00  0.00    +0.166 HD
BRANCH   9  15
ATOM     15  O   UNL     1      -1.206  -7.282   0.479  0.00  0.00    -0.495 OA
ATOM     16  C   UNL     1      -1.426  -8.080   1.643  0.00  0.00    +0.277 C 
ENDBRANCH   9  15
ENDBRANCH   1   6
BRANCH   1  17
ATOM     17  C   UNL     1      -0.094  -2.432  -3.707  0.00  0.00    +0.091 C 
BRANCH  17  18
ATOM     18  C   UNL     1       0.013  -3.218  -5.015  0.00  0.00    -0.021 C 
BRANCH  18  19
ATOM     19  C   UNL     1       1.233  -4.102  -4.971  0.00  0.00    -0.059 A 
ATOM     20  C   UNL     1       2.483  -3.566  -5.223  0.00  0.00    +0.005 A 
ATOM     21  C   UNL     1       3.603  -4.374  -5.184  0.00  0.00    +0.046 A 
ATOM     22  C   UNL     1       3.473  -5.724  -4.891  0.00  0.00    +0.120 A 
ATOM     23  C   UNL     1       2.218  -6.259  -4.637  0.00  0.00    +0.046 A 
ATOM     24  C   UNL     1       1.102  -5.445  -4.673  0.00  0.00    +0.005 A 
BRANCH  22  25
ATOM     25  O   UNL     1       4.573  -6.521  -4.852  0.00  0.00    -0.495 OA
ATOM     26  C   UNL     1       4.364  -7.900  -4.543  0.00  0.00    +0.277 C 
ENDBRANCH  22  25
ENDBRANCH  18  19
BRANCH  18  27
ATOM     27  N   UNL     1       0.127  -2.282  -6.141  0.00  0.00    +0.382 N 
ATOM     28  C   UNL     1       0.281  -3.036  -7.392  0.00  0.00    -0.096 C 
ATOM     29  C   UNL     1      -1.084  -1.454  -6.214  0.00  0.00    -0.096 C 
ATOM     30  H   UNL     1       0.932  -1.688  -6.005  0.00  0.00    -0.082 HD
ENDBRANCH  18  27
ENDBRANCH  17  18
ENDBRANCH   1  17
TORSDOF 7
