REMARK  Name = ZINC15307484
REMARK  5 active torsions:
REMARK  status: ('A' for Active; 'I' for Inactive)
REMARK    1  A    between atoms: C_8  and  C_10
REMARK    2  A    between atoms: N_13  and  C_16
REMARK    3  A    between atoms: N_21  and  C_24
REMARK    4  A    between atoms: C_24  and  C_25
REMARK    5  A    between atoms: C_28  and  N_31
REMARK                            x       y       z     vdW  Elec       q    Type
REMARK                         _______ _______ _______ _____ _____    ______ ____
ROOT
ATOM      1  C   UNL     1       5.713  -7.298  -0.127  0.00  0.00    +0.029 C 
ATOM      2  C   UNL     1       6.613  -7.545   1.101  0.00  0.00    +0.090 C 
ATOM      3  C   UNL     1       7.960  -7.872   0.494  0.00  0.00    +0.221 C 
ATOM      4  O   UNL     1       8.966  -8.135   1.117  0.00  0.00    -0.275 OA
ATOM      5  N   UNL     1       7.865  -7.824  -0.840  0.00  0.00    -0.239 N 
ATOM      6  C   UNL     1       6.644  -7.512  -1.301  0.00  0.00    +0.209 C 
ATOM      7  O   UNL     1       6.334  -7.415  -2.469  0.00  0.00    -0.277 OA
ENDROOT
BRANCH   1  11
ATOM      8  C   UNL     1       3.070  -3.956  -0.120  0.00  0.00    +0.041 C 
ATOM      9  C   UNL     1       3.913  -4.246  -1.364  0.00  0.00    -0.009 C 
ATOM     10  C   UNL     1       4.387  -5.700  -1.325  0.00  0.00    -0.077 C 
ATOM     11  N   UNL     1       5.197  -5.923  -0.121  0.00  0.00    +0.388 N 
ATOM     12  C   UNL     1       4.374  -5.716   1.077  0.00  0.00    -0.077 C 
ATOM     13  C   UNL     1       3.900  -4.263   1.130  0.00  0.00    -0.009 C 
ATOM     14  H   UNL     1       5.970  -5.275  -0.112  0.00  0.00    -0.081 HD
BRANCH   8  22
ATOM     15  C   UNL     1      -0.011   1.381  -0.096  0.00  0.00    +0.002 A 
ATOM     16  C   UNL     1       1.163   2.121  -0.089  0.00  0.00    +0.001 A 
ATOM     17  C   UNL     1       2.381   1.466  -0.089  0.00  0.00    +0.017 A 
ATOM     18  C   UNL     1       2.406   0.093  -0.097  0.00  0.00    +0.039 A 
ATOM     19  C   UNL     1       1.226  -0.684  -0.105  0.00  0.00    +0.078 A 
ATOM     20  C   UNL     1       0.004   0.020  -0.104  0.00  0.00    +0.029 A 
ATOM     21  N   UNL     1       1.460  -2.013  -0.112  0.00  0.00    -0.244 NA
ATOM     22  C   UNL     1       2.664  -2.505  -0.112  0.00  0.00    +0.082 A 
ATOM     23  S   UNL     1       3.668  -1.154  -0.102  0.00  0.00    -0.072 S 
ENDBRANCH   8  22
ENDBRANCH   1  11
BRANCH   5  24
ATOM     24  C   UNL     1       9.001  -8.092  -1.726  0.00  0.00    +0.151 C 
BRANCH  24  25
ATOM     25  C   UNL     1       9.045  -9.562  -2.055  0.00  0.00    -0.030 A 
ATOM     26  C   UNL     1       9.759 -10.429  -1.248  0.00  0.00    +0.007 A 
ATOM     27  C   UNL     1       9.801 -11.777  -1.547  0.00  0.00    +0.024 A 
ATOM     28  C   UNL     1       9.125 -12.261  -2.659  0.00  0.00    +0.036 A 
ATOM     29  C   UNL     1       8.408 -11.389  -3.467  0.00  0.00    +0.024 A 
ATOM     30  C   UNL     1       8.366 -10.043  -3.160  0.00  0.00    +0.007 A 
BRANCH  28  31
ATOM     31  N   UNL     1       9.166 -13.626  -2.965  0.00  0.00    -0.271 N 
ATOM     32  C   UNL     1       8.398 -14.256  -4.045  0.00  0.00    +0.114 C 
ATOM     33  C   UNL     1       9.072 -15.626  -4.285  0.00  0.00    +0.029 C 
ATOM     34  C   UNL     1       9.721 -15.903  -2.909  0.00  0.00    +0.098 C 
ATOM     35  C   UNL     1       9.918 -14.528  -2.310  0.00  0.00    +0.220 C 
ATOM     36  O   UNL     1      10.647 -14.276  -1.374  0.00  0.00    -0.275 OA
ENDBRANCH  28  31
ENDBRANCH  24  25
ENDBRANCH   5  24
TORSDOF 5
