REMARK  Name = ZINC44452678
REMARK  3 active torsions:
REMARK  status: ('A' for Active; 'I' for Inactive)
REMARK    1  A    between atoms: C_6  and  C_7
REMARK    2  A    between atoms: N_9  and  C_10
REMARK    3  A    between atoms: C_11  and  C_18
REMARK                            x       y       z     vdW  Elec       q    Type
REMARK                         _______ _______ _______ _____ _____    ______ ____
ROOT
ATOM      1  C   UNL     1      -3.626  -0.835   0.035  0.00  0.00    +0.085 A 
ATOM      2  C   UNL     1      -4.919  -0.342   0.045  0.00  0.00    +0.069 A 
ATOM      3  C   UNL     1      -6.007  -1.318   0.052  0.00  0.00    -0.023 A 
ATOM      4  C   UNL     1      -5.596  -2.599   0.049  0.00  0.00    -0.004 A 
ATOM      5  S   UNL     1      -3.824  -2.500   0.027  0.00  0.00    -0.077 S 
ATOM      6  C   UNL     1      -6.753  -3.560   0.061  0.00  0.00    +0.043 C 
ATOM      7  C   UNL     1      -7.963  -2.708   0.505  0.00  0.00    +0.010 C 
ATOM      8  C   UNL     1      -7.534  -1.296   0.060  0.00  0.00    +0.037 C 
ENDROOT
BRANCH   2   9
ATOM      9  C   UNL     1      -5.186   1.098   0.049  0.00  0.00    +0.254 C 
ATOM     10  O   UNL     1      -5.305   1.698  -1.004  0.00  0.00    -0.270 OA
ATOM     11  N   UNL     1      -5.300   1.760   1.218  0.00  0.00    -0.236 N 
ATOM     12  C   UNL     1      -5.545   3.085   1.221  0.00  0.00    +0.304 C 
ATOM     13  O   UNL     1      -5.665   3.683   0.170  0.00  0.00    -0.253 OA
ATOM     14  N   UNL     1      -5.659   3.746   2.390  0.00  0.00    -0.313 N 
ATOM     15  H   UNL     1      -5.205   1.282   2.056  0.00  0.00    +0.159 HD
ATOM     16  H   UNL     1      -5.564   3.268   3.229  0.00  0.00    +0.146 HD
ATOM     17  H   UNL     1      -5.836   4.700   2.393  0.00  0.00    +0.146 HD
ENDBRANCH   2   9
BRANCH   1  20
ATOM     18  C   UNL     1      -1.260  -0.768   0.011  0.00  0.00    +0.249 C 
ATOM     19  O   UNL     1      -1.235  -1.984   0.004  0.00  0.00    -0.270 OA
ATOM     20  N   UNL     1      -2.441  -0.118   0.026  0.00  0.00    -0.275 N 
ATOM     21  H   UNL     1      -2.461   0.852   0.032  0.00  0.00    +0.156 HD
BRANCH  18  27
ATOM     22  C   UNL     1      -0.017   1.398   0.010  0.00  0.00    +0.015 A 
ATOM     23  C   UNL     1       1.132   2.121   0.003  0.00  0.00    +0.029 A 
ATOM     24  C   UNL     1       2.390   1.479  -0.013  0.00  0.00    +0.078 A 
ATOM     25  C   UNL     1       2.388   0.063  -0.021  0.00  0.00    +0.040 A 
ATOM     26  C   UNL     1       1.232  -0.670  -0.014  0.00  0.00    +0.030 A 
ATOM     27  C   UNL     1       0.002  -0.004   0.002  0.00  0.00    +0.038 A 
ATOM     28  S   UNL     1       4.123  -0.307  -0.039  0.00  0.00    -0.075 S 
ATOM     29  C   UNL     1       4.701   1.273  -0.036  0.00  0.00    +0.157 A 
ATOM     30  N   UNL     1       3.627   2.011  -0.022  0.00  0.00    -0.247 NA
ENDBRANCH  18  27
ENDBRANCH   1  20
TORSDOF 3
