REMARK  Name = ZINC45865841
REMARK  11 active torsions:
REMARK  status: ('A' for Active; 'I' for Inactive)
REMARK    1  A    between atoms: C_1  and  C_2
REMARK    2  A    between atoms: C_2  and  C_3
REMARK    3  A    between atoms: C_3  and  C_4
REMARK    4  A    between atoms: C_7  and  C_10
REMARK    5  A    between atoms: C_10  and  C_12
REMARK    6  A    between atoms: C_10  and  N_17
REMARK    7  A    between atoms: C_18  and  C_20
REMARK    8  A    between atoms: C_20  and  N_21
REMARK    9  A    between atoms: C_24  and  C_28
REMARK   10  A    between atoms: C_24  and  C_29
REMARK   11  A    between atoms: C_32  and  C_35
REMARK                            x       y       z     vdW  Elec       q    Type
REMARK                         _______ _______ _______ _____ _____    ______ ____
ROOT
ATOM      1  N   UNL     1      -0.456  -6.794   1.032  0.00  0.00    -0.303 N 
ATOM      2  C   UNL     1       0.119  -8.008   0.921  0.00  0.00    +0.232 C 
ATOM      3  O   UNL     1      -0.109  -8.701  -0.048  0.00  0.00    -0.274 OA
ATOM      4  H   UNL     1      -0.273  -6.240   1.806  0.00  0.00    +0.150 HD
ENDROOT
BRANCH   1   5
ATOM      5  C   UNL     1      -1.355  -6.312  -0.019  0.00  0.00    +0.140 C 
BRANCH   5   9
ATOM      6  C   UNL     1      -1.413  -2.041   0.005  0.00  0.00    -0.047 A 
ATOM      7  C   UNL     1      -1.409  -2.725  -1.196  0.00  0.00    +0.004 A 
ATOM      8  C   UNL     1      -1.391  -4.107  -1.204  0.00  0.00    +0.006 A 
ATOM      9  C   UNL     1      -1.375  -4.805  -0.011  0.00  0.00    -0.022 A 
ATOM     10  C   UNL     1      -1.378  -4.120   1.190  0.00  0.00    +0.006 A 
ATOM     11  C   UNL     1      -1.392  -2.738   1.198  0.00  0.00    +0.004 A 
BRANCH   6  12
ATOM     12  C   UNL     1      -1.433  -0.534   0.013  0.00  0.00    +0.035 C 
BRANCH  12  14
ATOM     13  C   UNL     1      -0.019   1.526   0.010  0.00  0.00    +0.004 C 
ATOM     14  C   UNL     1       0.002  -0.004   0.002  0.00  0.00    +0.001 C 
ENDBRANCH  12  14
ENDBRANCH   6  12
ENDBRANCH   5   9
BRANCH   5  15
ATOM     15  C   UNL     1      -2.747  -6.833   0.233  0.00  0.00    +0.014 A 
ATOM     16  C   UNL     1      -3.656  -7.302  -0.656  0.00  0.00    +0.013 A 
ATOM     17  C   UNL     1      -4.885  -7.735  -0.193  0.00  0.00    +0.008 A 
ATOM     18  C   UNL     1      -5.144  -7.677   1.136  0.00  0.00    +0.045 A 
ATOM     19  S   UNL     1      -3.622  -7.002   1.780  0.00  0.00    -0.099 S 
ENDBRANCH   5  15
ENDBRANCH   1   5
BRANCH   2  20
ATOM     20  C   UNL     1       1.045  -8.505   2.002  0.00  0.00    +0.213 C 
BRANCH  20  21
ATOM     21  N   UNL     1       1.535  -9.840   1.650  0.00  0.00    -0.215 N 
ATOM     22  C   UNL     1       0.919 -10.988   1.995  0.00  0.00    +0.251 C 
ATOM     23  O   UNL     1      -0.106 -11.106   2.631  0.00  0.00    -0.272 OA
ATOM     24  C   UNL     1       1.775 -12.100   1.421  0.00  0.00    +0.135 C 
ATOM     25  N   UNL     1       2.877 -11.382   0.757  0.00  0.00    -0.281 N 
ATOM     26  C   UNL     1       2.646 -10.069   0.941  0.00  0.00    +0.310 C 
ATOM     27  O   UNL     1       3.369  -9.191   0.514  0.00  0.00    -0.252 OA
ATOM     28  C   UNL     1       2.312 -12.996   2.538  0.00  0.00    +0.047 C 
ATOM     29  H   UNL     1       3.621 -11.778   0.278  0.00  0.00    +0.152 HD
BRANCH  24  30
ATOM     30  C   UNL     1       0.991 -12.910   0.421  0.00  0.00    -0.015 A 
ATOM     31  C   UNL     1      -0.379 -13.038   0.557  0.00  0.00    +0.006 A 
ATOM     32  C   UNL     1      -1.098 -13.781  -0.360  0.00  0.00    +0.004 A 
ATOM     33  C   UNL     1      -0.448 -14.395  -1.415  0.00  0.00    -0.050 A 
ATOM     34  C   UNL     1       0.922 -14.265  -1.552  0.00  0.00    +0.004 A 
ATOM     35  C   UNL     1       1.640 -13.519  -0.636  0.00  0.00    +0.006 A 
ATOM     36  C   UNL     1      -1.232 -15.205  -2.414  0.00  0.00    +0.044 C 
ENDBRANCH  24  30
ENDBRANCH  20  21
ENDBRANCH   2  20
TORSDOF 8
