REMARK  Name = ZINC34945940
REMARK  10 active torsions:
REMARK  status: ('A' for Active; 'I' for Inactive)
REMARK    1  A    between atoms: C_1  and  C_2
REMARK    2  A    between atoms: C_2  and  C_3
REMARK    3  A    between atoms: C_3  and  N_4
REMARK    4  A    between atoms: N_4  and  C_5
REMARK    5  A    between atoms: C_5  and  C_6
REMARK    6  A    between atoms: C_6  and  C_7
REMARK    7  A    between atoms: N_9  and  C_10
REMARK    8  A    between atoms: N_13  and  C_16
REMARK    9  A    between atoms: C_16  and  C_17
REMARK   10  A    between atoms: N_25  and  C_26
REMARK                            x       y       z     vdW  Elec       q    Type
REMARK                         _______ _______ _______ _____ _____    ______ ____
ROOT
ATOM      1  C   UNL     1      -1.391  -2.738   1.269  0.00  0.00    +0.118 C 
ENDROOT
BRANCH   1   2
ATOM      2  N   UNL     1      -1.413  -1.998   0.005  0.00  0.00    -0.285 N 
ATOM      3  C   UNL     1      -1.415  -2.666  -1.166  0.00  0.00    +0.303 C 
ATOM      4  O   UNL     1      -1.399  -3.882  -1.173  0.00  0.00    -0.253 OA
ATOM      5  N   UNL     1      -1.436  -1.986  -2.329  0.00  0.00    -0.294 N 
ATOM      6  H   UNL     1      -1.449  -1.016  -2.324  0.00  0.00    +0.151 HD
BRANCH   5   7
ATOM      7  C   UNL     1      -1.438  -2.712  -3.602  0.00  0.00    +0.037 C 
ATOM      8  C   UNL     1      -0.178  -3.574  -3.700  0.00  0.00    +0.029 C 
ATOM      9  C   UNL     1      -0.180  -4.332  -5.029  0.00  0.00    -0.008 C 
ATOM     10  C   UNL     1      -0.204  -3.331  -6.186  0.00  0.00    +0.007 C 
ATOM     11  C   UNL     1      -1.465  -2.469  -6.089  0.00  0.00    -0.008 C 
ATOM     12  C   UNL     1      -1.462  -1.711  -4.760  0.00  0.00    +0.029 C 
ATOM     13  C   UNL     1      -2.703  -3.365  -6.163  0.00  0.00    +0.007 C 
ATOM     14  C   UNL     1      -2.678  -4.365  -5.005  0.00  0.00    -0.008 C 
ATOM     15  C   UNL     1      -1.418  -5.228  -5.103  0.00  0.00    +0.007 C 
ATOM     16  C   UNL     1      -2.676  -3.608  -3.676  0.00  0.00    +0.029 C 
ENDBRANCH   5   7
BRANCH   2  17
ATOM     17  C   UNL     1      -1.433  -0.534   0.013  0.00  0.00    +0.109 C 
BRANCH  17  19
ATOM     18  C   UNL     1      -0.019   1.526   0.010  0.00  0.00    +0.005 C 
ATOM     19  C   UNL     1       0.002  -0.004   0.002  0.00  0.00    +0.016 C 
ENDBRANCH  17  19
ENDBRANCH   2  17
ENDBRANCH   1   2
BRANCH   1  20
ATOM     20  C   UNL     1      -2.826  -3.015   1.723  0.00  0.00    +0.115 C 
BRANCH  20  21
ATOM     21  C   UNL     1      -2.803  -3.775   3.024  0.00  0.00    +0.215 C 
ATOM     22  O   UNL     1      -1.744  -4.067   3.538  0.00  0.00    -0.276 OA
ATOM     23  N   UNL     1      -3.960  -4.131   3.617  0.00  0.00    -0.313 N 
ATOM     24  H   UNL     1      -4.808  -3.898   3.206  0.00  0.00    +0.149 HD
BRANCH  23  25
ATOM     25  C   UNL     1      -3.938  -4.870   4.882  0.00  0.00    +0.069 C 
ATOM     26  C   UNL     1      -3.825  -3.885   6.049  0.00  0.00    +0.003 C 
ATOM     27  C   UNL     1      -3.882  -4.658   7.368  0.00  0.00    -0.077 C 
ATOM     28  N   UNL     1      -5.155  -5.383   7.460  0.00  0.00    +0.382 N 
ATOM     29  C   UNL     1      -5.239  -6.379   6.386  0.00  0.00    -0.077 C 
ATOM     30  C   UNL     1      -5.234  -5.673   5.028  0.00  0.00    +0.003 C 
ATOM     31  H   UNL     1      -5.920  -4.730   7.373  0.00  0.00    -0.081 HD
BRANCH  28  32
ATOM     32  C   UNL     1      -5.239  -6.059   8.761  0.00  0.00    -0.043 C 
BRANCH  32  33
ATOM     33  C   UNL     1      -6.595  -6.702   8.907  0.00  0.00    -0.064 A 
ATOM     34  C   UNL     1      -7.641  -5.990   9.464  0.00  0.00    +0.002 A 
ATOM     35  C   UNL     1      -8.884  -6.579   9.597  0.00  0.00    +0.000 A 
ATOM     36  C   UNL     1      -9.081  -7.880   9.174  0.00  0.00    +0.000 A 
ATOM     37  C   UNL     1      -8.035  -8.592   8.616  0.00  0.00    +0.000 A 
ATOM     38  C   UNL     1      -6.793  -8.001   8.479  0.00  0.00    +0.002 A 
ENDBRANCH  32  33
ENDBRANCH  28  32
ENDBRANCH  23  25
ENDBRANCH  20  21
ENDBRANCH   1  20
TORSDOF 9
