REMARK  Name = ZINC43022220
REMARK  9 active torsions:
REMARK  status: ('A' for Active; 'I' for Inactive)
REMARK    1  A    between atoms: C_1  and  C_2
REMARK    2  A    between atoms: C_2  and  C_3
REMARK    3  A    between atoms: C_3  and  C_5
REMARK    4  A    between atoms: C_3  and  N_22
REMARK    5  A    between atoms: C_5  and  C_7
REMARK    6  A    between atoms: C_5  and  N_14
REMARK    7  A    between atoms: C_15  and  C_21
REMARK    8  A    between atoms: C_16  and  C_20
REMARK    9  A    between atoms: C_17  and  C_19
REMARK                            x       y       z     vdW  Elec       q    Type
REMARK                         _______ _______ _______ _____ _____    ______ ____
ROOT
ATOM      1  C   UNL     1       0.744  -2.022  -1.137  0.00  0.00    +0.123 C 
ENDROOT
BRANCH   1   2
ATOM      2  N   UNL     1       1.396  -2.355   0.133  0.00  0.00    -0.262 N 
ATOM      3  C   UNL     1       2.511  -3.100   0.281  0.00  0.00    +0.040 A 
ATOM      4  C   UNL     1       2.787  -3.172   1.603  0.00  0.00    -0.007 A 
ATOM      5  C   UNL     1       1.806  -2.445   2.287  0.00  0.00    +0.063 A 
ATOM      6  N   UNL     1       0.976  -1.950   1.406  0.00  0.00    -0.175 NA
ATOM      7  C   UNL     1       1.725  -2.259   3.780  0.00  0.00    +0.068 C 
ATOM      8  C   UNL     1       3.945  -3.905   2.230  0.00  0.00    +0.047 C 
ATOM      9  C   UNL     1       3.307  -3.739  -0.829  0.00  0.00    +0.065 C 
ENDBRANCH   1   2
BRANCH   1  10
ATOM     10  C   UNL     1      -0.668  -2.550  -1.129  0.00  0.00    -0.024 A 
ATOM     11  C   UNL     1      -1.580  -2.069  -0.207  0.00  0.00    +0.006 A 
ATOM     12  C   UNL     1      -2.875  -2.552  -0.200  0.00  0.00    +0.001 A 
ATOM     13  C   UNL     1      -3.259  -3.516  -1.114  0.00  0.00    +0.015 A 
ATOM     14  C   UNL     1      -2.347  -3.996  -2.036  0.00  0.00    +0.018 A 
ATOM     15  C   UNL     1      -1.053  -3.509  -2.046  0.00  0.00    +0.021 A 
ATOM     16 BR   UNL     1      -2.872  -5.315  -3.286  0.00  0.00    -0.050 Br
ENDBRANCH   1  10
BRANCH   1  17
ATOM     17  C   UNL     1       0.720  -0.503  -1.315  0.00  0.00    -0.046 C 
BRANCH  17  18
ATOM     18  N   UNL     1       2.089   0.022  -1.224  0.00  0.00    +0.382 N 
ATOM     19  H   UNL     1       2.073   1.024  -1.342  0.00  0.00    -0.090 HD
ATOM     20  H   UNL     1       2.477  -0.204  -0.321  0.00  0.00    -0.090 HD
ATOM     21  H   UNL     1       2.657  -0.393  -1.948  0.00  0.00    -0.090 HD
ENDBRANCH  17  18
BRANCH  17  23
ATOM     22  C   UNL     1      -0.018   1.358  -2.810  0.00  0.00    +0.002 C 
ATOM     23  C   UNL     1       0.132  -0.160  -2.685  0.00  0.00    -0.017 C 
ENDBRANCH  17  23
ENDBRANCH   1  17
TORSDOF 5
