REMARK  Name = ZINC66473168
REMARK  11 active torsions:
REMARK  status: ('A' for Active; 'I' for Inactive)
REMARK    1  A    between atoms: C_1  and  C_2
REMARK    2  A    between atoms: C_2  and  C_3
REMARK    3  A    between atoms: C_3  and  C_4
REMARK    4  A    between atoms: C_4  and  N_5
REMARK    5  A    between atoms: C_6  and  C_8
REMARK    6  A    between atoms: C_12  and  C_29
REMARK    7  A    between atoms: N_14  and  C_16
REMARK    8  A    between atoms: C_16  and  C_17
REMARK    9  A    between atoms: N_19  and  C_20
REMARK   10  A    between atoms: C_20  and  C_21
REMARK   11  A    between atoms: C_22  and  C_23
REMARK                            x       y       z     vdW  Elec       q    Type
REMARK                         _______ _______ _______ _____ _____    ______ ____
ROOT
ATOM      1  C   UNL     1       2.269  -4.308  -3.932  0.00  0.00    +0.058 C 
ATOM      2  C   UNL     1       1.528  -3.803  -5.173  0.00  0.00    +0.009 C 
ATOM      3  C   UNL     1       0.118  -4.400  -5.192  0.00  0.00    -0.015 C 
ATOM      4  C   UNL     1       0.216  -5.927  -5.156  0.00  0.00    -0.071 C 
ATOM      5  N   UNL     1       0.911  -6.347  -3.934  0.00  0.00    +0.388 N 
ATOM      6  C   UNL     1       2.288  -5.838  -3.942  0.00  0.00    -0.065 C 
ATOM      7  C   UNL     1      -1.191  -6.528  -5.174  0.00  0.00    -0.013 C 
ATOM      8  H   UNL     1       0.424  -5.983  -3.129  0.00  0.00    -0.081 HD
ENDROOT
BRANCH   1  10
ATOM      9  N   UNL     1       1.425  -2.500  -2.470  0.00  0.00    -0.315 N 
ATOM     10  C   UNL     1       1.564  -3.822  -2.692  0.00  0.00    +0.214 C 
ATOM     11  O   UNL     1       1.121  -4.620  -1.894  0.00  0.00    -0.276 OA
ATOM     12  H   UNL     1       1.779  -1.861  -3.109  0.00  0.00    +0.149 HD
BRANCH   9  13
ATOM     13  C   UNL     1       0.739  -2.027  -1.265  0.00  0.00    +0.104 C 
BRANCH  13  14
ATOM     14  C   UNL     1       0.718  -0.497  -1.257  0.00  0.00    +0.018 C 
BRANCH  14  16
ATOM     15  C   UNL     1      -0.019   1.526   0.010  0.00  0.00    +0.004 C 
ATOM     16  C   UNL     1       0.002  -0.004   0.002  0.00  0.00    -0.002 C 
ENDBRANCH  14  16
ENDBRANCH  13  14
ENDBRANCH   9  13
ENDBRANCH   1  10
BRANCH   5  17
ATOM     17  C   UNL     1       0.934  -7.815  -3.866  0.00  0.00    +0.019 C 
BRANCH  17  18
ATOM     18  C   UNL     1       1.537  -8.247  -2.554  0.00  0.00    +0.197 C 
ATOM     19  O   UNL     1       1.911  -7.415  -1.755  0.00  0.00    -0.278 OA
ATOM     20  N   UNL     1       1.661  -9.559  -2.269  0.00  0.00    -0.306 N 
ATOM     21  H   UNL     1       1.362 -10.224  -2.909  0.00  0.00    +0.150 HD
BRANCH  20  22
ATOM     22  C   UNL     1       2.247  -9.979  -0.994  0.00  0.00    +0.194 C 
BRANCH  22  23
ATOM     23  C   UNL     1       2.270 -11.450  -0.926  0.00  0.00    -0.078 C 
ATOM     24  C   UNL     1       2.289 -12.622  -0.872  0.00  0.00    -0.065 C 
BRANCH  24  25
ATOM     25  C   UNL     1       2.311 -14.052  -0.805  0.00  0.00    +0.025 A 
ATOM     26  C   UNL     1       1.822 -14.811  -1.869  0.00  0.00    +0.017 A 
ATOM     27  C   UNL     1       1.847 -16.189  -1.799  0.00  0.00    +0.001 A 
ATOM     28  C   UNL     1       2.355 -16.818  -0.677  0.00  0.00    +0.000 A 
ATOM     29  C   UNL     1       2.842 -16.072   0.381  0.00  0.00    +0.001 A 
ATOM     30  C   UNL     1       2.828 -14.694   0.321  0.00  0.00    +0.017 A 
ENDBRANCH  24  25
ENDBRANCH  22  23
ENDBRANCH  20  22
ENDBRANCH  17  18
ENDBRANCH   5  17
TORSDOF 9
