REMARK  Name = ZINC02645844
REMARK  4 active torsions:
REMARK  status: ('A' for Active; 'I' for Inactive)
REMARK    1  A    between atoms: C_8  and  S_10
REMARK    2  A    between atoms: S_10  and  C_11
REMARK    3  A    between atoms: C_11  and  C_12
REMARK    4  A    between atoms: N_14  and  C_15
REMARK                            x       y       z     vdW  Elec       q    Type
REMARK                         _______ _______ _______ _____ _____    ______ ____
ROOT
ATOM      1  C   UNL     1      -1.150  -0.694   0.111  0.00  0.00    +0.227 C 
ATOM      2  O   UNL     1      -2.211  -0.106   0.124  0.00  0.00    -0.275 OA
ATOM      3  N   UNL     1       0.002  -0.004   0.002  0.00  0.00    -0.285 N 
ATOM      4  H   UNL     1       0.844  -0.477  -0.086  0.00  0.00    +0.155 HD
ENDROOT
BRANCH   3   5
ATOM      5  C   UNL     1      -0.016   1.397   0.015  0.00  0.00    +0.035 A 
ATOM      6  C   UNL     1       0.914   2.110  -0.732  0.00  0.00    +0.025 A 
ATOM      7  C   UNL     1       0.897   3.490  -0.728  0.00  0.00    +0.029 A 
ATOM      8  C   UNL     1      -0.043   4.168   0.034  0.00  0.00    +0.067 A 
ATOM      9  C   UNL     1      -0.974   3.455   0.791  0.00  0.00    +0.069 A 
ATOM     10  C   UNL     1      -0.959   2.069   0.779  0.00  0.00    +0.051 A 
ATOM     11  N   UNL     1      -1.773   4.395   1.437  0.00  0.00    -0.306 N 
ATOM     12  H   UNL     1      -2.510   4.198   2.036  0.00  0.00    +0.170 HD
ATOM     13  C   UNL     1      -1.348   5.625   1.090  0.00  0.00    +0.325 A 
ATOM     14  O   UNL     1      -1.832   6.670   1.481  0.00  0.00    -0.247 OA
ATOM     15  N   UNL     1      -0.305   5.522   0.245  0.00  0.00    -0.306 N 
ATOM     16  H   UNL     1       0.181   6.263  -0.150  0.00  0.00    +0.170 HD
ENDBRANCH   3   5
BRANCH   1  17
ATOM     17  C   UNL     1      -1.121  -2.197   0.216  0.00  0.00    +0.172 C 
BRANCH  17  18
ATOM     18  S   UNL     1      -2.814  -2.825   0.349  0.00  0.00    -0.089 S 
BRANCH  18  26
ATOM     19  C   UNL     1      -3.196  -9.239   0.821  0.00  0.00    +0.002 A 
ATOM     20  C   UNL     1      -1.821  -9.416   0.762  0.00  0.00    +0.001 A 
ATOM     21  C   UNL     1      -1.000  -8.309   0.642  0.00  0.00    +0.017 A 
ATOM     22  C   UNL     1      -1.556  -7.056   0.582  0.00  0.00    +0.040 A 
ATOM     23  C   UNL     1      -2.951  -6.837   0.640  0.00  0.00    +0.079 A 
ATOM     24  C   UNL     1      -3.760  -7.991   0.764  0.00  0.00    +0.029 A 
ATOM     25  N   UNL     1      -3.345  -5.547   0.570  0.00  0.00    -0.233 NA
ATOM     26  C   UNL     1      -2.491  -4.554   0.455  0.00  0.00    +0.136 A 
ATOM     27  S   UNL     1      -0.919  -5.405   0.425  0.00  0.00    -0.061 S 
ENDBRANCH  18  26
ENDBRANCH  17  18
ENDBRANCH   1  17
TORSDOF 4
