REMARK  Name = ZINC06516720
REMARK  4 active torsions:
REMARK  status: ('A' for Active; 'I' for Inactive)
REMARK    1  A    between atoms: C_1  and  C_2
REMARK    2  A    between atoms: C_10  and  C_12
REMARK    3  A    between atoms: C_12  and  S_13
REMARK    4  A    between atoms: S_13  and  C_14
REMARK                            x       y       z     vdW  Elec       q    Type
REMARK                         _______ _______ _______ _____ _____    ______ ____
ROOT
ATOM      1  C   UNL     1      -3.801  -1.496   0.032  0.00  0.00    +0.173 C 
ENDROOT
BRANCH   1  11
ATOM      2  C   UNL     1     -11.089  -0.239   0.112  0.00  0.00    +0.047 C 
ATOM      3  C   UNL     1      -9.916  -1.185   0.094  0.00  0.00    -0.009 A 
ATOM      4  C   UNL     1     -10.112  -2.560   0.089  0.00  0.00    +0.063 A 
ATOM      5  C   UNL     1      -9.014  -3.399   0.073  0.00  0.00    +0.133 A 
ATOM      6  N   UNL     1      -7.788  -2.910   0.063  0.00  0.00    -0.237 NA
ATOM      7  C   UNL     1      -7.561  -1.607   0.068  0.00  0.00    +0.144 A 
ATOM      8  C   UNL     1      -8.618  -0.703   0.088  0.00  0.00    +0.085 A 
ATOM      9 CL   UNL     1      -8.314   1.006   0.101  0.00  0.00    -0.080 Cl
ATOM     10  N   UNL     1      -6.248  -1.135   0.057  0.00  0.00    -0.269 N 
ATOM     11  C   UNL     1      -5.219  -2.005   0.043  0.00  0.00    +0.229 C 
ATOM     12  O   UNL     1      -5.434  -3.199   0.039  0.00  0.00    -0.275 OA
ATOM     13 CL   UNL     1     -11.718  -3.217   0.102  0.00  0.00    -0.082 Cl
ATOM     14  H   UNL     1      -6.076  -0.180   0.060  0.00  0.00    +0.156 HD
ENDBRANCH   1  11
BRANCH   1  15
ATOM     15  S   UNL     1      -2.656  -2.897   0.013  0.00  0.00    -0.078 S 
BRANCH  15  16
ATOM     16  C   UNL     1      -1.119  -2.036   0.003  0.00  0.00    +0.170 A 
ATOM     17  N   UNL     1       0.036  -2.766  -0.012  0.00  0.00    -0.301 N 
ATOM     18  H   UNL     1      -0.008  -3.765  -0.017  0.00  0.00    +0.171 HD
ATOM     19  C   UNL     1       1.239  -2.146  -0.021  0.00  0.00    +0.260 A 
ATOM     20  O   UNL     1       2.277  -2.782  -0.035  0.00  0.00    -0.267 OA
ATOM     21  C   UNL     1       1.245  -0.677  -0.013  0.00  0.00    +0.065 A 
ATOM     22  C   UNL     1       2.432   0.055  -0.021  0.00  0.00    +0.015 A 
ATOM     23  C   UNL     1       2.381   1.422  -0.013  0.00  0.00    +0.001 A 
ATOM     24  C   UNL     1       1.161   2.086   0.002  0.00  0.00    +0.002 A 
ATOM     25  C   UNL     1      -0.017   1.394   0.010  0.00  0.00    +0.028 A 
ATOM     26  C   UNL     1       0.002  -0.004   0.002  0.00  0.00    +0.079 A 
ATOM     27  N   UNL     1      -1.136  -0.726   0.009  0.00  0.00    -0.223 NA
ENDBRANCH  15  16
ENDBRANCH   1  15
TORSDOF 3
