REMARK  Name = ZINC27319496
REMARK  8 active torsions:
REMARK  status: ('A' for Active; 'I' for Inactive)
REMARK    1  A    between atoms: C_1  and  C_2
REMARK    2  A    between atoms: C_2  and  C_40
REMARK    3  A    between atoms: C_7  and  C_22
REMARK    4  A    between atoms: C_8  and  N_11
REMARK    5  A    between atoms: C_12  and  C_14
REMARK    6  A    between atoms: C_14  and  C_15
REMARK    7  A    between atoms: C_22  and  S_23
REMARK    8  A    between atoms: S_23  and  N_26
REMARK                            x       y       z     vdW  Elec       q    Type
REMARK                         _______ _______ _______ _____ _____    ______ ____
ROOT
ATOM      1  C   UNL     1      -4.987  -5.769  -0.867  0.00  0.00    +0.012 C 
ATOM      2  C   UNL     1      -4.145  -6.370  -1.994  0.00  0.00    -0.023 C 
ATOM      3  C   UNL     1      -4.610  -7.823  -2.365  0.00  0.00    -0.003 C 
ATOM      4  C   UNL     1      -4.333  -8.585  -1.033  0.00  0.00    +0.005 C 
ATOM      5  C   UNL     1      -3.043  -7.874  -0.448  0.00  0.00    +0.011 C 
ATOM      6  C   UNL     1      -2.710  -6.776  -1.503  0.00  0.00    +0.015 C 
ATOM      7  C   UNL     1      -2.195  -7.569  -2.743  0.00  0.00    +0.081 C 
ATOM      8  C   UNL     1      -3.453  -8.262  -3.314  0.00  0.00    +0.027 C 
ATOM      9  C   UNL     1      -4.096  -5.453  -3.217  0.00  0.00    +0.012 C 
ENDROOT
BRANCH   7  10
ATOM     10  N   UNL     1      -1.201  -8.564  -2.336  0.00  0.00    -0.312 N 
ATOM     11  C   UNL     1      -0.414  -9.149  -3.261  0.00  0.00    +0.213 C 
ATOM     12  O   UNL     1      -0.530  -8.851  -4.431  0.00  0.00    -0.276 OA
ATOM     13  H   UNL     1      -1.096  -8.834  -1.275  0.00  0.00    +0.149 HD
BRANCH  11  14
ATOM     14  C   UNL     1       0.609 -10.173  -2.842  0.00  0.00    +0.097 C 
BRANCH  14  15
ATOM     15  C   UNL     1       1.361 -10.677  -4.075  0.00  0.00    -0.019 C 
ATOM     16  C   UNL     1       2.483 -11.623  -3.638  0.00  0.00    +0.000 C 
ATOM     17  C   UNL     1       3.192 -12.169  -4.881  0.00  0.00    -0.019 C 
ATOM     18  C   UNL     1       2.172 -12.878  -5.774  0.00  0.00    -0.083 C 
ATOM     19  N   UNL     1       1.120 -11.931  -6.165  0.00  0.00    +0.379 N 
ATOM     20  C   UNL     1       0.394 -11.429  -4.992  0.00  0.00    -0.079 C 
ATOM     21  H   UNL     1       1.573 -11.076  -6.690  0.00  0.00    -0.086 HD
ATOM     22  H   UNL     1       0.404 -12.433  -6.833  0.00  0.00    -0.086 HD
ENDBRANCH  14  15
ENDBRANCH  11  14
ENDBRANCH   7  10
BRANCH   6  23
ATOM     23  C   UNL     1      -1.813  -5.634  -1.020  0.00  0.00    +0.194 C 
BRANCH  23  24
ATOM     24  S   UNL     1      -0.199  -6.300  -0.529  0.00  0.00    +0.032 S 
ATOM     25  O   UNL     1       0.498  -6.784  -1.668  0.00  0.00    -0.158 OA
ATOM     26  O   UNL     1      -0.335  -7.105   0.634  0.00  0.00    -0.158 OA
BRANCH  24  27
ATOM     27  N   UNL     1       0.671  -4.981  -0.030  0.00  0.00    -0.181 NA
ATOM     28  C   UNL     1       0.637  -4.551   1.374  0.00  0.00    +0.110 C 
ATOM     29  C   UNL     1       0.240  -3.071   1.426  0.00  0.00    +0.028 C 
ATOM     30  C   UNL     1       1.175  -2.264   0.530  0.00  0.00    -0.001 C 
ATOM     31  C   UNL     1       2.625  -2.389   1.036  0.00  0.00    +0.016 C 
ATOM     32  C   UNL     1       3.203  -0.991   0.725  0.00  0.00    +0.036 C 
ATOM     33  C   UNL     1       2.010  -0.059   0.726  0.00  0.00    -0.044 A 
ATOM     34  C   UNL     1       0.843  -0.793   0.614  0.00  0.00    -0.038 A 
ATOM     35  C   UNL     1      -0.379  -0.142   0.595  0.00  0.00    +0.004 A 
ATOM     36  C   UNL     1      -0.436   1.235   0.686  0.00  0.00    +0.000 A 
ATOM     37  C   UNL     1       0.730   1.968   0.797  0.00  0.00    +0.000 A 
ATOM     38  C   UNL     1       1.951   1.321   0.817  0.00  0.00    +0.004 A 
ATOM     39  C   UNL     1       1.085  -2.745  -0.915  0.00  0.00    +0.028 C 
ATOM     40  C   UNL     1       1.490  -4.222  -0.985  0.00  0.00    +0.110 C 
ENDBRANCH  24  27
ENDBRANCH  23  24
ENDBRANCH   6  23
TORSDOF 6
