REMARK  Name = ZINC41157330
REMARK  9 active torsions:
REMARK  status: ('A' for Active; 'I' for Inactive)
REMARK    1  A    between atoms: C_1  and  C_2
REMARK    2  A    between atoms: C_5  and  C_7
REMARK    3  A    between atoms: C_7  and  C_9
REMARK    4  A    between atoms: C_7  and  N_32
REMARK    5  A    between atoms: C_9  and  N_10
REMARK    6  A    between atoms: C_15  and  C_17
REMARK    7  A    between atoms: C_24  and  C_26
REMARK    8  A    between atoms: N_32  and  C_33
REMARK    9  A    between atoms: N_32  and  C_34
REMARK                            x       y       z     vdW  Elec       q    Type
REMARK                         _______ _______ _______ _____ _____    ______ ____
ROOT
ATOM      1  N   UNL     1       2.941  -4.545   1.557  0.00  0.00    -0.327 N 
ATOM      2  C   UNL     1       3.349  -4.957   2.816  0.00  0.00    +0.168 A 
ATOM      3  C   UNL     1       4.199  -6.054   2.965  0.00  0.00    +0.214 A 
ATOM      4  C   UNL     1       4.586  -6.435   4.260  0.00  0.00    +0.204 A 
ATOM      5  N   UNL     1       4.129  -5.736   5.302  0.00  0.00    -0.205 NA
ATOM      6  C   UNL     1       3.325  -4.702   5.115  0.00  0.00    +0.164 A 
ATOM      7  N   UNL     1       2.943  -4.311   3.905  0.00  0.00    -0.209 NA
ATOM      8  N   UNL     1       5.393  -7.505   4.124  0.00  0.00    -0.189 NA
ATOM      9  C   UNL     1       5.515  -7.787   2.849  0.00  0.00    +0.230 A 
ATOM     10  O   UNL     1       4.796  -6.917   2.116  0.00  0.00    -0.430 OA
ATOM     11  H   UNL     1       3.243  -5.023   0.769  0.00  0.00    +0.148 HD
ENDROOT
BRANCH   6  12
ATOM     12  C   UNL     1       2.838  -3.951   6.298  0.00  0.00    +0.019 A 
ATOM     13  C   UNL     1       1.986  -2.861   6.132  0.00  0.00    +0.011 A 
ATOM     14  C   UNL     1       1.536  -2.165   7.235  0.00  0.00    +0.001 A 
ATOM     15  C   UNL     1       1.929  -2.548   8.505  0.00  0.00    +0.000 A 
ATOM     16  C   UNL     1       2.776  -3.629   8.676  0.00  0.00    +0.001 A 
ATOM     17  C   UNL     1       3.227  -4.335   7.580  0.00  0.00    +0.011 A 
ENDBRANCH   6  12
BRANCH   9  18
ATOM     18  C   UNL     1       6.321  -8.897   2.299  0.00  0.00    +0.037 A 
ATOM     19  C   UNL     1       6.383  -9.101   0.919  0.00  0.00    +0.013 A 
ATOM     20  C   UNL     1       7.138 -10.139   0.412  0.00  0.00    +0.001 A 
ATOM     21  C   UNL     1       7.833 -10.976   1.267  0.00  0.00    +0.000 A 
ATOM     22  C   UNL     1       7.776 -10.778   2.636  0.00  0.00    +0.001 A 
ATOM     23  C   UNL     1       7.029  -9.741   3.156  0.00  0.00    +0.013 A 
ENDBRANCH   9  18
BRANCH   1  24
ATOM     24  C   UNL     1       2.054  -3.387   1.417  0.00  0.00    +0.095 C 
BRANCH  24  25
ATOM     25  C   UNL     1       1.650  -3.229  -0.050  0.00  0.00    +0.016 C 
BRANCH  25  30
ATOM     26  C   UNL     1       5.929  -3.774  -2.664  0.00  0.00    +0.086 C 
ATOM     27  C   UNL     1       4.729  -3.138  -2.010  0.00  0.00    +0.102 A 
ATOM     28  C   UNL     1       4.423  -1.828  -2.032  0.00  0.00    +0.044 A 
ATOM     29  C   UNL     1       3.224  -1.676  -1.300  0.00  0.00    +0.043 A 
ATOM     30  C   UNL     1       2.868  -2.901  -0.874  0.00  0.00    +0.093 A 
ATOM     31  O   UNL     1       3.780  -3.784  -1.313  0.00  0.00    -0.466 OA
ENDBRANCH  25  30
BRANCH  25  32
ATOM     32  N   UNL     1       1.055  -4.483  -0.533  0.00  0.00    +0.384 N 
ATOM     33  C   UNL     1      -0.123  -4.811   0.281  0.00  0.00    -0.096 C 
ATOM     34  C   UNL     1       0.652  -4.325  -1.937  0.00  0.00    -0.096 C 
ATOM     35  H   UNL     1       1.733  -5.227  -0.459  0.00  0.00    -0.082 HD
ENDBRANCH  25  32
ENDBRANCH  24  25
ENDBRANCH   1  24
TORSDOF 6
