REMARK  Name = ZINC14560687
REMARK  10 active torsions:
REMARK  status: ('A' for Active; 'I' for Inactive)
REMARK    1  A    between atoms: C_1  and  C_2
REMARK    2  A    between atoms: C_2  and  C_4
REMARK    3  A    between atoms: C_2  and  S_14
REMARK    4  A    between atoms: N_9  and  C_10
REMARK    5  A    between atoms: C_10  and  C_11
REMARK    6  A    between atoms: C_11  and  C_12
REMARK    7  A    between atoms: C_11  and  C_13
REMARK    8  A    between atoms: S_14  and  C_15
REMARK    9  A    between atoms: C_18  and  C_21
REMARK   10  A    between atoms: N_19  and  N_20
REMARK                            x       y       z     vdW  Elec       q    Type
REMARK                         _______ _______ _______ _____ _____    ______ ____
ROOT
ATOM      1  S   UNL     1       0.759  -0.776   1.456  0.00  0.00    -0.072 S 
ENDROOT
BRANCH   1   2
ATOM      2  C   UNL     1      -0.183  -0.154   2.809  0.00  0.00    +0.209 A 
ATOM      3  N   UNL     1      -1.220   0.649   2.733  0.00  0.00    -0.121 NA
ATOM      4  N   UNL     1      -1.668   0.904   3.911  0.00  0.00    -0.127 NA
ATOM      5  C   UNL     1      -0.945   0.280   4.811  0.00  0.00    +0.183 A 
ATOM      6  N   UNL     1       0.025  -0.422   4.132  0.00  0.00    -0.224 N 
BRANCH   5   7
ATOM      7  C   UNL     1      -1.139   0.318   6.275  0.00  0.00    +0.035 A 
ATOM      8  C   UNL     1      -0.052   0.545   7.121  0.00  0.00    +0.013 A 
ATOM      9  C   UNL     1      -0.240   0.580   8.487  0.00  0.00    +0.001 A 
ATOM     10  C   UNL     1      -1.503   0.392   9.020  0.00  0.00    +0.001 A 
ATOM     11  C   UNL     1      -2.585   0.167   8.189  0.00  0.00    +0.016 A 
ATOM     12  C   UNL     1      -2.412   0.134   6.819  0.00  0.00    +0.029 A 
ATOM     13 BR   UNL     1      -3.894  -0.166   5.683  0.00  0.00    -0.050 Br
ENDBRANCH   5   7
BRANCH   6  14
ATOM     14  N   UNL     1       0.996  -1.219   4.670  0.00  0.00    -0.295 N 
ATOM     15  H   UNL     1       1.797  -0.673   4.951  0.00  0.00    +0.163 HD
ATOM     16  H   UNL     1       0.635  -1.756   5.445  0.00  0.00    +0.163 HD
ENDBRANCH   6  14
ENDBRANCH   1   2
BRANCH   1  18
ATOM     17  C   UNL     1       0.142   1.475   0.031  0.00  0.00    +0.029 C 
ATOM     18  C   UNL     1      -0.033  -0.044  -0.002  0.00  0.00    +0.137 C 
BRANCH  18  19
ATOM     19  C   UNL     1       0.606  -0.596  -1.251  0.00  0.00    +0.234 C 
ATOM     20  O   UNL     1       1.707  -1.101  -1.196  0.00  0.00    -0.274 OA
ATOM     21  N   UNL     1      -0.047  -0.529  -2.428  0.00  0.00    -0.239 N 
ATOM     22  C   UNL     1       0.524  -1.023  -3.544  0.00  0.00    +0.306 C 
ATOM     23  O   UNL     1       1.628  -1.529  -3.490  0.00  0.00    -0.252 OA
ATOM     24  N   UNL     1      -0.129  -0.956  -4.722  0.00  0.00    -0.299 N 
ATOM     25  H   UNL     1      -0.928  -0.126  -2.472  0.00  0.00    +0.159 HD
ATOM     26  H   UNL     1      -1.010  -0.552  -4.765  0.00  0.00    +0.150 HD
BRANCH  24  27
ATOM     27  C   UNL     1       0.492  -1.492  -5.935  0.00  0.00    +0.108 C 
BRANCH  27  28
ATOM     28  C   UNL     1      -0.451  -1.291  -7.123  0.00  0.00    -0.000 C 
ATOM     29  C   UNL     1       0.246  -1.737  -8.409  0.00  0.00    +0.009 C 
ATOM     30  C   UNL     1      -1.718  -2.123  -6.914  0.00  0.00    +0.009 C 
ENDBRANCH  27  28
ENDBRANCH  24  27
ENDBRANCH  18  19
ENDBRANCH   1  18
TORSDOF 7
