REMARK  Name = ZINC01926283
REMARK  10 active torsions:
REMARK  status: ('A' for Active; 'I' for Inactive)
REMARK    1  A    between atoms: C_1  and  C_2
REMARK    2  A    between atoms: C_4  and  C_32
REMARK    3  A    between atoms: C_5  and  C_31
REMARK    4  A    between atoms: C_6  and  S_9
REMARK    5  A    between atoms: C_7  and  C_8
REMARK    6  A    between atoms: S_9  and  N_12
REMARK    7  A    between atoms: N_12  and  C_13
REMARK    8  A    between atoms: C_16  and  O_30
REMARK    9  A    between atoms: C_17  and  C_19
REMARK   10  A    between atoms: C_28  and  O_29
REMARK                            x       y       z     vdW  Elec       q    Type
REMARK                         _______ _______ _______ _____ _____    ______ ____
ROOT
ATOM      1  C   UNL     1      -3.267   6.977  -0.676  0.00  0.00    +0.049 A 
ATOM      2  C   UNL     1      -4.037   7.297   0.436  0.00  0.00    +0.028 A 
ATOM      3  C   UNL     1      -3.607   6.953   1.703  0.00  0.00    +0.048 A 
ATOM      4  C   UNL     1      -2.408   6.282   1.873  0.00  0.00    +0.125 A 
ATOM      5  C   UNL     1      -1.625   5.961   0.759  0.00  0.00    +0.029 A 
ATOM      6  C   UNL     1      -2.062   6.310  -0.518  0.00  0.00    +0.036 A 
ENDROOT
BRANCH   5   7
ATOM      7  C   UNL     1      -0.340   5.248   0.935  0.00  0.00    +0.035 A 
ATOM      8  C   UNL     1      -0.299   3.833   0.927  0.00  0.00    -0.007 A 
ATOM      9  C   UNL     1      -1.466   3.074   0.752  0.00  0.00    +0.009 A 
ATOM     10  C   UNL     1      -1.391   1.714   0.745  0.00  0.00    +0.001 A 
ATOM     11  C   UNL     1      -0.171   1.063   0.918  0.00  0.00    +0.001 A 
ATOM     12  C   UNL     1       0.981   1.768   1.089  0.00  0.00    +0.008 A 
ATOM     13  C   UNL     1       0.942   3.173   1.098  0.00  0.00    -0.017 A 
ATOM     14  C   UNL     1       2.114   3.931   1.272  0.00  0.00    +0.012 A 
ATOM     15  C   UNL     1       2.054   5.291   1.276  0.00  0.00    +0.046 A 
ATOM     16  C   UNL     1       0.840   5.959   1.110  0.00  0.00    +0.125 A 
BRANCH  16  17
ATOM     17  O   UNL     1       0.812   7.317   1.119  0.00  0.00    -0.506 OA
ATOM     18  H   UNL     1       0.929   7.719   0.247  0.00  0.00    +0.292 HD
ENDBRANCH  16  17
ENDBRANCH   5   7
BRANCH   1  19
ATOM     19  N   UNL     1      -3.708   7.329  -1.957  0.00  0.00    -0.216 N 
ATOM     20  H   UNL     1      -3.096   7.744  -2.584  0.00  0.00    +0.174 HD
BRANCH  19  21
ATOM     21  S   UNL     1      -5.276   7.036  -2.401  0.00  0.00    +0.073 S 
ATOM     22  O   UNL     1      -5.407   7.479  -3.745  0.00  0.00    -0.150 OA
ATOM     23  O   UNL     1      -5.568   5.702  -2.008  0.00  0.00    -0.150 OA
BRANCH  21  29
ATOM     24  C   UNL     1      -7.047  11.767  -1.062  0.00  0.00    +0.044 C 
ATOM     25  C   UNL     1      -7.076  10.276  -0.850  0.00  0.00    -0.045 A 
ATOM     26  C   UNL     1      -7.905   9.730   0.112  0.00  0.00    +0.007 A 
ATOM     27  C   UNL     1      -7.932   8.362   0.306  0.00  0.00    -0.045 A 
ATOM     28  C   UNL     1      -7.129   7.539  -0.462  0.00  0.00    -0.021 A 
ATOM     29  C   UNL     1      -6.300   8.084  -1.423  0.00  0.00    +0.115 A 
ATOM     30  C   UNL     1      -6.269   9.453  -1.614  0.00  0.00    -0.021 A 
ATOM     31  C   UNL     1      -5.360  10.048  -2.658  0.00  0.00    +0.046 C 
ATOM     32  C   UNL     1      -7.158   6.047  -0.249  0.00  0.00    +0.046 C 
ATOM     33  C   UNL     1      -8.836   7.767   1.355  0.00  0.00    +0.044 C 
ENDBRANCH  21  29
ENDBRANCH  19  21
ENDBRANCH   1  19
BRANCH   4  34
ATOM     34  O   UNL     1      -1.990   5.939   3.120  0.00  0.00    -0.506 OA
ATOM     35  H   UNL     1      -1.449   6.614   3.553  0.00  0.00    +0.292 HD
ENDBRANCH   4  34
TORSDOF 6
