REMARK  Name = ZINC09910230
REMARK  5 active torsions:
REMARK  status: ('A' for Active; 'I' for Inactive)
REMARK    1  A    between atoms: N_11  and  C_12
REMARK    2  A    between atoms: C_12  and  C_13
REMARK    3  A    between atoms: C_13  and  C_14
REMARK    4  A    between atoms: C_21  and  C_22
REMARK    5  A    between atoms: C_21  and  N_52
REMARK                            x       y       z     vdW  Elec       q    Type
REMARK                         _______ _______ _______ _____ _____    ______ ____
ROOT
ATOM      1  C   UNL     1      -2.081   8.483  -1.379  0.00  0.00    +0.217 C 
ATOM      2  O   UNL     1      -2.472   8.933  -0.323  0.00  0.00    -0.276 OA
ATOM      3  N   UNL     1      -2.537   8.995  -2.539  0.00  0.00    -0.305 N 
ATOM      4  C   UNL     1      -2.071   8.468  -3.831  0.00  0.00    +0.089 C 
ATOM      5  C   UNL     1      -3.303   8.140  -4.690  0.00  0.00    -0.059 C 
ATOM      6  C   UNL     1      -4.678   9.711  -3.457  0.00  0.00    -0.059 C 
ATOM      7  C   UNL     1      -3.508  10.099  -2.548  0.00  0.00    +0.089 C 
ATOM      8  N   UNL     1      -4.146   9.351  -4.789  0.00  0.00    +0.385 N 
ATOM      9  H   UNL     1      -3.572  10.128  -5.139  0.00  0.00    -0.081 HD
ENDROOT
BRANCH   1  10
ATOM     10  C   UNL     1      -1.086   7.351  -1.393  0.00  0.00    +0.117 C 
BRANCH  10  11
ATOM     11  C   UNL     1      -0.737   6.961   0.044  0.00  0.00    +0.138 C 
BRANCH  11  22
ATOM     12  C   UNL     1      -1.232   2.405   0.021  0.00  0.00    +0.022 A 
ATOM     13  C   UNL     1      -1.258   3.786   0.034  0.00  0.00    +0.031 A 
ATOM     14  C   UNL     1      -0.069   4.498   0.026  0.00  0.00    +0.090 A 
ATOM     15  C   UNL     1       1.151   3.822   0.011  0.00  0.00    +0.158 A 
ATOM     16  C   UNL     1       1.168   2.436   0.004  0.00  0.00    +0.068 A 
ATOM     17  C   UNL     1      -0.021   1.732   0.012  0.00  0.00    +0.045 A 
ATOM     18 CL   UNL     1       0.002  -0.004   0.002  0.00  0.00    -0.083 Cl
ATOM     19  O   UNL     1       2.130   4.759   0.007  0.00  0.00    -0.407 OA
ATOM     20  C   UNL     1       1.573   5.980   0.018  0.00  0.00    +0.421 A 
ATOM     21  O   UNL     1       2.185   7.031   0.018  0.00  0.00    -0.223 OA
ATOM     22  N   UNL     1       0.231   5.861   0.030  0.00  0.00    -0.274 N 
ENDBRANCH  11  22
ENDBRANCH  10  11
ENDBRANCH   1  10
BRANCH   8  23
ATOM     23  C   UNL     1      -5.260   9.115  -5.731  0.00  0.00    -0.022 C 
BRANCH  23  24
ATOM     24  C   UNL     1      -4.697   8.967  -7.121  0.00  0.00    +0.033 A 
ATOM     25  C   UNL     1      -4.813   7.773  -7.801  0.00  0.00    +0.092 A 
ATOM     26  C   UNL     1      -4.290   7.657  -9.089  0.00  0.00    +0.259 A 
ATOM     27  O   UNL     1      -4.394   6.604  -9.699  0.00  0.00    -0.267 OA
ATOM     28  N   UNL     1      -3.655   8.721  -9.666  0.00  0.00    -0.262 N 
ATOM     29  C   UNL     1      -3.087   8.759 -10.917  0.00  0.00    +0.104 A 
ATOM     30  C   UNL     1      -2.493   9.864 -11.368  0.00  0.00    +0.067 A 
ATOM     31  S   UNL     1      -2.706  10.983  -9.993  0.00  0.00    -0.058 S 
ATOM     32  C   UNL     1      -3.580   9.866  -8.918  0.00  0.00    +0.180 A 
ATOM     33  N   UNL     1      -4.074   9.984  -7.711  0.00  0.00    -0.229 NA
ENDBRANCH  23  24
ENDBRANCH   8  23
TORSDOF 5
