REMARK  Name = ZINC13122738
REMARK  7 active torsions:
REMARK  status: ('A' for Active; 'I' for Inactive)
REMARK    1  A    between atoms: C_1  and  C_2
REMARK    2  A    between atoms: C_2  and  C_4
REMARK    3  A    between atoms: C_4  and  O_5
REMARK    4  A    between atoms: O_5  and  C_6
REMARK    5  A    between atoms: C_9  and  C_13
REMARK    6  A    between atoms: C_10  and  O_12
REMARK    7  A    between atoms: C_14  and  C_19
REMARK                            x       y       z     vdW  Elec       q    Type
REMARK                         _______ _______ _______ _____ _____    ______ ____
ROOT
ATOM      1  C   UNL     1      -2.604  -2.481  -0.564  0.00  0.00    +0.124 A 
ATOM      2  C   UNL     1      -3.938  -2.134  -0.386  0.00  0.00    +0.046 A 
ATOM      3  C   UNL     1      -4.896  -3.114  -0.240  0.00  0.00    +0.017 A 
ATOM      4  C   UNL     1      -4.527  -4.459  -0.271  0.00  0.00    +0.043 A 
ATOM      5  C   UNL     1      -3.182  -4.808  -0.450  0.00  0.00    +0.129 A 
ATOM      6  C   UNL     1      -2.228  -3.815  -0.601  0.00  0.00    +0.091 A 
ENDROOT
BRANCH   4   7
ATOM      7  C   UNL     1      -5.552  -5.514  -0.114  0.00  0.00    +0.085 A 
ATOM      8  C   UNL     1      -6.466  -5.473   0.958  0.00  0.00    +0.026 A 
ATOM      9  C   UNL     1      -7.410  -6.495   1.054  0.00  0.00    +0.123 A 
ATOM     10  N   UNL     1      -7.412  -7.454   0.143  0.00  0.00    -0.243 NA
ATOM     11  C   UNL     1      -6.541  -7.459  -0.847  0.00  0.00    +0.221 A 
ATOM     12  N   UNL     1      -5.633  -6.517  -0.986  0.00  0.00    -0.235 NA
BRANCH   8  13
ATOM     13  C   UNL     1      -6.424  -4.377   1.955  0.00  0.00    -0.014 A 
ATOM     14  C   UNL     1      -5.248  -4.112   2.655  0.00  0.00    +0.010 A 
ATOM     15  C   UNL     1      -5.215  -3.090   3.581  0.00  0.00    +0.016 A 
ATOM     16  C   UNL     1      -6.346  -2.329   3.817  0.00  0.00    +0.018 A 
ATOM     17  C   UNL     1      -7.517  -2.588   3.126  0.00  0.00    +0.016 A 
ATOM     18  C   UNL     1      -7.560  -3.604   2.192  0.00  0.00    +0.010 A 
ATOM     19 BR   UNL     1      -6.294  -0.931   5.090  0.00  0.00    -0.050 Br
ENDBRANCH   8  13
ENDBRANCH   4   7
BRANCH   5  20
ATOM     20  O   UNL     1      -2.815  -6.115  -0.481  0.00  0.00    -0.506 OA
ATOM     21  H   UNL     1      -2.829  -6.506  -1.365  0.00  0.00    +0.292 HD
ENDBRANCH   5  20
BRANCH   1  22
ATOM     22  O   UNL     1      -1.665  -1.510  -0.706  0.00  0.00    -0.488 OA
BRANCH  22  23
ATOM     23  C   UNL     1      -2.120  -0.156  -0.658  0.00  0.00    +0.259 C 
BRANCH  23  25
ATOM     24  C   UNL     1      -1.161   2.267  -0.820  0.00  0.00    +0.042 C 
ATOM     25  C   UNL     1      -0.948   0.775  -0.833  0.00  0.00    -0.043 C 
ATOM     26  C   UNL     1       0.257   0.287  -0.996  0.00  0.00    +0.011 C 
ENDBRANCH  23  25
ENDBRANCH  22  23
ENDBRANCH   1  22
TORSDOF 6
