REMARK  Name = ZINC39345184
REMARK  8 active torsions:
REMARK  status: ('A' for Active; 'I' for Inactive)
REMARK    1  A    between atoms: C_1  and  C_2
REMARK    2  A    between atoms: C_4  and  C_15
REMARK    3  A    between atoms: C_5  and  C_14
REMARK    4  A    between atoms: N_7  and  C_8
REMARK    5  A    between atoms: C_18  and  C_20
REMARK    6  A    between atoms: N_22  and  N_23
REMARK    7  A    between atoms: C_24  and  C_25
REMARK    8  A    between atoms: C_24  and  C_26
REMARK                            x       y       z     vdW  Elec       q    Type
REMARK                         _______ _______ _______ _____ _____    ______ ____
ROOT
ATOM      1  C   UNL     1      -2.420  -0.348  -0.885  0.00  0.00    +0.076 C 
ATOM      2  N   UNL     1      -2.350   0.354  -2.005  0.00  0.00    -0.153 NA
ATOM      3  N   UNL     1      -3.435   0.369  -2.676  0.00  0.00    -0.148 NA
ATOM      4  C   UNL     1      -4.416  -0.312  -2.135  0.00  0.00    +0.132 C 
ATOM      5  C   UNL     1      -3.841  -0.887  -0.852  0.00  0.00    +0.120 C 
ENDROOT
BRANCH   1   8
ATOM      6  C   UNL     1      -0.019   1.526   0.010  0.00  0.00    +0.035 C 
ATOM      7  C   UNL     1       0.002  -0.004   0.002  0.00  0.00    +0.124 C 
ATOM      8  C   UNL     1      -1.408  -0.553   0.057  0.00  0.00    +0.016 C 
ATOM      9  C   UNL     1      -1.499  -1.282   1.198  0.00  0.00    +0.026 C 
ATOM     10  N   UNL     1      -0.333  -1.276   1.888  0.00  0.00    -0.267 N 
ATOM     11  N   UNL     1       0.643  -0.517   1.224  0.00  0.00    -0.246 N 
ATOM     12  C   UNL     1      -2.743  -2.007   1.643  0.00  0.00    +0.062 C 
ATOM     13  H   UNL     1      -0.191  -1.737   2.729  0.00  0.00    +0.170 HD
BRANCH  11  14
ATOM     14  C   UNL     1       1.957  -0.292   1.639  0.00  0.00    +0.048 A 
ATOM     15  C   UNL     1       2.805   0.494   0.869  0.00  0.00    +0.025 A 
ATOM     16  C   UNL     1       4.104   0.716   1.282  0.00  0.00    +0.002 A 
ATOM     17  C   UNL     1       4.561   0.155   2.461  0.00  0.00    +0.000 A 
ATOM     18  C   UNL     1       3.720  -0.627   3.230  0.00  0.00    +0.002 A 
ATOM     19  C   UNL     1       2.418  -0.848   2.826  0.00  0.00    +0.025 A 
ENDBRANCH  11  14
ENDBRANCH   1   8
BRANCH   4  20
ATOM     20  C   UNL     1      -5.729  -0.479  -2.641  0.00  0.00    +0.280 C 
ATOM     21  O   UNL     1      -6.540  -1.145  -2.022  0.00  0.00    -0.267 OA
ATOM     22  N   UNL     1      -6.081   0.099  -3.807  0.00  0.00    -0.202 N 
ATOM     23  H   UNL     1      -5.435   0.629  -4.300  0.00  0.00    +0.178 HD
BRANCH  22  24
ATOM     24  N   UNL     1      -7.379  -0.066  -4.307  0.00  0.00    -0.184 NA
ATOM     25  C   UNL     1      -7.719   0.492  -5.432  0.00  0.00    +0.070 C 
ATOM     26  C   UNL     1      -6.715   1.315  -6.198  0.00  0.00    +0.068 C 
BRANCH  25  27
ATOM     27  C   UNL     1      -9.077   0.319  -5.955  0.00  0.00    +0.035 A 
ATOM     28  C   UNL     1     -10.139  -0.385  -5.412  0.00  0.00    +0.017 A 
ATOM     29  C   UNL     1     -11.331  -0.400  -6.098  0.00  0.00    +0.008 A 
ATOM     30  C   UNL     1     -11.430   0.269  -7.276  0.00  0.00    +0.046 A 
ATOM     31  S   UNL     1      -9.797   0.967  -7.455  0.00  0.00    -0.095 S 
ENDBRANCH  25  27
ENDBRANCH  22  24
ENDBRANCH   4  20
TORSDOF 5
