REMARK  Name = ZINC01144568
REMARK  9 active torsions:
REMARK  status: ('A' for Active; 'I' for Inactive)
REMARK    1  A    between atoms: C_1  and  O_2
REMARK    2  A    between atoms: O_2  and  C_3
REMARK    3  A    between atoms: C_5  and  C_10
REMARK    4  A    between atoms: C_8  and  O_9
REMARK    5  A    between atoms: C_12  and  C_33
REMARK    6  A    between atoms: C_13  and  S_22
REMARK    7  A    between atoms: S_22  and  C_23
REMARK    8  A    between atoms: C_23  and  C_24
REMARK    9  A    between atoms: N_26  and  C_27
REMARK                            x       y       z     vdW  Elec       q    Type
REMARK                         _______ _______ _______ _____ _____    ______ ____
ROOT
ATOM      1  C   UNL     1       2.403   0.379  -4.230  0.00  0.00    +0.097 C 
ATOM      2  C   UNL     1       1.719   0.070  -5.529  0.00  0.00    +0.069 C 
ATOM      3  C   UNL     1       2.308  -0.729  -6.459  0.00  0.00    +0.080 C 
ATOM      4  N   UNL     1       3.553  -1.263  -6.221  0.00  0.00    -0.311 N 
ATOM      5  C   UNL     1       4.378  -0.710  -5.280  0.00  0.00    +0.016 C 
ATOM      6  C   UNL     1       3.879   0.081  -4.308  0.00  0.00    +0.024 C 
ATOM      7  C   UNL     1       4.720   0.651  -3.336  0.00  0.00    +0.162 C 
ATOM      8  O   UNL     1       4.242   1.371  -2.482  0.00  0.00    -0.292 OA
ATOM      9  C   UNL     1       6.200   0.384  -3.333  0.00  0.00    +0.080 C 
ATOM     10  C   UNL     1       6.460  -0.990  -3.958  0.00  0.00    +0.014 C 
ATOM     11  C   UNL     1       5.856  -1.004  -5.361  0.00  0.00    +0.051 C 
ATOM     12  H   UNL     1       3.849  -2.038  -6.724  0.00  0.00    +0.152 HD
ENDROOT
BRANCH   1  15
ATOM     13  C   UNL     1       0.606  -0.608  -1.056  0.00  0.00    +0.162 A 
ATOM     14  C   UNL     1       1.173   0.159  -2.062  0.00  0.00    +0.054 A 
ATOM     15  C   UNL     1       1.787  -0.456  -3.137  0.00  0.00    -0.031 A 
ATOM     16  C   UNL     1       1.837  -1.836  -3.212  0.00  0.00    +0.008 A 
ATOM     17  C   UNL     1       1.273  -2.606  -2.212  0.00  0.00    +0.049 A 
ATOM     18  C   UNL     1       0.662  -1.996  -1.129  0.00  0.00    +0.158 A 
BRANCH  13  20
ATOM     19  C   UNL     1      -0.017   1.425   0.010  0.00  0.00    +0.277 C 
ATOM     20  O   UNL     1       0.002  -0.004   0.002  0.00  0.00    -0.491 OA
ENDBRANCH  13  20
BRANCH  18  21
ATOM     21  O   UNL     1       0.112  -2.753  -0.142  0.00  0.00    -0.503 OA
ATOM     22  H   UNL     1      -0.816  -2.979  -0.291  0.00  0.00    +0.292 HD
ENDBRANCH  18  21
ENDBRANCH   1  15
BRANCH   2  23
ATOM     23  C   UNL     1       0.426   0.625  -5.795  0.00  0.00    +0.098 C 
ATOM     24  N   UNL     1      -0.599   1.066  -6.005  0.00  0.00    -0.191 NA
ENDBRANCH   2  23
BRANCH   3  25
ATOM     25  S   UNL     1       1.474  -1.082  -7.971  0.00  0.00    -0.100 S 
BRANCH  25  26
ATOM     26  C   UNL     1       2.626  -2.160  -8.866  0.00  0.00    +0.171 C 
BRANCH  26  27
ATOM     27  C   UNL     1       2.026  -2.542 -10.195  0.00  0.00    +0.223 C 
ATOM     28  O   UNL     1       0.931  -2.126 -10.508  0.00  0.00    -0.275 OA
ATOM     29  N   UNL     1       2.708  -3.344 -11.037  0.00  0.00    -0.312 N 
ATOM     30  H   UNL     1       3.585  -3.676 -10.786  0.00  0.00    +0.149 HD
BRANCH  29  31
ATOM     31  C   UNL     1       2.126  -3.714 -12.329  0.00  0.00    +0.073 C 
ATOM     32  C   UNL     1       1.212  -4.928 -12.147  0.00  0.00    +0.022 C 
ATOM     33  C   UNL     1       0.604  -5.314 -13.497  0.00  0.00    +0.002 C 
ATOM     34  C   UNL     1       1.724  -5.662 -14.480  0.00  0.00    +0.000 C 
ATOM     35  C   UNL     1       2.638  -4.449 -14.661  0.00  0.00    +0.002 C 
ATOM     36  C   UNL     1       3.246  -4.062 -13.312  0.00  0.00    +0.022 C 
ENDBRANCH  29  31
ENDBRANCH  26  27
ENDBRANCH  25  26
ENDBRANCH   3  25
TORSDOF 8
