REMARK  Name = ZINC27500552
REMARK  8 active torsions:
REMARK  status: ('A' for Active; 'I' for Inactive)
REMARK    1  A    between atoms: C_1  and  C_2
REMARK    2  A    between atoms: C_2  and  O_3
REMARK    3  A    between atoms: O_3  and  C_4
REMARK    4  A    between atoms: C_6  and  C_11
REMARK    5  A    between atoms: C_9  and  O_10
REMARK    6  A    between atoms: N_12  and  N_13
REMARK    7  A    between atoms: C_14  and  C_16
REMARK    8  A    between atoms: C_21  and  O_22
REMARK                            x       y       z     vdW  Elec       q    Type
REMARK                         _______ _______ _______ _____ _____    ______ ____
ROOT
ATOM      1  C   UNL     1      -1.302   2.115   0.020  0.00  0.00    +0.138 C 
ATOM      2  N   UNL     1      -1.318   3.413   0.027  0.00  0.00    -0.187 NA
ENDROOT
BRANCH   1   5
ATOM      3  C   UNL     1       1.210  -0.675  -0.013  0.00  0.00    +0.162 A 
ATOM      4  C   UNL     1       0.002  -0.004   0.002  0.00  0.00    +0.059 A 
ATOM      5  C   UNL     1      -0.017   1.393   0.010  0.00  0.00    -0.002 A 
ATOM      6  C   UNL     1       1.186   2.105   0.002  0.00  0.00    +0.013 A 
ATOM      7  C   UNL     1       2.387   1.428  -0.013  0.00  0.00    +0.050 A 
ATOM      8  C   UNL     1       2.405   0.041  -0.021  0.00  0.00    +0.158 A 
BRANCH   8   9
ATOM      9  O   UNL     1       3.592  -0.622  -0.036  0.00  0.00    -0.503 OA
ATOM     10  H   UNL     1       4.537  -0.058  -0.042  0.00  0.00    +0.292 HD
ENDBRANCH   8   9
BRANCH   3  11
ATOM     11  O   UNL     1       1.232  -2.035  -0.020  0.00  0.00    -0.489 OA
BRANCH  11  13
ATOM     12  C   UNL     1       0.195  -4.218  -0.021  0.00  0.00    +0.048 C 
ATOM     13  C   UNL     1      -0.030  -2.705  -0.011  0.00  0.00    +0.226 C 
ENDBRANCH  11  13
ENDBRANCH   3  11
ENDBRANCH   1   5
BRANCH   2  14
ATOM     14  N   UNL     1      -2.540   4.098   0.036  0.00  0.00    -0.203 N 
ATOM     15  C   UNL     1      -2.556   5.446   0.044  0.00  0.00    +0.267 C 
ATOM     16  O   UNL     1      -1.510   6.067   0.042  0.00  0.00    -0.268 OA
ATOM     17  H   UNL     1      -3.486   3.537   0.038  0.00  0.00    +0.178 HD
BRANCH  15  18
ATOM     18  C   UNL     1      -3.842   6.168   0.054  0.00  0.00    +0.081 A 
ATOM     19  C   UNL     1      -5.046   5.459   0.050  0.00  0.00    +0.031 A 
ATOM     20  C   UNL     1      -6.245   6.139   0.065  0.00  0.00    +0.014 A 
ATOM     21  C   UNL     1      -6.261   7.525   0.072  0.00  0.00    +0.018 A 
ATOM     22  C   UNL     1      -5.079   8.238   0.071  0.00  0.00    +0.047 A 
ATOM     23  C   UNL     1      -3.864   7.569   0.061  0.00  0.00    +0.129 A 
ATOM     24  I   UNL     1      -8.049   5.074   0.067  0.00  0.00    -0.044 I 
BRANCH  23  25
ATOM     25  O   UNL     1      -2.701   8.268   0.059  0.00  0.00    -0.506 OA
ATOM     26  H   UNL     1      -2.721   9.368   0.065  0.00  0.00    +0.292 HD
ENDBRANCH  23  25
ENDBRANCH  15  18
ENDBRANCH   2  14
TORSDOF 7
