REMARK  Name = ZINC03843601
REMARK  7 active torsions:
REMARK  status: ('A' for Active; 'I' for Inactive)
REMARK    1  A    between atoms: C_1  and  C_2
REMARK    2  A    between atoms: C_2  and  O_4
REMARK    3  A    between atoms: O_4  and  C_5
REMARK    4  A    between atoms: C_9  and  C_30
REMARK    5  A    between atoms: C_14  and  C_29
REMARK    6  A    between atoms: C_25  and  C_26
REMARK    7  A    between atoms: C_25  and  O_28
REMARK                            x       y       z     vdW  Elec       q    Type
REMARK                         _______ _______ _______ _____ _____    ______ ____
ROOT
ATOM      1  C   UNL     1      -1.143   7.984   5.134  0.00  0.00    +0.180 C 
ATOM      2  C   UNL     1      -0.856   7.932   3.635  0.00  0.00    +0.046 C 
ATOM      3  C   UNL     1      -1.781   6.939   2.934  0.00  0.00    +0.015 C 
ATOM      4  C   UNL     1      -1.689   5.565   3.612  0.00  0.00    -0.008 C 
ATOM      5  C   UNL     1      -1.479   4.488   2.572  0.00  0.00    +0.003 C 
ATOM      6  C   UNL     1      -2.174   3.168   2.851  0.00  0.00    +0.005 C 
ATOM      7  C   UNL     1      -2.040   2.222   1.638  0.00  0.00    +0.011 C 
ATOM      8  C   UNL     1      -0.585   1.972   1.353  0.00  0.00    +0.011 C 
ATOM      9  C   UNL     1       0.168   3.304   1.169  0.00  0.00    +0.002 C 
ATOM     10  C   UNL     1       0.024   4.266   2.307  0.00  0.00    +0.000 C 
ATOM     11  C   UNL     1       0.687   3.815   3.604  0.00  0.00    +0.031 C 
ATOM     12  C   UNL     1       0.451   4.873   4.651  0.00  0.00    -0.027 C 
ATOM     13  C   UNL     1      -0.604   5.627   4.654  0.00  0.00    -0.064 C 
ATOM     14  C   UNL     1      -0.758   6.644   5.772  0.00  0.00    +0.075 C 
ATOM     15  C   UNL     1       1.571   2.807   0.793  0.00  0.00    +0.008 C 
ATOM     16  C   UNL     1       1.247   1.658  -0.208  0.00  0.00    +0.049 C 
ATOM     17  C   UNL     1      -0.249   1.301   0.004  0.00  0.00    +0.132 C 
ATOM     18  C   UNL     1       0.018   1.070   2.431  0.00  0.00    +0.015 C 
ATOM     19  C   UNL     1      -3.020   5.340   4.335  0.00  0.00    +0.016 C 
ENDROOT
BRANCH  17  20
ATOM     20  C   UNL     1      -0.421  -0.152   0.114  0.00  0.00    -0.070 C 
ATOM     21  C   UNL     1      -0.558  -1.315   0.203  0.00  0.00    +0.007 C 
ENDBRANCH  17  20
BRANCH  17  22
ATOM     22  O   UNL     1      -1.055   1.843  -1.035  0.00  0.00    -0.376 OA
ATOM     23  H   UNL     1      -0.868   1.476  -1.910  0.00  0.00    +0.211 HD
ENDBRANCH  17  22
BRANCH   1  24
ATOM     24  O   UNL     1      -0.367   9.050   5.741  0.00  0.00    -0.461 OA
BRANCH  24  26
ATOM     25  C   UNL     1      -0.145  10.763   7.505  0.00  0.00    +0.136 C 
ATOM     26  C   UNL     1      -0.893   9.647   6.822  0.00  0.00    +0.304 C 
ATOM     27  O   UNL     1      -1.966   9.290   7.247  0.00  0.00    -0.251 OA
ENDBRANCH  24  26
ENDBRANCH   1  24
TORSDOF 4
