REMARK  Name = ZINC33571424
REMARK  14 active torsions:
REMARK  status: ('A' for Active; 'I' for Inactive)
REMARK    1  A    between atoms: C_1  and  C_2
REMARK    2  A    between atoms: C_2  and  C_3
REMARK    3  A    between atoms: C_3  and  C_4
REMARK    4  A    between atoms: C_4  and  C_5
REMARK    5  A    between atoms: C_5  and  C_6
REMARK    6  A    between atoms: C_7  and  C_23
REMARK    7  A    between atoms: C_8  and  C_20
REMARK    8  A    between atoms: C_9  and  C_19
REMARK    9  A    between atoms: N_10  and  C_11
REMARK   10  A    between atoms: C_11  and  C_12
REMARK   11  A    between atoms: C_12  and  N_13
REMARK   12  A    between atoms: C_24  and  C_36
REMARK   13  A    between atoms: N_25  and  C_35
REMARK   14  A    between atoms: N_26  and  C_29
REMARK                            x       y       z     vdW  Elec       q    Type
REMARK                         _______ _______ _______ _____ _____    ______ ____
ROOT
ATOM      1  C   UNL     1       0.844  -2.317  -1.417  0.00  0.00    +0.028 A 
ATOM      2  C   UNL     1       1.749  -2.978  -0.651  0.00  0.00    +0.022 A 
ATOM      3  C   UNL     1       1.286  -4.375  -0.588  0.00  0.00    +0.065 A 
ATOM      4  C   UNL     1       0.141  -4.429  -1.334  0.00  0.00    +0.028 A 
ATOM      5  N   UNL     1      -0.114  -3.201  -1.822  0.00  0.00    -0.348 N 
ATOM      6  C   UNL     1      -0.697  -5.659  -1.569  0.00  0.00    +0.064 C 
ENDROOT
BRANCH   2   7
ATOM      7  C   UNL     1       2.957  -2.408  -0.006  0.00  0.00    +0.071 A 
ATOM      8  C   UNL     1       3.030  -1.866   1.240  0.00  0.00    +0.046 A 
ATOM      9  N   UNL     1       4.312  -1.456   1.461  0.00  0.00    -0.283 N 
ATOM     10  N   UNL     1       5.092  -1.740   0.334  0.00  0.00    -0.217 N 
ATOM     11  C   UNL     1       4.302  -2.329  -0.587  0.00  0.00    +0.280 A 
ATOM     12  O   UNL     1       4.640  -2.719  -1.690  0.00  0.00    -0.265 OA
ATOM     13  C   UNL     1       4.798  -0.821   2.688  0.00  0.00    +0.171 C 
ATOM     14  C   UNL     1       1.885  -1.738   2.212  0.00  0.00    +0.066 C 
BRANCH  10  15
ATOM     15  C   UNL     1       6.455  -1.465   0.191  0.00  0.00    +0.067 A 
ATOM     16  C   UNL     1       6.924  -0.852  -0.964  0.00  0.00    +0.028 A 
ATOM     17  C   UNL     1       8.271  -0.577  -1.100  0.00  0.00    +0.002 A 
ATOM     18  C   UNL     1       9.154  -0.923  -0.094  0.00  0.00    +0.000 A 
ATOM     19  C   UNL     1       8.691  -1.538   1.055  0.00  0.00    +0.002 A 
ATOM     20  C   UNL     1       7.345  -1.810   1.200  0.00  0.00    +0.028 A 
ENDBRANCH  10  15
ENDBRANCH   2   7
BRANCH   3  21
ATOM     21  C   UNL     1       1.928  -5.488   0.128  0.00  0.00    +0.244 C 
ATOM     22  O   UNL     1       2.763  -6.171  -0.433  0.00  0.00    -0.270 OA
ATOM     23  N   UNL     1       1.591  -5.750   1.406  0.00  0.00    -0.325 N 
ATOM     24  H   UNL     1       2.071  -6.582   1.942  0.00  0.00    +0.145 HD
ATOM     25  H   UNL     1       0.836  -5.132   1.914  0.00  0.00    +0.145 HD
ENDBRANCH   3  21
BRANCH   1  26
ATOM     26  C   UNL     1       0.893  -0.852  -1.766  0.00  0.00    +0.054 C 
BRANCH  26  27
ATOM     27  C   UNL     1       0.129  -0.050  -0.710  0.00  0.00    +0.006 C 
BRANCH  27  28
ATOM     28  C   UNL     1       0.178   1.438  -1.065  0.00  0.00    +0.000 C 
BRANCH  28  30
ATOM     29  C   UNL     1      -0.536   3.727  -0.364  0.00  0.00    +0.004 C 
ATOM     30  C   UNL     1      -0.585   2.239  -0.009  0.00  0.00    -0.003 C 
ENDBRANCH  28  30
ENDBRANCH  27  28
ENDBRANCH  26  27
ENDBRANCH   1  26
BRANCH   5  31
ATOM     31  C   UNL     1      -1.258  -2.861  -2.671  0.00  0.00    +0.103 C 
BRANCH  31  32
ATOM     32  C   UNL     1      -0.877  -3.048  -4.141  0.00  0.00    -0.057 C 
BRANCH  32  33
ATOM     33  N   UNL     1      -2.025  -2.707  -4.992  0.00  0.00    +0.381 N 
ATOM     34  C   UNL     1      -3.130  -3.653  -4.789  0.00  0.00    -0.079 C 
ATOM     35  C   UNL     1      -4.355  -3.185  -5.578  0.00  0.00    -0.019 C 
ATOM     36  C   UNL     1      -3.997  -3.101  -7.064  0.00  0.00    -0.004 C 
ATOM     37  C   UNL     1      -2.812  -2.148  -7.243  0.00  0.00    -0.019 C 
ATOM     38  C   UNL     1      -1.632  -2.645  -6.405  0.00  0.00    -0.079 C 
ATOM     39  H   UNL     1      -2.380  -1.708  -4.699  0.00  0.00    -0.082 HD
ENDBRANCH  32  33
ENDBRANCH  31  32
ENDBRANCH   5  31
TORSDOF 10
