REMARK  Name = ZINC36360344
REMARK  8 active torsions:
REMARK  status: ('A' for Active; 'I' for Inactive)
REMARK    1  A    between atoms: C_1  and  O_2
REMARK    2  A    between atoms: O_2  and  C_3
REMARK    3  A    between atoms: C_6  and  C_13
REMARK    4  A    between atoms: C_7  and  O_11
REMARK    5  A    between atoms: C_8  and  O_9
REMARK    6  A    between atoms: O_9  and  C_10
REMARK    7  A    between atoms: O_11  and  C_12
REMARK    8  A    between atoms: C_16  and  O_29
REMARK                            x       y       z     vdW  Elec       q    Type
REMARK                         _______ _______ _______ _____ _____    ______ ____
ROOT
ATOM      1  C   UNL     1      -4.994  -2.620   0.038  0.00  0.00    +0.072 C 
ATOM      2  C   UNL     1      -5.791  -2.203   1.284  0.00  0.00    +0.109 C 
ATOM      3  C   UNL     1      -7.256  -2.462   1.085  0.00  0.00    +0.190 C 
ATOM      4  N   UNL     1      -7.867  -2.390  -0.048  0.00  0.00    -0.197 NA
ATOM      5  C   UNL     1      -7.155  -2.100  -1.208  0.00  0.00    +0.169 A 
ATOM      6  C   UNL     1      -5.785  -2.214  -1.157  0.00  0.00    +0.045 A 
ATOM      7  S   UNL     1      -5.291  -1.771  -2.795  0.00  0.00    -0.054 S 
ATOM      8  C   UNL     1      -6.936  -1.492  -3.444  0.00  0.00    +0.163 A 
ATOM      9  N   UNL     1      -7.686  -1.742  -2.382  0.00  0.00    -0.206 NA
ATOM     10  N   UNL     1      -7.322  -1.111  -4.719  0.00  0.00    -0.310 N 
ATOM     11  C   UNL     1      -6.319  -0.882  -5.768  0.00  0.00    +0.107 C 
ATOM     12  C   UNL     1      -6.681  -1.732  -6.989  0.00  0.00    +0.019 C 
ATOM     13  C   UNL     1      -8.118  -1.421  -7.415  0.00  0.00    +0.003 C 
ATOM     14  C   UNL     1      -9.077  -1.778  -6.277  0.00  0.00    +0.019 C 
ATOM     15  C   UNL     1      -8.743  -0.935  -5.049  0.00  0.00    +0.107 C 
ENDROOT
BRANCH   1  19
ATOM     16  C   UNL     1      -1.201  -0.638   0.010  0.00  0.00    +0.165 A 
ATOM     17  C   UNL     1      -2.375   0.101   0.019  0.00  0.00    +0.050 A 
ATOM     18  C   UNL     1      -3.598  -0.543   0.028  0.00  0.00    +0.011 A 
ATOM     19  C   UNL     1      -3.657  -1.924   0.028  0.00  0.00    +0.007 A 
ATOM     20  C   UNL     1      -2.488  -2.670   0.018  0.00  0.00    +0.169 A 
ATOM     21  C   UNL     1      -1.256  -2.026   0.003  0.00  0.00    +0.204 A 
BRANCH  16  23
ATOM     22  C   UNL     1      -0.017   1.425   0.010  0.00  0.00    +0.277 C 
ATOM     23  O   UNL     1       0.002  -0.004   0.002  0.00  0.00    -0.491 OA
ENDBRANCH  16  23
BRANCH  21  24
ATOM     24  O   UNL     1      -0.106  -2.755  -0.012  0.00  0.00    -0.488 OA
ATOM     25  C   UNL     1       0.454  -3.109   1.254  0.00  0.00    +0.277 C 
ENDBRANCH  21  24
BRANCH  20  26
ATOM     26  O   UNL     1      -2.547  -4.028   0.018  0.00  0.00    -0.491 OA
ATOM     27  C   UNL     1      -2.586  -4.676  -1.255  0.00  0.00    +0.277 C 
ENDBRANCH  20  26
ENDBRANCH   1  19
BRANCH   3  28
ATOM     28  O   UNL     1      -7.986  -2.796   2.171  0.00  0.00    -0.495 OA
ATOM     29  H   UNL     1      -8.922  -2.951   1.983  0.00  0.00    +0.293 HD
ENDBRANCH   3  28
TORSDOF 5
