REMARK  Name = ZINC39519884
REMARK  10 active torsions:
REMARK  status: ('A' for Active; 'I' for Inactive)
REMARK    1  A    between atoms: C_1  and  C_2
REMARK    2  A    between atoms: C_2  and  O_3
REMARK    3  A    between atoms: O_3  and  C_4
REMARK    4  A    between atoms: C_4  and  C_6
REMARK    5  A    between atoms: C_7  and  C_19
REMARK    6  A    between atoms: C_12  and  C_14
REMARK    7  A    between atoms: C_19  and  N_20
REMARK    8  A    between atoms: N_23  and  C_26
REMARK    9  A    between atoms: C_26  and  C_27
REMARK   10  A    between atoms: C_29  and  C_32
REMARK                            x       y       z     vdW  Elec       q    Type
REMARK                         _______ _______ _______ _____ _____    ______ ____
ROOT
ATOM      1  C   UNL     1       0.892  -2.500  -2.898  0.00  0.00    +0.082 C 
ATOM      2  C   UNL     1       1.595  -3.612  -2.594  0.00  0.00    +0.038 C 
ATOM      3  N   UNL     1       2.743  -3.925  -3.264  0.00  0.00    -0.271 N 
ATOM      4  C   UNL     1       3.255  -3.178  -4.250  0.00  0.00    +0.304 C 
ATOM      5  O   UNL     1       4.284  -3.539  -4.788  0.00  0.00    -0.252 OA
ATOM      6  N   UNL     1       2.666  -2.039  -4.667  0.00  0.00    -0.285 N 
ATOM      7  C   UNL     1       1.417  -1.616  -4.011  0.00  0.00    +0.179 C 
ATOM      8  H   UNL     1       3.215  -4.734  -3.011  0.00  0.00    +0.156 HD
ATOM      9  H   UNL     1       3.054  -1.513  -5.383  0.00  0.00    +0.151 HD
ENDROOT
BRANCH   7  10
ATOM     10  C   UNL     1       1.640  -0.238  -3.444  0.00  0.00    +0.130 A 
ATOM     11  C   UNL     1       0.806   0.810  -3.573  0.00  0.00    +0.047 A 
ATOM     12  C   UNL     1       1.403   1.895  -2.890  0.00  0.00    +0.041 A 
ATOM     13  C   UNL     1       2.566   1.445  -2.385  0.00  0.00    +0.195 A 
ATOM     14  O   UNL     1       2.701   0.151  -2.718  0.00  0.00    -0.466 OA
ENDBRANCH   7  10
BRANCH   1  15
ATOM     15  C   UNL     1      -0.298  -2.175  -2.206  0.00  0.00    +0.339 C 
ATOM     16  O   UNL     1      -0.766  -2.958  -1.400  0.00  0.00    -0.245 OA
BRANCH  15  17
ATOM     17  O   UNL     1      -0.913  -0.997  -2.438  0.00  0.00    -0.462 OA
BRANCH  17  19
ATOM     18  C   UNL     1      -2.660   0.638  -2.097  0.00  0.00    +0.048 C 
ATOM     19  C   UNL     1      -2.110  -0.734  -1.703  0.00  0.00    +0.229 C 
ENDBRANCH  17  19
ENDBRANCH  15  17
ENDBRANCH   1  15
BRANCH   2  20
ATOM     20  C   UNL     1       1.105  -4.522  -1.498  0.00  0.00    +0.135 C 
BRANCH  20  21
ATOM     21  N   UNL     1       0.120  -5.464  -2.046  0.00  0.00    -0.300 NA
ATOM     22  C   UNL     1       0.770  -6.468  -2.901  0.00  0.00    +0.066 C 
ATOM     23  C   UNL     1      -0.294  -7.391  -3.498  0.00  0.00    -0.063 C 
ATOM     24  N   UNL     1      -1.034  -8.051  -2.415  0.00  0.00    +0.385 N 
ATOM     25  C   UNL     1      -1.698  -7.037  -1.585  0.00  0.00    -0.063 C 
ATOM     26  C   UNL     1      -0.645  -6.111  -0.971  0.00  0.00    +0.066 C 
ATOM     27  H   UNL     1      -0.393  -8.584  -1.847  0.00  0.00    -0.081 HD
BRANCH  24  28
ATOM     28  C   UNL     1      -2.043  -8.950  -2.989  0.00  0.00    -0.019 C 
BRANCH  28  29
ATOM     29  C   UNL     1      -2.719  -9.719  -1.883  0.00  0.00    +0.067 A 
ATOM     30  C   UNL     1      -3.929  -9.372  -1.256  0.00  0.00    +0.068 A 
ATOM     31  C   UNL     1      -4.200 -10.304  -0.322  0.00  0.00    +0.134 A 
ATOM     32  O   UNL     1      -3.211 -11.211  -0.344  0.00  0.00    -0.360 OA
ATOM     33  N   UNL     1      -2.287 -10.824  -1.344  0.00  0.00    -0.085 NA
ATOM     34  C   UNL     1      -5.401 -10.324   0.588  0.00  0.00    +0.089 C 
ENDBRANCH  28  29
ENDBRANCH  24  28
ENDBRANCH  20  21
ENDBRANCH   2  20
TORSDOF 8
