REMARK  Name = ZINC21260441
REMARK  9 active torsions:
REMARK  status: ('A' for Active; 'I' for Inactive)
REMARK    1  A    between atoms: C_1  and  C_2
REMARK    2  A    between atoms: C_5  and  C_8
REMARK    3  A    between atoms: C_13  and  C_18
REMARK    4  A    between atoms: C_21  and  O_26
REMARK    5  A    between atoms: C_22  and  O_24
REMARK    6  A    between atoms: O_24  and  C_25
REMARK    7  A    between atoms: O_26  and  C_27
REMARK    8  A    between atoms: C_27  and  C_28
REMARK    9  A    between atoms: C_27  and  C_29
REMARK                            x       y       z     vdW  Elec       q    Type
REMARK                         _______ _______ _______ _____ _____    ______ ____
ROOT
ATOM      1  C   UNL     1       3.727  -0.697  -0.035  0.00  0.00    +0.136 C 
ATOM      2  C   UNL     1       4.189  -0.814  -1.468  0.00  0.00    +0.036 C 
ATOM      3  C   UNL     1       5.223  -0.155  -2.019  0.00  0.00    +0.017 C 
ATOM      4  C   UNL     1       5.586  -0.373  -3.478  0.00  0.00    +0.059 C 
ATOM      5  C   UNL     1       4.330  -0.687  -4.289  0.00  0.00    +0.032 C 
ATOM      6  C   UNL     1       3.698  -1.953  -3.699  0.00  0.00    +0.088 C 
ATOM      7  C   UNL     1       3.420  -1.712  -2.245  0.00  0.00    +0.163 C 
ATOM      8  O   UNL     1       2.503  -2.310  -1.716  0.00  0.00    -0.292 OA
ATOM      9  N   UNL     1       6.022   0.720  -1.359  0.00  0.00    -0.316 N 
ATOM     10  C   UNL     1       5.571   1.736  -0.524  0.00  0.00    +0.052 A 
ATOM     11  C   UNL     1       5.755   3.075  -0.820  0.00  0.00    +0.025 A 
ATOM     12  C   UNL     1       5.322   4.035   0.079  0.00  0.00    +0.002 A 
ATOM     13  C   UNL     1       4.714   3.658   1.263  0.00  0.00    +0.002 A 
ATOM     14  C   UNL     1       4.513   2.320   1.552  0.00  0.00    +0.025 A 
ATOM     15  C   UNL     1       4.925   1.358   0.644  0.00  0.00    +0.049 A 
ATOM     16  N   UNL     1       4.643   0.006   0.837  0.00  0.00    -0.331 N 
ATOM     17  H   UNL     1       7.115   0.655  -1.464  0.00  0.00    +0.152 HD
ATOM     18  H   UNL     1       5.130  -0.527   1.668  0.00  0.00    +0.147 HD
ENDROOT
BRANCH   1  23
ATOM     19  C   UNL     1      -1.347   2.070   0.026  0.00  0.00    +0.044 C 
ATOM     20  C   UNL     1      -0.023   1.350   0.015  0.00  0.00    -0.050 A 
ATOM     21  C   UNL     1       1.115   2.002  -0.423  0.00  0.00    +0.004 A 
ATOM     22  C   UNL     1       2.328   1.339  -0.441  0.00  0.00    +0.006 A 
ATOM     23  C   UNL     1       2.404   0.025  -0.018  0.00  0.00    -0.023 A 
ATOM     24  C   UNL     1       1.266  -0.627   0.421  0.00  0.00    +0.006 A 
ATOM     25  C   UNL     1       0.053   0.036   0.437  0.00  0.00    +0.004 A 
ENDBRANCH   1  23
BRANCH   5  26
ATOM     26  C   UNL     1       4.699  -0.925  -5.731  0.00  0.00    -0.040 A 
ATOM     27  C   UNL     1       5.596  -1.924  -6.057  0.00  0.00    +0.008 A 
ATOM     28  C   UNL     1       5.938  -2.146  -7.378  0.00  0.00    +0.050 A 
ATOM     29  C   UNL     1       5.380  -1.367  -8.379  0.00  0.00    +0.162 A 
ATOM     30  C   UNL     1       4.476  -0.361  -8.050  0.00  0.00    +0.162 A 
ATOM     31  C   UNL     1       4.134  -0.146  -6.724  0.00  0.00    +0.053 A 
BRANCH  30  32
ATOM     32  O   UNL     1       3.926   0.407  -9.028  0.00  0.00    -0.491 OA
ATOM     33  C   UNL     1       3.006   1.421  -8.617  0.00  0.00    +0.277 C 
ENDBRANCH  30  32
BRANCH  29  34
ATOM     34  O   UNL     1       5.714  -1.584  -9.679  0.00  0.00    -0.486 OA
BRANCH  34  35
ATOM     35  C   UNL     1       6.550  -2.710  -9.954  0.00  0.00    +0.167 C 
ATOM     36  C   UNL     1       6.326  -3.171 -11.396  0.00  0.00    +0.051 C 
ATOM     37  C   UNL     1       8.016  -2.316  -9.766  0.00  0.00    +0.051 C 
ENDBRANCH  34  35
ENDBRANCH  29  34
ENDBRANCH   5  26
TORSDOF 5
