REMARK  Name = ZINC16645991
REMARK  8 active torsions:
REMARK  status: ('A' for Active; 'I' for Inactive)
REMARK    1  A    between atoms: C_1  and  C_2
REMARK    2  A    between atoms: C_10  and  C_11
REMARK    3  A    between atoms: N_13  and  C_14
REMARK    4  A    between atoms: C_14  and  C_16
REMARK    5  A    between atoms: C_14  and  C_20
REMARK    6  A    between atoms: C_16  and  C_17
REMARK    7  A    between atoms: C_17  and  S_18
REMARK    8  A    between atoms: S_18  and  C_19
REMARK                            x       y       z     vdW  Elec       q    Type
REMARK                         _______ _______ _______ _____ _____    ______ ____
ROOT
ATOM      1  C   UNL     1       3.787   8.784   0.012  0.00  0.00    +0.140 C 
ENDROOT
BRANCH   1   2
ATOM      2  C   UNL     1       3.213  10.036   0.624  0.00  0.00    +0.129 A 
ATOM      3  N   UNL     1       1.980  10.133   1.190  0.00  0.00    -0.340 N 
ATOM      4  H   UNL     1       1.306   9.399   1.272  0.00  0.00    +0.167 HD
ATOM      5  C   UNL     1       1.832  11.433   1.631  0.00  0.00    +0.066 A 
ATOM      6  C   UNL     1       0.815  12.125   2.275  0.00  0.00    +0.028 A 
ATOM      7  C   UNL     1       0.987  13.457   2.587  0.00  0.00    +0.002 A 
ATOM      8  C   UNL     1       2.167  14.109   2.260  0.00  0.00    +0.002 A 
ATOM      9  C   UNL     1       3.178  13.444   1.626  0.00  0.00    +0.030 A 
ATOM     10  C   UNL     1       3.027  12.093   1.301  0.00  0.00    +0.089 A 
ATOM     11  N   UNL     1       3.828  11.181   0.693  0.00  0.00    -0.231 NA
ENDBRANCH   1   2
BRANCH   1  14
ATOM     12  C   UNL     1       3.143   6.434   0.006  0.00  0.00    +0.252 C 
ATOM     13  O   UNL     1       4.323   6.141  -0.006  0.00  0.00    -0.270 OA
ATOM     14  N   UNL     1       2.770   7.729   0.015  0.00  0.00    -0.301 N 
ATOM     15  H   UNL     1       1.829   7.963   0.025  0.00  0.00    +0.150 HD
BRANCH  12  25
ATOM     16  C   UNL     1       3.692   3.451  -0.016  0.00  0.00    +0.046 C 
ATOM     17  C   UNL     1       2.300   4.028   0.001  0.00  0.00    -0.024 A 
ATOM     18  C   UNL     1       1.183   3.173   0.007  0.00  0.00    -0.007 A 
ATOM     19  C   UNL     1       1.164   1.754   0.000  0.00  0.00    +0.009 A 
ATOM     20  C   UNL     1      -0.013   1.076   0.008  0.00  0.00    +0.001 A 
ATOM     21  C   UNL     1      -1.235   1.737   0.017  0.00  0.00    +0.001 A 
ATOM     22  C   UNL     1      -1.262   3.117   0.029  0.00  0.00    +0.015 A 
ATOM     23  C   UNL     1      -0.075   3.819   0.022  0.00  0.00    +0.020 A 
ATOM     24  S   UNL     1       0.346   5.544   0.027  0.00  0.00    -0.083 S 
ATOM     25  C   UNL     1       2.123   5.376   0.009  0.00  0.00    +0.078 A 
ENDBRANCH  12  25
ENDBRANCH   1  14
BRANCH   1  26
ATOM     26  C   UNL     1       4.218   9.072  -1.427  0.00  0.00    +0.041 C 
BRANCH  26  27
ATOM     27  C   UNL     1       4.913   7.838  -2.007  0.00  0.00    +0.071 C 
BRANCH  27  28
ATOM     28  S   UNL     1       5.425   8.178  -3.714  0.00  0.00    -0.164 S 
ATOM     29  C   UNL     1       6.221   6.639  -4.249  0.00  0.00    +0.084 C 
ENDBRANCH  27  28
ENDBRANCH  26  27
ENDBRANCH   1  26
TORSDOF 6
