REMARK  Name = ZINC33935988
REMARK  13 active torsions:
REMARK  status: ('A' for Active; 'I' for Inactive)
REMARK    1  A    between atoms: C_1  and  C_2
REMARK    2  A    between atoms: C_2  and  C_3
REMARK    3  A    between atoms: C_3  and  O_33
REMARK    4  A    between atoms: C_4  and  C_32
REMARK    5  A    between atoms: C_6  and  C_23
REMARK    6  A    between atoms: C_9  and  C_14
REMARK    7  A    between atoms: C_11  and  C_13
REMARK    8  A    between atoms: C_17  and  N_20
REMARK    9  A    between atoms: N_20  and  C_21
REMARK   10  A    between atoms: N_20  and  C_22
REMARK   11  A    between atoms: C_26  and  N_29
REMARK   12  A    between atoms: N_29  and  C_30
REMARK   13  A    between atoms: N_29  and  C_31
REMARK                            x       y       z     vdW  Elec       q    Type
REMARK                         _______ _______ _______ _____ _____    ______ ____
ROOT
ATOM      1  C   UNL     1      -1.402  -0.631  -0.062  0.00  0.00    +0.069 C 
ATOM      2  C   UNL     1      -2.124  -0.104  -1.291  0.00  0.00    +0.008 C 
ATOM      3  C   UNL     1      -1.762  -0.856  -2.563  0.00  0.00    -0.034 C 
ATOM      4  N   UNL     1      -1.914  -2.302  -2.381  0.00  0.00    +0.389 N 
ATOM      5  C   UNL     1      -0.966  -2.764  -1.365  0.00  0.00    -0.034 C 
ATOM      6  C   UNL     1      -1.272  -2.144  -0.009  0.00  0.00    +0.008 C 
ATOM      7  C   UNL     1      -2.519  -2.783   0.604  0.00  0.00    +0.009 C 
ATOM      8  C   UNL     1      -3.639  -0.101  -1.081  0.00  0.00    +0.009 C 
ATOM      9  H   UNL     1      -2.856  -2.533  -2.124  0.00  0.00    -0.084 HD
ATOM     10  H   UNL     1      -1.702  -2.765  -3.260  0.00  0.00    -0.084 HD
ENDROOT
BRANCH   5  11
ATOM     11  C   UNL     1      -1.046  -4.265  -1.261  0.00  0.00    -0.061 A 
ATOM     12  C   UNL     1      -2.273  -4.897  -1.331  0.00  0.00    +0.004 A 
ATOM     13  C   UNL     1      -2.350  -6.273  -1.236  0.00  0.00    +0.023 A 
ATOM     14  C   UNL     1      -1.192  -7.022  -1.070  0.00  0.00    +0.029 A 
ATOM     15  C   UNL     1       0.040  -6.383  -0.999  0.00  0.00    +0.023 A 
ATOM     16  C   UNL     1       0.110  -5.008  -1.101  0.00  0.00    +0.004 A 
BRANCH  14  17
ATOM     17  N   UNL     1      -1.266  -8.413  -0.973  0.00  0.00    -0.336 N 
ATOM     18  C   UNL     1      -2.566  -9.084  -1.047  0.00  0.00    +0.129 C 
ATOM     19  C   UNL     1      -0.044  -9.201  -0.797  0.00  0.00    +0.129 C 
ENDBRANCH  14  17
ENDBRANCH   5  11
BRANCH   3  20
ATOM     20  C   UNL     1      -2.658  -0.403  -3.687  0.00  0.00    -0.061 A 
ATOM     21  C   UNL     1      -3.943  -0.904  -3.790  0.00  0.00    +0.004 A 
ATOM     22  C   UNL     1      -4.767  -0.491  -4.819  0.00  0.00    +0.023 A 
ATOM     23  C   UNL     1      -4.303   0.430  -5.750  0.00  0.00    +0.029 A 
ATOM     24  C   UNL     1      -3.012   0.931  -5.644  0.00  0.00    +0.023 A 
ATOM     25  C   UNL     1      -2.196   0.518  -4.610  0.00  0.00    +0.004 A 
BRANCH  23  26
ATOM     26  N   UNL     1      -5.133   0.850  -6.792  0.00  0.00    -0.336 N 
ATOM     27  C   UNL     1      -6.495   0.319  -6.903  0.00  0.00    +0.129 C 
ATOM     28  C   UNL     1      -4.643   1.820  -7.774  0.00  0.00    +0.129 C 
ENDBRANCH  23  26
ENDBRANCH   3  20
BRANCH   1  30
ATOM     29  C   UNL     1       0.663  -0.369   1.332  0.00  0.00    +0.007 C 
ATOM     30  C   UNL     1       0.002  -0.004   0.002  0.00  0.00    +0.032 C 
ENDBRANCH   1  30
BRANCH   1  31
ATOM     31  O   UNL     1      -2.121  -0.196   1.109  0.00  0.00    -0.388 OA
ATOM     32  H   UNL     1      -2.219   0.764   1.176  0.00  0.00    +0.210 HD
ENDBRANCH   1  31
TORSDOF 6
