REMARK  Name = ZINC23362818
REMARK  9 active torsions:
REMARK  status: ('A' for Active; 'I' for Inactive)
REMARK    1  A    between atoms: C_1  and  C_2
REMARK    2  A    between atoms: C_2  and  C_3
REMARK    3  A    between atoms: C_3  and  N_4
REMARK    4  A    between atoms: C_7  and  N_10
REMARK    5  A    between atoms: C_12  and  N_22
REMARK    6  A    between atoms: C_15  and  C_17
REMARK    7  A    between atoms: N_19  and  C_20
REMARK    8  A    between atoms: C_20  and  C_21
REMARK    9  A    between atoms: N_22  and  C_23
REMARK                            x       y       z     vdW  Elec       q    Type
REMARK                         _______ _______ _______ _____ _____    ______ ____
ROOT
ATOM      1  N   UNL     1       0.285  -6.020  -2.342  0.00  0.00    -0.290 NA
ATOM      2  C   UNL     1       0.998  -6.423  -1.116  0.00  0.00    +0.070 C 
ATOM      3  C   UNL     1       2.180  -7.316  -1.548  0.00  0.00    -0.055 C 
ATOM      4  C   UNL     1       1.738  -7.832  -2.942  0.00  0.00    +0.014 C 
ATOM      5  C   UNL     1       0.985  -6.601  -3.507  0.00  0.00    +0.142 C 
ENDROOT
BRANCH   1   9
ATOM      6  N   UNL     1       0.738  -1.966  -1.265  0.00  0.00    +0.380 N 
ATOM      7  C   UNL     1      -0.636  -2.472  -1.366  0.00  0.00    -0.077 C 
ATOM      8  C   UNL     1      -0.627  -4.001  -1.293  0.00  0.00    +0.000 C 
ATOM      9  C   UNL     1       0.209  -4.557  -2.449  0.00  0.00    +0.054 C 
ATOM     10  C   UNL     1       1.620  -3.964  -2.376  0.00  0.00    +0.000 C 
ATOM     11  C   UNL     1       1.528  -2.437  -2.409  0.00  0.00    -0.077 C 
ATOM     12  H   UNL     1       1.155  -2.301  -0.409  0.00  0.00    -0.082 HD
BRANCH   6  13
ATOM     13  C   UNL     1       0.718  -0.497  -1.257  0.00  0.00    -0.079 C 
BRANCH  13  15
ATOM     14  C   UNL     1      -0.019   1.526   0.010  0.00  0.00    +0.002 C 
ATOM     15  C   UNL     1       0.002  -0.004   0.002  0.00  0.00    -0.022 C 
ENDBRANCH  13  15
ENDBRANCH   6  13
ENDBRANCH   1   9
BRANCH   5  16
ATOM     16  C   UNL     1      -0.009  -7.029  -4.556  0.00  0.00    +0.230 C 
ATOM     17  O   UNL     1      -1.196  -6.872  -4.367  0.00  0.00    -0.274 OA
ATOM     18  N   UNL     1       0.422  -7.587  -5.704  0.00  0.00    -0.314 N 
ATOM     19  H   UNL     1       1.372  -7.713  -5.856  0.00  0.00    +0.149 HD
BRANCH  18  20
ATOM     20  C   UNL     1      -0.543  -8.004  -6.724  0.00  0.00    +0.101 C 
ATOM     21  C   UNL     1       0.202  -8.602  -7.919  0.00  0.00    +0.024 C 
ENDBRANCH  18  20
ENDBRANCH   5  16
BRANCH   3  22
ATOM     22  N   UNL     1       2.358  -8.432  -0.610  0.00  0.00    +0.384 N 
ATOM     23  H   UNL     1       1.486  -8.929  -0.508  0.00  0.00    -0.085 HD
ATOM     24  H   UNL     1       3.063  -9.061  -0.965  0.00  0.00    -0.085 HD
BRANCH  22  25
ATOM     25  C   UNL     1       2.780  -7.911   0.697  0.00  0.00    -0.065 C 
ATOM     26  C   UNL     1       4.162  -7.267   0.568  0.00  0.00    -0.024 C 
ATOM     27  C   UNL     1       4.601  -6.724   1.929  0.00  0.00    +0.005 C 
ATOM     28  C   UNL     1       4.666  -7.871   2.939  0.00  0.00    -0.010 C 
ATOM     29  C   UNL     1       5.673  -8.918   2.458  0.00  0.00    +0.007 C 
ATOM     30  C   UNL     1       5.234  -9.461   1.097  0.00  0.00    -0.010 C 
ATOM     31  C   UNL     1       5.169  -8.314   0.087  0.00  0.00    +0.005 C 
ATOM     32  C   UNL     1       3.852 -10.105   1.227  0.00  0.00    +0.005 C 
ATOM     33  C   UNL     1       2.845  -9.058   1.707  0.00  0.00    -0.024 C 
ATOM     34  C   UNL     1       3.284  -8.515   3.069  0.00  0.00    +0.005 C 
ENDBRANCH  22  25
ENDBRANCH   3  22
TORSDOF 7
