REMARK  Name = ZINC63577502
REMARK  5 active torsions:
REMARK  status: ('A' for Active; 'I' for Inactive)
REMARK    1  A    between atoms: C_1  and  C_2
REMARK    2  A    between atoms: C_2  and  C_3
REMARK    3  A    between atoms: C_6  and  N_9
REMARK    4  A    between atoms: C_25  and  C_30
REMARK    5  A    between atoms: C_33  and  C_36
REMARK                            x       y       z     vdW  Elec       q    Type
REMARK                         _______ _______ _______ _____ _____    ______ ____
ROOT
ATOM      1  N   UNL     1       3.255  -2.155  -4.615  0.00  0.00    -0.220 N 
ATOM      2  C   UNL     1       4.531  -2.496  -4.890  0.00  0.00    +0.246 C 
ATOM      3  O   UNL     1       5.468  -2.507  -4.120  0.00  0.00    -0.273 OA
ATOM      4  C   UNL     1       4.549  -2.863  -6.358  0.00  0.00    +0.167 C 
ATOM      5  C   UNL     1       5.036  -4.313  -6.531  0.00  0.00    +0.065 C 
ATOM      6  C   UNL     1       4.484  -4.792  -7.853  0.00  0.00    -0.034 C 
ATOM      7  C   UNL     1       5.099  -5.317  -8.908  0.00  0.00    -0.001 A 
ATOM      8  C   UNL     1       6.500  -5.707  -9.129  0.00  0.00    +0.010 A 
ATOM      9  C   UNL     1       6.796  -6.206 -10.359  0.00  0.00    +0.001 A 
ATOM     10  C   UNL     1       5.849  -6.354 -11.377  0.00  0.00    +0.002 A 
ATOM     11  C   UNL     1       4.537  -6.029 -11.258  0.00  0.00    +0.026 A 
ATOM     12  C   UNL     1       4.103  -5.500 -10.007  0.00  0.00    +0.043 A 
ATOM     13  N   UNL     1       2.921  -5.128  -9.616  0.00  0.00    -0.375 N 
ATOM     14  C   UNL     1       3.006  -4.717  -8.213  0.00  0.00    +0.131 C 
ATOM     15  C   UNL     1       2.575  -3.255  -8.026  0.00  0.00    +0.132 C 
ATOM     16  N   UNL     1       3.125  -2.788  -6.743  0.00  0.00    -0.291 N 
ATOM     17  C   UNL     1       2.463  -2.300  -5.687  0.00  0.00    +0.148 C 
ATOM     18  S   UNL     1       0.797  -1.904  -5.704  0.00  0.00    -0.018 S 
ATOM     19  H   UNL     1       2.118  -5.123 -10.161  0.00  0.00    +0.160 HD
ENDROOT
BRANCH  15  20
ATOM     20  C   UNL     1       3.129  -2.408  -9.143  0.00  0.00    -0.025 A 
ATOM     21  C   UNL     1       2.273  -1.828 -10.061  0.00  0.00    +0.006 A 
ATOM     22  C   UNL     1       2.781  -1.051 -11.085  0.00  0.00    +0.004 A 
ATOM     23  C   UNL     1       4.145  -0.853 -11.191  0.00  0.00    -0.050 A 
ATOM     24  C   UNL     1       5.001  -1.432 -10.273  0.00  0.00    +0.004 A 
ATOM     25  C   UNL     1       4.492  -2.206  -9.246  0.00  0.00    +0.006 A 
ATOM     26  C   UNL     1       4.699  -0.007 -12.308  0.00  0.00    +0.044 C 
ENDBRANCH  15  20
BRANCH   1  30
ATOM     27  C   UNL     1       1.936  -0.832  -0.889  0.00  0.00    -0.048 A 
ATOM     28  C   UNL     1       1.517  -2.058  -1.374  0.00  0.00    +0.005 A 
ATOM     29  C   UNL     1       1.952  -2.499  -2.608  0.00  0.00    +0.024 A 
ATOM     30  C   UNL     1       2.811  -1.710  -3.362  0.00  0.00    +0.043 A 
ATOM     31  C   UNL     1       3.229  -0.480  -2.873  0.00  0.00    +0.024 A 
ATOM     32  C   UNL     1       2.787  -0.042  -1.640  0.00  0.00    +0.005 A 
BRANCH  27  34
ATOM     33  C   UNL     1       0.161   0.438   0.288  0.00  0.00    +0.009 C 
ATOM     34  C   UNL     1       1.459  -0.354   0.458  0.00  0.00    +0.032 C 
ENDBRANCH  27  34
ENDBRANCH   1  30
TORSDOF 3
