REMARK  Name = ZINC35560090
REMARK  7 active torsions:
REMARK  status: ('A' for Active; 'I' for Inactive)
REMARK    1  A    between atoms: C_1  and  C_2
REMARK    2  A    between atoms: C_2  and  N_3
REMARK    3  A    between atoms: N_3  and  C_4
REMARK    4  A    between atoms: C_4  and  C_6
REMARK    5  A    between atoms: C_4  and  C_16
REMARK    6  A    between atoms: C_10  and  O_12
REMARK    7  A    between atoms: O_12  and  C_13
REMARK                            x       y       z     vdW  Elec       q    Type
REMARK                         _______ _______ _______ _____ _____    ______ ____
ROOT
ATOM      1  C   UNL     1      -1.356  -1.981   0.004  0.00  0.00    -0.008 C 
ENDROOT
BRANCH   1   2
ATOM      2  C   UNL     1      -0.737  -2.482   1.284  0.00  0.00    -0.035 A 
ATOM      3  C   UNL     1      -0.765  -1.707   2.428  0.00  0.00    +0.026 A 
ATOM      4  C   UNL     1      -0.199  -2.188   3.562  0.00  0.00    +0.056 A 
ATOM      5  S   UNL     1       0.402  -3.782   3.028  0.00  0.00    -0.074 S 
ATOM      6  C   UNL     1      -0.147  -3.703   1.331  0.00  0.00    +0.058 A 
ATOM      7 BR   UNL     1       0.045  -4.987  -0.044  0.00  0.00    -0.042 Br
ATOM      8 BR   UNL     1      -0.076  -1.380   5.267  0.00  0.00    -0.043 Br
ENDBRANCH   1   2
BRANCH   1   9
ATOM      9  C   UNL     1      -2.766  -2.502  -0.109  0.00  0.00    -0.054 A 
ATOM     10  C   UNL     1      -3.789  -1.881   0.584  0.00  0.00    +0.002 A 
ATOM     11  C   UNL     1      -5.083  -2.357   0.482  0.00  0.00    +0.004 A 
ATOM     12  C   UNL     1      -5.357  -3.454  -0.312  0.00  0.00    +0.046 A 
ATOM     13  C   UNL     1      -4.332  -4.079  -1.007  0.00  0.00    +0.127 A 
ATOM     14  C   UNL     1      -3.035  -3.596  -0.908  0.00  0.00    +0.048 A 
BRANCH  13  15
ATOM     15  O   UNL     1      -4.599  -5.158  -1.789  0.00  0.00    -0.434 OA
BRANCH  15  16
ATOM     16  C   UNL     1      -5.958  -5.596  -1.848  0.00  0.00    +0.541 C 
ATOM     17  F   UNL     1      -6.391  -5.945  -0.564  0.00  0.00    -0.166 F 
ATOM     18  F   UNL     1      -6.760  -4.564  -2.347  0.00  0.00    -0.166 F 
ENDBRANCH  15  16
ENDBRANCH  13  15
ENDBRANCH   1   9
BRANCH   1  19
ATOM     19  N   UNL     1      -1.376  -0.512   0.012  0.00  0.00    +0.386 N 
ATOM     20  H   UNL     1      -1.848  -0.187   0.843  0.00  0.00    -0.085 HD
ATOM     21  H   UNL     1      -1.864  -0.178  -0.805  0.00  0.00    -0.085 HD
BRANCH  19  23
ATOM     22  C   UNL     1      -0.019   1.526   0.010  0.00  0.00    -0.017 C 
ATOM     23  C   UNL     1       0.002  -0.004   0.002  0.00  0.00    -0.085 C 
ENDBRANCH  19  23
ENDBRANCH   1  19
TORSDOF 6
