REMARK  Name = ZINC30944198
REMARK  6 active torsions:
REMARK  status: ('A' for Active; 'I' for Inactive)
REMARK    1  A    between atoms: C_4  and  C_7
REMARK    2  A    between atoms: C_7  and  C_8
REMARK    3  A    between atoms: C_7  and  N_14
REMARK    4  A    between atoms: C_15  and  C_17
REMARK    5  A    between atoms: N_22  and  C_24
REMARK    6  A    between atoms: C_24  and  C_25
REMARK                            x       y       z     vdW  Elec       q    Type
REMARK                         _______ _______ _______ _____ _____    ______ ____
ROOT
ATOM      1  N   UNL     1      -1.191   1.867   0.018  0.00  0.00    -0.304 N 
ATOM      2  C   UNL     1      -0.014   1.209   0.009  0.00  0.00    +0.215 C 
ATOM      3  O   UNL     1       0.002  -0.004   0.002  0.00  0.00    -0.276 OA
ATOM      4  H   UNL     1      -1.206   2.966   0.024  0.00  0.00    +0.150 HD
ENDROOT
BRANCH   2   5
ATOM      5  C   UNL     1       1.280   1.980   0.001  0.00  0.00    +0.058 C 
ATOM      6  C   UNL     1       1.362   2.855   1.254  0.00  0.00    +0.009 C 
ATOM      7  C   UNL     1       2.706   3.589   1.268  0.00  0.00    -0.018 C 
ATOM      8  C   UNL     1       3.842   2.564   1.220  0.00  0.00    -0.078 C 
ATOM      9  N   UNL     1       3.719   1.753   0.002  0.00  0.00    +0.383 N 
ATOM     10  C   UNL     1       2.458   1.002  -0.011  0.00  0.00    -0.066 C 
ATOM     11  H   UNL     1       3.711   2.438  -0.858  0.00  0.00    -0.081 HD
BRANCH   9  12
ATOM     12  C   UNL     1       4.870   0.852  -0.148  0.00  0.00    -0.043 C 
BRANCH  12  13
ATOM     13  C   UNL     1       6.117   1.664  -0.382  0.00  0.00    -0.064 A 
ATOM     14  C   UNL     1       6.501   1.984  -1.671  0.00  0.00    +0.003 A 
ATOM     15  C   UNL     1       7.643   2.734  -1.886  0.00  0.00    +0.015 A 
ATOM     16  C   UNL     1       8.406   3.154  -0.812  0.00  0.00    +0.018 A 
ATOM     17  C   UNL     1       8.025   2.829   0.477  0.00  0.00    +0.015 A 
ATOM     18  C   UNL     1       6.880   2.084   0.691  0.00  0.00    +0.003 A 
ATOM     19 BR   UNL     1       9.972   4.174  -1.106  0.00  0.00    -0.050 Br
ENDBRANCH  12  13
ENDBRANCH   9  12
ENDBRANCH   2   5
BRANCH   1  20
ATOM     20  C   UNL     1      -2.449   1.117   0.020  0.00  0.00    +0.134 C 
BRANCH  20  24
ATOM     21  C   UNL     1      -3.473   0.065   4.031  0.00  0.00    +0.000 A 
ATOM     22  C   UNL     1      -3.674  -0.841   3.006  0.00  0.00    +0.000 A 
ATOM     23  C   UNL     1      -3.342  -0.501   1.708  0.00  0.00    +0.006 A 
ATOM     24  C   UNL     1      -2.811   0.746   1.435  0.00  0.00    -0.023 A 
ATOM     25  C   UNL     1      -2.605   1.650   2.460  0.00  0.00    +0.006 A 
ATOM     26  C   UNL     1      -2.941   1.311   3.758  0.00  0.00    +0.000 A 
ENDBRANCH  20  24
BRANCH  20  27
ATOM     27  C   UNL     1      -3.543   1.969  -0.571  0.00  0.00    -0.023 A 
ATOM     28  C   UNL     1      -3.610   3.316  -0.266  0.00  0.00    +0.006 A 
ATOM     29  C   UNL     1      -4.611   4.099  -0.811  0.00  0.00    +0.000 A 
ATOM     30  C   UNL     1      -5.549   3.533  -1.654  0.00  0.00    +0.000 A 
ATOM     31  C   UNL     1      -5.484   2.186  -1.955  0.00  0.00    +0.000 A 
ATOM     32  C   UNL     1      -4.481   1.404  -1.413  0.00  0.00    +0.006 A 
ENDBRANCH  20  27
ENDBRANCH   1  20
TORSDOF 6
