REMARK  Name = ZINC11887106
REMARK  5 active torsions:
REMARK  status: ('A' for Active; 'I' for Inactive)
REMARK    1  A    between atoms: C_9  and  O_13
REMARK    2  A    between atoms: C_10  and  C_11
REMARK    3  A    between atoms: O_13  and  C_14
REMARK    4  A    between atoms: C_14  and  C_15
REMARK    5  A    between atoms: C_18  and  N_21
REMARK                            x       y       z     vdW  Elec       q    Type
REMARK                         _______ _______ _______ _____ _____    ______ ____
ROOT
ATOM      1  C   UNL     1      -0.013   1.076   0.008  0.00  0.00    +0.001 A 
ATOM      2  C   UNL     1      -1.234   1.745   0.017  0.00  0.00    +0.001 A 
ATOM      3  C   UNL     1      -1.285   3.107   0.031  0.00  0.00    +0.010 A 
ATOM      4  C   UNL     1      -0.095   3.845   0.024  0.00  0.00    +0.003 A 
ATOM      5  C   UNL     1       1.148   3.167   0.008  0.00  0.00    -0.016 A 
ATOM      6  C   UNL     1       1.163   1.762   0.000  0.00  0.00    +0.008 A 
ATOM      7  C   UNL     1       2.342   3.910   0.000  0.00  0.00    +0.012 A 
ATOM      8  C   UNL     1       2.317   5.268   0.008  0.00  0.00    +0.047 A 
ATOM      9  C   UNL     1       1.118   5.981   0.023  0.00  0.00    +0.139 A 
ATOM     10  C   UNL     1      -0.104   5.307   0.032  0.00  0.00    +0.101 A 
ENDROOT
BRANCH  10  11
ATOM     11  C   UNL     1      -1.339   6.031   0.048  0.00  0.00    +0.103 C 
ATOM     12  N   UNL     1      -2.319   6.605   0.060  0.00  0.00    -0.191 NA
ENDBRANCH  10  11
BRANCH   9  13
ATOM     13  O   UNL     1       1.139   7.337   0.031  0.00  0.00    -0.486 OA
BRANCH  13  14
ATOM     14  C   UNL     1       2.423   7.965   0.022  0.00  0.00    +0.264 C 
BRANCH  14  15
ATOM     15  C   UNL     1       2.249   9.462   0.032  0.00  0.00    -0.010 A 
ATOM     16  C   UNL     1       2.164  10.156  -1.161  0.00  0.00    +0.009 A 
ATOM     17  C   UNL     1       2.000  11.529  -1.151  0.00  0.00    +0.033 A 
ATOM     18  C   UNL     1       1.931  12.209   0.051  0.00  0.00    +0.126 A 
ATOM     19  C   UNL     1       2.022  11.515   1.243  0.00  0.00    +0.033 A 
ATOM     20  C   UNL     1       2.181  10.142   1.234  0.00  0.00    +0.009 A 
BRANCH  18  21
ATOM     21  N   UNL     1       1.761  13.679   0.061  0.00  0.00    +0.056 N 
ATOM     22  O   UNL     1       1.700  14.278   1.119  0.00  0.00    -0.126 OA
ATOM     23  O   UNL     1       1.681  14.290  -0.990  0.00  0.00    -0.126 OA
ENDBRANCH  18  21
ENDBRANCH  14  15
ENDBRANCH  13  14
ENDBRANCH   9  13
TORSDOF 5
