REMARK  Name = ZINC28296709
REMARK  14 active torsions:
REMARK  status: ('A' for Active; 'I' for Inactive)
REMARK    1  A    between atoms: C_1  and  C_2
REMARK    2  A    between atoms: C_2  and  O_3
REMARK    3  A    between atoms: O_3  and  C_4
REMARK    4  A    between atoms: C_4  and  C_6
REMARK    5  A    between atoms: C_7  and  C_35
REMARK    6  A    between atoms: N_8  and  C_34
REMARK    7  A    between atoms: C_12  and  O_15
REMARK    8  A    between atoms: O_15  and  C_16
REMARK    9  A    between atoms: C_16  and  C_17
REMARK   10  A    between atoms: C_17  and  C_19
REMARK   11  A    between atoms: C_17  and  O_33
REMARK   12  A    between atoms: C_19  and  N_20
REMARK   13  A    between atoms: N_20  and  C_21
REMARK   14  A    between atoms: N_20  and  C_27
REMARK                            x       y       z     vdW  Elec       q    Type
REMARK                         _______ _______ _______ _____ _____    ______ ____
ROOT
ATOM      1  C   UNL     1      -0.436   2.480   1.234  0.00  0.00    +0.258 C 
ENDROOT
BRANCH   1   2
ATOM      2  O   UNL     1      -1.860   2.566   1.155  0.00  0.00    -0.489 OA
BRANCH   2   9
ATOM      3  C   UNL     1      -5.952   4.069   3.611  0.00  0.00    +0.087 A 
ATOM      4  C   UNL     1      -5.967   4.649   4.847  0.00  0.00    +0.030 A 
ATOM      5  N   UNL     1      -4.702   4.759   5.316  0.00  0.00    -0.346 N 
ATOM      6  C   UNL     1      -3.801   4.253   4.400  0.00  0.00    +0.050 A 
ATOM      7  C   UNL     1      -4.537   3.798   3.294  0.00  0.00    +0.018 A 
ATOM      8  C   UNL     1      -3.883   3.232   2.204  0.00  0.00    +0.056 A 
ATOM      9  C   UNL     1      -2.505   3.119   2.216  0.00  0.00    +0.121 A 
ATOM     10  C   UNL     1      -1.777   3.564   3.315  0.00  0.00    +0.048 A 
ATOM     11  C   UNL     1      -2.416   4.131   4.396  0.00  0.00    +0.030 A 
ATOM     12  C   UNL     1      -4.340   5.336   6.614  0.00  0.00    +0.149 C 
ATOM     13  C   UNL     1      -7.205   5.098   5.578  0.00  0.00    +0.064 C 
BRANCH   3  14
ATOM     14  C   UNL     1      -7.114   3.773   2.766  0.00  0.00    +0.341 C 
ATOM     15  O   UNL     1      -7.677   2.699   2.861  0.00  0.00    -0.245 OA
BRANCH  14  16
ATOM     16  O   UNL     1      -7.557   4.691   1.883  0.00  0.00    -0.461 OA
BRANCH  16  18
ATOM     17  C   UNL     1      -9.064   5.487   0.144  0.00  0.00    +0.048 C 
ATOM     18  C   UNL     1      -8.711   4.329   1.080  0.00  0.00    +0.229 C 
ENDBRANCH  16  18
ENDBRANCH  14  16
ENDBRANCH   3  14
ENDBRANCH   2   9
ENDBRANCH   1   2
BRANCH   1  19
ATOM     19  C   UNL     1       0.108   1.835  -0.043  0.00  0.00    +0.135 C 
BRANCH  19  20
ATOM     20  O   UNL     1      -0.158   2.689  -1.158  0.00  0.00    -0.390 OA
ATOM     21  H   UNL     1       0.162   2.390  -2.167  0.00  0.00    +0.210 HD
ENDBRANCH  19  20
BRANCH  19  22
ATOM     22  C   UNL     1       1.618   1.629   0.093  0.00  0.00    -0.043 C 
BRANCH  22  23
ATOM     23  N   UNL     1       2.146   1.046  -1.147  0.00  0.00    +0.385 N 
ATOM     24  H   UNL     1       1.456   1.305  -1.964  0.00  0.00    -0.081 HD
BRANCH  23  25
ATOM     25  C   UNL     1       3.463   1.608  -1.475  0.00  0.00    -0.068 C 
ATOM     26  C   UNL     1       4.435   1.333  -0.325  0.00  0.00    -0.015 C 
ATOM     27  C   UNL     1       5.807   1.919  -0.666  0.00  0.00    -0.002 C 
ATOM     28  C   UNL     1       5.679   3.429  -0.876  0.00  0.00    -0.000 C 
ATOM     29  C   UNL     1       4.707   3.704  -2.025  0.00  0.00    -0.002 C 
ATOM     30  C   UNL     1       3.335   3.118  -1.684  0.00  0.00    -0.015 C 
ENDBRANCH  23  25
BRANCH  23  31
ATOM     31  C   UNL     1       2.207  -0.419  -1.055  0.00  0.00    -0.068 C 
ATOM     32  C   UNL     1       2.989  -0.973  -2.248  0.00  0.00    -0.015 C 
ATOM     33  C   UNL     1       3.052  -2.499  -2.153  0.00  0.00    -0.002 C 
ATOM     34  C   UNL     1       1.633  -3.070  -2.163  0.00  0.00    -0.000 C 
ATOM     35  C   UNL     1       0.851  -2.516  -0.970  0.00  0.00    -0.002 C 
ATOM     36  C   UNL     1       0.788  -0.990  -1.066  0.00  0.00    -0.015 C 
ENDBRANCH  23  31
ENDBRANCH  22  23
ENDBRANCH  19  22
ENDBRANCH   1  19
TORSDOF 11
