REMARK  Name = ZINC15861781
REMARK  4 active torsions:
REMARK  status: ('A' for Active; 'I' for Inactive)
REMARK    1  A    between atoms: C_3  and  N_9
REMARK    2  A    between atoms: C_6  and  C_7
REMARK    3  A    between atoms: N_11  and  C_12
REMARK    4  A    between atoms: C_18  and  N_28
REMARK                            x       y       z     vdW  Elec       q    Type
REMARK                         _______ _______ _______ _____ _____    ______ ____
ROOT
ATOM      1  N   UNL     1       3.649   1.057   1.156  0.00  0.00    -0.254 N 
ATOM      2  C   UNL     1       4.957   1.079   0.743  0.00  0.00    +0.098 C 
ATOM      3  N   UNL     1       5.461   0.352  -0.198  0.00  0.00    -0.372 N 
ATOM      4  C   UNL     1       5.712   2.096   1.573  0.00  0.00    +0.131 C 
ATOM      5  C   UNL     1       4.641   2.654   2.524  0.00  0.00    +0.038 C 
ATOM      6  C   UNL     1       3.381   1.915   2.149  0.00  0.00    +0.069 C 
ATOM      7  S   UNL     1       1.951   2.121   2.834  0.00  0.00    -0.039 S 
ATOM      8  C   UNL     1       4.466   4.152   2.296  0.00  0.00    +0.015 C 
ATOM      9  C   UNL     1       5.771   4.877   2.638  0.00  0.00    +0.001 C 
ATOM     10  C   UNL     1       6.136   4.605   4.099  0.00  0.00    +0.000 C 
ATOM     11  C   UNL     1       6.327   3.102   4.308  0.00  0.00    +0.001 C 
ATOM     12  C   UNL     1       5.025   2.371   3.972  0.00  0.00    +0.015 C 
ATOM     13  H   UNL     1       4.897   0.034  -0.921  0.00  0.00    +0.161 HD
ENDROOT
BRANCH   1  16
ATOM     14  C   UNL     1       0.678  -0.052  -0.697  0.00  0.00    +0.021 A 
ATOM     15  C   UNL     1       1.631   0.769  -0.136  0.00  0.00    +0.025 A 
ATOM     16  C   UNL     1       2.684   0.221   0.589  0.00  0.00    +0.040 A 
ATOM     17  C   UNL     1       2.779  -1.157   0.750  0.00  0.00    +0.025 A 
ATOM     18  C   UNL     1       1.829  -1.985   0.192  0.00  0.00    +0.021 A 
ATOM     19  C   UNL     1       0.770  -1.438  -0.537  0.00  0.00    +0.052 A 
BRANCH  19  20
ATOM     20  C   UNL     1      -0.219  -2.295  -1.119  0.00  0.00    +0.099 C 
ATOM     21  N   UNL     1      -1.004  -2.974  -1.580  0.00  0.00    -0.191 NA
ENDBRANCH  19  20
ENDBRANCH   1  16
BRANCH   3  22
ATOM     22  C   UNL     1       6.885   0.008  -0.175  0.00  0.00    +0.080 C 
ATOM     23  C   UNL     1       7.501   0.292  -1.546  0.00  0.00    +0.024 C 
ATOM     24  C   UNL     1       8.988  -0.068  -1.522  0.00  0.00    +0.002 C 
ATOM     25  C   UNL     1       9.148  -1.552  -1.190  0.00  0.00    +0.000 C 
ATOM     26  C   UNL     1       8.532  -1.837   0.182  0.00  0.00    +0.002 C 
ATOM     27  C   UNL     1       7.045  -1.477   0.158  0.00  0.00    +0.024 C 
ENDBRANCH   3  22
BRANCH   4  28
ATOM     28  N   UNL     1       6.254   3.160   0.717  0.00  0.00    -0.292 NA
ATOM     29  C   UNL     1       5.353   3.442  -0.407  0.00  0.00    +0.085 C 
ATOM     30  C   UNL     1       5.874   4.648  -1.191  0.00  0.00    +0.015 C 
ATOM     31  C   UNL     1       7.284   4.346  -1.706  0.00  0.00    +0.002 C 
ATOM     32  C   UNL     1       8.191   4.008  -0.519  0.00  0.00    +0.015 C 
ATOM     33  C   UNL     1       7.602   2.820   0.245  0.00  0.00    +0.085 C 
ENDBRANCH   4  28
TORSDOF 4
