REMARK  Name = ZINC64837579
REMARK  9 active torsions:
REMARK  status: ('A' for Active; 'I' for Inactive)
REMARK    1  A    between atoms: C_1  and  C_2
REMARK    2  A    between atoms: C_5  and  C_21
REMARK    3  A    between atoms: C_7  and  S_8
REMARK    4  A    between atoms: S_8  and  N_11
REMARK    5  A    between atoms: N_11  and  C_12
REMARK    6  A    between atoms: C_15  and  O_19
REMARK    7  A    between atoms: O_19  and  C_20
REMARK    8  A    between atoms: C_22  and  C_27
REMARK    9  A    between atoms: C_25  and  C_26
REMARK                            x       y       z     vdW  Elec       q    Type
REMARK                         _______ _______ _______ _____ _____    ______ ____
ROOT
ATOM      1  C   UNL     1      -0.438   1.498  -0.006  0.00  0.00    +0.046 C 
ATOM      2  C   UNL     1      -0.297  -0.002  -0.045  0.00  0.00    -0.024 A 
ATOM      3  C   UNL     1      -0.471  -0.679  -1.239  0.00  0.00    +0.006 A 
ATOM      4  C   UNL     1      -0.343  -2.052  -1.281  0.00  0.00    +0.009 A 
ATOM      5  C   UNL     1      -0.037  -2.757  -0.119  0.00  0.00    -0.011 A 
ATOM      6  C   UNL     1       0.138  -2.070   1.080  0.00  0.00    +0.037 A 
ATOM      7  C   UNL     1       0.012  -0.696   1.110  0.00  0.00    +0.112 A 
ENDROOT
BRANCH   5   8
ATOM      8  C   UNL     1       0.102  -4.234  -0.158  0.00  0.00    +0.047 A 
ATOM      9  C   UNL     1      -0.738  -5.169   0.494  0.00  0.00    +0.088 A 
ATOM     10  N   UNL     1      -0.297  -6.363   0.223  0.00  0.00    -0.083 NA
ATOM     11  O   UNL     1       0.839  -6.237  -0.611  0.00  0.00    -0.359 OA
ATOM     12  C   UNL     1       1.054  -4.932  -0.830  0.00  0.00    +0.142 A 
ATOM     13  C   UNL     1       2.159  -4.343  -1.670  0.00  0.00    +0.090 C 
ATOM     14  C   UNL     1      -1.933  -4.839   1.352  0.00  0.00    +0.070 C 
ENDBRANCH   5   8
BRANCH   7  15
ATOM     15  S   UNL     1       0.239   0.176   2.625  0.00  0.00    +0.073 S 
ATOM     16  O   UNL     1       0.492  -0.804   3.623  0.00  0.00    -0.150 OA
ATOM     17  O   UNL     1       1.145   1.236   2.352  0.00  0.00    -0.150 OA
BRANCH  15  18
ATOM     18  N   UNL     1      -1.210   0.879   3.007  0.00  0.00    -0.216 N 
ATOM     19  H   UNL     1      -1.299   1.845   2.995  0.00  0.00    +0.174 HD
BRANCH  18  20
ATOM     20  C   UNL     1      -2.307   0.080   3.348  0.00  0.00    +0.050 A 
ATOM     21  C   UNL     1      -2.622  -1.033   2.579  0.00  0.00    +0.028 A 
ATOM     22  C   UNL     1      -3.704  -1.821   2.915  0.00  0.00    +0.049 A 
ATOM     23  C   UNL     1      -4.478  -1.503   4.021  0.00  0.00    +0.138 A 
ATOM     24  C   UNL     1      -4.165  -0.391   4.791  0.00  0.00    +0.084 A 
ATOM     25  C   UNL     1      -3.078   0.396   4.458  0.00  0.00    +0.048 A 
ATOM     26 CL   UNL     1      -5.134   0.007   6.175  0.00  0.00    -0.080 Cl
BRANCH  23  27
ATOM     27  O   UNL     1      -5.545  -2.280   4.351  0.00  0.00    -0.494 OA
ATOM     28  C   UNL     1      -5.809  -3.408   3.515  0.00  0.00    +0.277 C 
ENDBRANCH  23  27
ENDBRANCH  18  20
ENDBRANCH  15  18
ENDBRANCH   7  15
TORSDOF 5
