REMARK  Name = ZINC45069912
REMARK  6 active torsions:
REMARK  status: ('A' for Active; 'I' for Inactive)
REMARK    1  A    between atoms: C_7  and  N_12
REMARK    2  A    between atoms: N_12  and  C_13
REMARK    3  A    between atoms: C_13  and  C_14
REMARK    4  A    between atoms: C_14  and  C_15
REMARK    5  A    between atoms: C_15  and  S_16
REMARK    6  A    between atoms: S_16  and  N_19
REMARK                            x       y       z     vdW  Elec       q    Type
REMARK                         _______ _______ _______ _____ _____    ______ ____
ROOT
ATOM      1  C   UNL     1       0.084   1.312   0.160  0.00  0.00    +0.025 A 
ATOM      2  C   UNL     1       1.300   1.965   0.228  0.00  0.00    +0.043 A 
ATOM      3  C   UNL     1       2.477   1.238   0.217  0.00  0.00    +0.043 A 
ATOM      4  C   UNL     1       2.434  -0.141   0.140  0.00  0.00    +0.084 A 
ATOM      5  C   UNL     1       1.210  -0.800   0.072  0.00  0.00    +0.140 A 
ATOM      6  C   UNL     1       0.035  -0.070   0.080  0.00  0.00    -0.017 A 
ATOM      7  C   UNL     1      -1.311  -0.744  -0.003  0.00  0.00    -0.034 C 
ATOM      8  C   UNL     1      -1.168  -2.226   0.355  0.00  0.00    +0.030 C 
ATOM      9  C   UNL     1       0.012  -2.802  -0.438  0.00  0.00    +0.228 C 
ATOM     10  O   UNL     1       1.208  -2.158   0.003  0.00  0.00    -0.490 OA
ATOM     11 CL   UNL     1       3.910  -1.053   0.127  0.00  0.00    -0.080 Cl
ATOM     12 CL   UNL     1       1.351   3.698   0.327  0.00  0.00    -0.083 Cl
ENDROOT
BRANCH   7  13
ATOM     13  N   UNL     1      -2.238  -0.102   0.938  0.00  0.00    +0.384 N 
ATOM     14  H   UNL     1      -1.925  -0.264   1.883  0.00  0.00    -0.085 HD
ATOM     15  H   UNL     1      -2.266   0.890   0.758  0.00  0.00    -0.085 HD
BRANCH  13  16
ATOM     16  C   UNL     1      -3.582  -0.669   0.764  0.00  0.00    -0.080 C 
BRANCH  16  17
ATOM     17  C   UNL     1      -4.573   0.087   1.651  0.00  0.00    +0.005 C 
BRANCH  17  18
ATOM     18  C   UNL     1      -5.973  -0.504   1.471  0.00  0.00    +0.183 C 
BRANCH  18  19
ATOM     19  S   UNL     1      -7.148   0.393   2.522  0.00  0.00    +0.027 S 
ATOM     20  O   UNL     1      -6.874   0.135   3.892  0.00  0.00    -0.158 OA
ATOM     21  O   UNL     1      -7.307   1.725   2.053  0.00  0.00    -0.158 OA
BRANCH  19  22
ATOM     22  N   UNL     1      -8.610  -0.332   2.240  0.00  0.00    -0.208 NA
ATOM     23  H   UNL     1      -8.673  -1.072   1.616  0.00  0.00    +0.144 HD
ATOM     24  H   UNL     1      -9.405  -0.017   2.700  0.00  0.00    +0.144 HD
ENDBRANCH  19  22
ENDBRANCH  18  19
ENDBRANCH  17  18
ENDBRANCH  16  17
ENDBRANCH  13  16
ENDBRANCH   7  13
TORSDOF 6
