REMARK  Name = ZINC16153987
REMARK  7 active torsions:
REMARK  status: ('A' for Active; 'I' for Inactive)
REMARK    1  A    between atoms: C_1  and  C_2
REMARK    2  A    between atoms: C_3  and  S_9
REMARK    3  A    between atoms: C_4  and  C_8
REMARK    4  A    between atoms: S_9  and  N_12
REMARK    5  A    between atoms: N_12  and  C_13
REMARK    6  A    between atoms: C_20  and  S_22
REMARK    7  A    between atoms: S_22  and  C_23
REMARK                            x       y       z     vdW  Elec       q    Type
REMARK                         _______ _______ _______ _____ _____    ______ ____
ROOT
ATOM      1  N   UNL     1       4.886   3.948  -0.025  0.00  0.00    -0.216 N 
ATOM      2  H   UNL     1       5.582   3.642  -0.627  0.00  0.00    +0.174 HD
ENDROOT
BRANCH   1   3
ATOM      3  C   UNL     1       3.639   3.312  -0.016  0.00  0.00    +0.049 A 
ATOM      4  C   UNL     1       2.465   4.061  -0.001  0.00  0.00    +0.026 A 
ATOM      5  C   UNL     1       1.234   3.459   0.008  0.00  0.00    +0.031 A 
ATOM      6  C   UNL     1       1.116   2.051   0.002  0.00  0.00    +0.080 A 
ATOM      7  C   UNL     1       2.325   1.320  -0.013  0.00  0.00    +0.042 A 
ATOM      8  C   UNL     1       3.557   1.925  -0.021  0.00  0.00    +0.041 A 
ATOM      9  S   UNL     1       1.753  -0.362  -0.017  0.00  0.00    -0.061 S 
ATOM     10  C   UNL     1       0.002  -0.004   0.002  0.00  0.00    +0.135 A 
ATOM     11  N   UNL     1      -0.016   1.309   0.009  0.00  0.00    -0.233 NA
BRANCH  10  12
ATOM     12  S   UNL     1      -1.355  -1.128   0.008  0.00  0.00    -0.102 S 
ATOM     13  C   UNL     1      -2.734   0.045   0.028  0.00  0.00    +0.092 C 
ENDBRANCH  10  12
ENDBRANCH   1   3
BRANCH   1  14
ATOM     14  S   UNL     1       5.172   5.223   0.992  0.00  0.00    +0.076 S 
ATOM     15  O   UNL     1       6.516   5.628   0.767  0.00  0.00    -0.150 OA
ATOM     16  O   UNL     1       4.074   6.113   0.847  0.00  0.00    -0.150 OA
BRANCH  14  19
ATOM     17  C   UNL     1       7.569   3.990   2.871  0.00  0.00    +0.067 C 
ATOM     18  C   UNL     1       6.144   4.107   3.348  0.00  0.00    +0.060 A 
ATOM     19  C   UNL     1       5.103   4.601   2.639  0.00  0.00    +0.151 A 
ATOM     20  C   UNL     1       3.963   4.537   3.447  0.00  0.00    +0.087 A 
ATOM     21  N   UNL     1       4.305   4.014   4.596  0.00  0.00    -0.177 NA
ATOM     22  N   UNL     1       5.678   3.738   4.560  0.00  0.00    -0.280 N 
ATOM     23  H   UNL     1       6.218   3.338   5.301  0.00  0.00    +0.189 HD
ATOM     24  C   UNL     1       2.578   4.988   3.059  0.00  0.00    +0.069 C 
ENDBRANCH  14  19
ENDBRANCH   1  14
TORSDOF 4
