REMARK  Name = ZINC39898795
REMARK  11 active torsions:
REMARK  status: ('A' for Active; 'I' for Inactive)
REMARK    1  A    between atoms: C_1  and  C_2
REMARK    2  A    between atoms: C_2  and  O_3
REMARK    3  A    between atoms: O_3  and  C_4
REMARK    4  A    between atoms: C_6  and  C_14
REMARK    5  A    between atoms: C_9  and  O_10
REMARK    6  A    between atoms: O_10  and  C_11
REMARK    7  A    between atoms: C_11  and  C_12
REMARK    8  A    between atoms: C_17  and  C_31
REMARK    9  A    between atoms: N_24  and  C_25
REMARK   10  A    between atoms: C_25  and  C_26
REMARK   11  A    between atoms: C_36  and  O_37
REMARK                            x       y       z     vdW  Elec       q    Type
REMARK                         _______ _______ _______ _____ _____    ______ ____
ROOT
ATOM      1  C   UNL     1       0.033  -4.975   0.024  0.00  0.00    +0.142 C 
ATOM      2  C   UNL     1       0.834  -5.322   1.249  0.00  0.00    +0.035 A 
ATOM      3  C   UNL     1       1.517  -4.864   2.381  0.00  0.00    +0.102 A 
ATOM      4  N   UNL     1       1.994  -5.920   3.008  0.00  0.00    -0.173 NA
ATOM      5  N   UNL     1       1.681  -7.000   2.385  0.00  0.00    -0.272 N 
ATOM      6  H   UNL     1       1.926  -7.896   2.665  0.00  0.00    +0.189 HD
ATOM      7  C   UNL     1       0.952  -6.699   1.270  0.00  0.00    +0.126 A 
ATOM      8  C   UNL     1       0.253  -7.245   0.102  0.00  0.00    +0.266 C 
ATOM      9  O   UNL     1       0.171  -8.428  -0.168  0.00  0.00    -0.268 OA
ATOM     10  N   UNL     1      -0.286  -6.251  -0.630  0.00  0.00    -0.278 N 
ENDROOT
BRANCH   3  11
ATOM     11  C   UNL     1       1.675  -3.448   2.798  0.00  0.00    +0.045 A 
ATOM     12  C   UNL     1       1.005  -2.438   2.112  0.00  0.00    +0.033 A 
ATOM     13  C   UNL     1       1.156  -1.122   2.504  0.00  0.00    +0.042 A 
ATOM     14  C   UNL     1       1.972  -0.804   3.577  0.00  0.00    +0.023 A 
ATOM     15  C   UNL     1       2.641  -1.799   4.263  0.00  0.00    +0.047 A 
ATOM     16  C   UNL     1       2.494  -3.124   3.883  0.00  0.00    +0.126 A 
ATOM     17 CL   UNL     1       0.320   0.137   1.649  0.00  0.00    -0.084 Cl
BRANCH  16  18
ATOM     18  O   UNL     1       3.147  -4.104   4.561  0.00  0.00    -0.506 OA
ATOM     19  H   UNL     1       4.026  -4.304   4.212  0.00  0.00    +0.292 HD
ENDBRANCH  16  18
ENDBRANCH   3  11
BRANCH   1  22
ATOM     20  C   UNL     1       2.741  -3.817  -2.342  0.00  0.00    +0.162 A 
ATOM     21  C   UNL     1       1.990  -4.613  -1.491  0.00  0.00    +0.055 A 
ATOM     22  C   UNL     1       0.848  -4.108  -0.900  0.00  0.00    -0.019 A 
ATOM     23  C   UNL     1       0.450  -2.808  -1.156  0.00  0.00    +0.009 A 
ATOM     24  C   UNL     1       1.194  -2.009  -2.004  0.00  0.00    +0.050 A 
ATOM     25  C   UNL     1       2.344  -2.507  -2.595  0.00  0.00    +0.162 A 
BRANCH  20  26
ATOM     26  O   UNL     1       3.866  -4.312  -2.924  0.00  0.00    -0.489 OA
BRANCH  26  28
ATOM     27  C   UNL     1       5.401  -6.089  -3.494  0.00  0.00    +0.048 C 
ATOM     28  C   UNL     1       4.175  -5.685  -2.674  0.00  0.00    +0.226 C 
ENDBRANCH  26  28
ENDBRANCH  20  26
BRANCH  25  29
ATOM     29  O   UNL     1       3.080  -1.720  -3.424  0.00  0.00    -0.484 OA
BRANCH  29  30
ATOM     30  C   UNL     1       2.613  -0.387  -3.637  0.00  0.00    +0.256 C 
BRANCH  30  31
ATOM     31  C   UNL     1       3.548   0.330  -4.577  0.00  0.00    +0.006 C 
ATOM     32  C   UNL     1       3.066   1.048  -5.560  0.00  0.00    +0.007 C 
ENDBRANCH  30  31
ENDBRANCH  29  30
ENDBRANCH  25  29
ENDBRANCH   1  22
BRANCH  10  33
ATOM     33  C   UNL     1      -1.058  -6.413  -1.865  0.00  0.00    +0.183 C 
BRANCH  33  34
ATOM     34  C   UNL     1      -0.125  -6.378  -3.048  0.00  0.00    +0.122 A 
ATOM     35  C   UNL     1       0.481  -7.443  -3.604  0.00  0.00    +0.046 A 
ATOM     36  C   UNL     1       1.258  -6.957  -4.679  0.00  0.00    +0.041 A 
ATOM     37  C   UNL     1       1.081  -5.624  -4.717  0.00  0.00    +0.195 A 
ATOM     38  O   UNL     1       0.238  -5.280  -3.730  0.00  0.00    -0.466 OA
ENDBRANCH  33  34
ENDBRANCH  10  33
TORSDOF 10
