REMARK  Name = ZINC06644908
REMARK  4 active torsions:
REMARK  status: ('A' for Active; 'I' for Inactive)
REMARK    1  A    between atoms: N_6  and  N_7
REMARK    2  A    between atoms: N_7  and  C_8
REMARK    3  A    between atoms: C_8  and  N_10
REMARK    4  A    between atoms: N_10  and  N_11
REMARK                            x       y       z     vdW  Elec       q    Type
REMARK                         _______ _______ _______ _____ _____    ______ ____
ROOT
ATOM      1  C   UNL     1       2.051  -4.095   0.818  0.00  0.00    +0.170 C 
ATOM      2  S   UNL     1       0.898  -5.360   0.848  0.00  0.00    -0.016 S 
ENDROOT
BRANCH   1   3
ATOM      3  N   UNL     1       1.794  -2.966   0.128  0.00  0.00    -0.217 N 
ATOM      4  H   UNL     1       0.957  -2.871  -0.353  0.00  0.00    +0.176 HD
BRANCH   3  10
ATOM      5  C   UNL     1       0.360   1.473  -1.129  0.00  0.00    +0.000 C 
ATOM      6  C   UNL     1       1.804   2.003  -1.143  0.00  0.00    +0.000 C 
ATOM      7  C   UNL     1       2.651   1.512   0.004  0.00  0.00    +0.006 C 
ATOM      8  C   UNL     1       3.418   0.244  -0.461  0.00  0.00    +0.052 C 
ATOM      9  C   UNL     1       2.511  -0.875  -0.585  0.00  0.00    +0.037 C 
ATOM     10  N   UNL     1       2.737  -1.930   0.103  0.00  0.00    -0.190 NA
ATOM     11  C   UNL     1       1.299  -0.844  -1.501  0.00  0.00    +0.052 C 
ATOM     12  C   UNL     1       0.253  -0.015  -0.800  0.00  0.00    +0.006 C 
ENDBRANCH   3  10
ENDBRANCH   1   3
BRANCH   1  13
ATOM     13  N   UNL     1       3.214  -4.227   1.486  0.00  0.00    -0.217 N 
ATOM     14  H   UNL     1       3.399  -5.039   1.983  0.00  0.00    +0.176 HD
BRANCH  13  15
ATOM     15  N   UNL     1       4.157  -3.191   1.461  0.00  0.00    -0.190 NA
ATOM     16  C   UNL     1       5.289  -3.342   2.040  0.00  0.00    +0.037 C 
ATOM     17  C   UNL     1       5.679  -4.695   2.628  0.00  0.00    +0.052 C 
ATOM     18  C   UNL     1       7.135  -4.990   2.387  0.00  0.00    +0.006 C 
ATOM     19  C   UNL     1       7.979  -4.437   3.544  0.00  0.00    +0.000 C 
ATOM     20  C   UNL     1       8.235  -2.999   3.420  0.00  0.00    +0.000 C 
ATOM     21  C   UNL     1       6.950  -2.162   3.487  0.00  0.00    +0.006 C 
ATOM     22  C   UNL     1       6.263  -2.173   2.144  0.00  0.00    +0.052 C 
ENDBRANCH  13  15
ENDBRANCH   1  13
TORSDOF 4
