REMARK  Name = ZINC04526406
REMARK  3 active torsions:
REMARK  status: ('A' for Active; 'I' for Inactive)
REMARK    1  A    between atoms: C_4  and  C_10
REMARK    2  A    between atoms: C_6  and  N_7
REMARK    3  A    between atoms: C_13  and  C_14
REMARK                            x       y       z     vdW  Elec       q    Type
REMARK                         _______ _______ _______ _____ _____    ______ ____
ROOT
ATOM      1  C   UNL     1      -5.104   1.187  -0.872  0.00  0.00    +0.233 C 
ATOM      2  N   UNL     1      -6.233   1.732  -0.510  0.00  0.00    -0.205 NA
ATOM      3  C   UNL     1      -7.165   0.751  -0.333  0.00  0.00    +0.152 C 
ATOM      4  C   UNL     1      -8.481   0.908   0.048  0.00  0.00    +0.044 C 
ATOM      5  C   UNL     1      -6.468  -0.513  -0.634  0.00  0.00    +0.364 C 
ATOM      6  O   UNL     1      -6.930  -1.638  -0.601  0.00  0.00    -0.243 OA
ATOM      7  O   UNL     1      -5.208  -0.153  -0.963  0.00  0.00    -0.402 OA
ENDROOT
BRANCH   4   8
ATOM      8  C   UNL     1      -9.053   2.252   0.168  0.00  0.00    -0.004 A 
ATOM      9  C   UNL     1      -8.410   3.348  -0.425  0.00  0.00    +0.011 A 
ATOM     10  C   UNL     1      -8.957   4.606  -0.312  0.00  0.00    +0.020 A 
ATOM     11  C   UNL     1     -10.135   4.795   0.395  0.00  0.00    +0.042 A 
ATOM     12  C   UNL     1     -10.775   3.719   0.989  0.00  0.00    +0.040 A 
ATOM     13  C   UNL     1     -10.244   2.451   0.882  0.00  0.00    +0.050 A 
ATOM     14 CL   UNL     1     -11.047   1.104   1.627  0.00  0.00    -0.083 Cl
ATOM     15 CL   UNL     1     -10.811   6.387   0.537  0.00  0.00    -0.083 Cl
ENDBRANCH   4   8
BRANCH   1  19
ATOM     16  C   UNL     1      -1.549   3.366  -1.675  0.00  0.00    +0.034 A 
ATOM     17  C   UNL     1      -2.699   4.040  -1.303  0.00  0.00    +0.023 A 
ATOM     18  C   UNL     1      -3.858   3.338  -1.038  0.00  0.00    +0.053 A 
ATOM     19  C   UNL     1      -3.869   1.945  -1.153  0.00  0.00    +0.057 A 
ATOM     20  C   UNL     1      -2.706   1.273  -1.536  0.00  0.00    +0.047 A 
ATOM     21  C   UNL     1      -1.555   1.988  -1.797  0.00  0.00    +0.127 A 
ATOM     22 CL   UNL     1      -5.299   4.183  -0.564  0.00  0.00    -0.083 Cl
BRANCH  21  23
ATOM     23  N   UNL     1      -0.321   1.277  -2.202  0.00  0.00    +0.056 N 
ATOM     24  O   UNL     1      -0.323   0.064  -2.304  0.00  0.00    -0.126 OA
ATOM     25  O   UNL     1       0.694   1.907  -2.437  0.00  0.00    -0.126 OA
ENDBRANCH  21  23
ENDBRANCH   1  19
TORSDOF 3
