REMARK  Name = ZINC12858859
REMARK  8 active torsions:
REMARK  status: ('A' for Active; 'I' for Inactive)
REMARK    1  A    between atoms: C_1  and  C_2
REMARK    2  A    between atoms: C_10  and  C_35
REMARK    3  A    between atoms: C_15  and  C_16
REMARK    4  A    between atoms: C_16  and  C_17
REMARK    5  A    between atoms: N_19  and  CA_20
REMARK    6  A    between atoms: CA_20  and  CB_22
REMARK    7  A    between atoms: CA_20  and  C_33
REMARK    8  A    between atoms: CB_22  and  CG_23
REMARK                            x       y       z     vdW  Elec       q    Type
REMARK                         _______ _______ _______ _____ _____    ______ ____
ROOT
ATOM      1  C   UNK A   0       3.436   0.583  -4.572  0.00  0.00    +0.045 C 
ATOM      2  C   UNK A   0       2.261   1.173  -5.308  0.00  0.00    -0.029 A 
ATOM      3  C   UNK A   0       1.023   1.522  -4.604  0.00  0.00    +0.022 A 
ATOM      4  C   UNK A   0       0.906   1.317  -3.230  0.00  0.00    +0.023 A 
ATOM      5  C   UNK A   0      -0.277   1.657  -2.588  0.00  0.00    +0.025 A 
ATOM      6  C   UNK A   0      -0.749   1.589  -1.205  0.00  0.00    +0.001 A 
ATOM      7  C   UNK A   0      -2.002   2.071  -1.200  0.00  0.00    +0.109 A 
ATOM      8  O   UNK A   0      -2.355   2.433  -2.445  0.00  0.00    -0.459 OA
ATOM      9  C   UNK A   0      -1.352   2.205  -3.320  0.00  0.00    +0.142 A 
ATOM     10  C   UNK A   0      -1.226   2.406  -4.686  0.00  0.00    +0.035 A 
ATOM     11  C   UNK A   0      -0.050   2.071  -5.337  0.00  0.00    +0.146 A 
ATOM     12  O   UNK A   0       0.063   2.271  -6.667  0.00  0.00    -0.422 OA
ATOM     13  C   UNK A   0       1.194   1.951  -7.303  0.00  0.00    +0.341 A 
ATOM     14  O   UNK A   0       1.261   2.145  -8.503  0.00  0.00    -0.245 OA
ATOM     15  C   UNK A   0       2.312   1.398  -6.647  0.00  0.00    +0.049 A 
ATOM     16  C   UNK A   0      -2.375   2.992  -5.466  0.00  0.00    +0.051 C 
ATOM     17  C   UNK A   0      -2.852   2.173   0.046  0.00  0.00    +0.075 C 
ATOM     18  C   UNK A   0      -2.238   1.279   1.129  0.00  0.00    +0.008 C 
ATOM     19  C   UNK A   0      -0.739   1.585   1.264  0.00  0.00    +0.005 C 
ATOM     20  C   UNK A   0      -0.013   1.086   0.008  0.00  0.00    +0.039 C 
ENDROOT
BRANCH  15  21
ATOM     21  C   UNK A   0       3.558   1.060  -7.425  0.00  0.00    +0.138 C 
BRANCH  21  22
ATOM     22  C   UNK A   0       3.468  -0.359  -7.924  0.00  0.00    +0.218 C 
ATOM     23  O   UNK A   0       2.490  -1.030  -7.672  0.00  0.00    -0.275 OA
ATOM     24  N   TRP A   1       4.476  -0.882  -8.650  0.00  0.00    -0.302 N 
ATOM     25  H   TRP A   1       5.258  -0.346  -8.851  0.00  0.00    +0.150 HD
BRANCH  24  26
ATOM     26  CA  TRP A   1       4.389  -2.262  -9.135  0.00  0.00    +0.191 C 
BRANCH  26  27
ATOM     27  C   TRP A   1       4.867  -3.204  -8.060  0.00  0.00    +0.376 C 
ATOM     28  O   TRP A   1       5.242  -2.767  -6.997  0.00  0.00    -0.244 OA
ATOM     29  OXT TRP A   1       4.877  -4.527  -8.283  0.00  0.00    -0.244 OA
ENDBRANCH  26  27
BRANCH  26  30
ATOM     30  CB  TRP A   1       5.266  -2.421 -10.379  0.00  0.00    +0.071 C 
BRANCH  30  31
ATOM     31  CG  TRP A   1       4.714  -1.571 -11.494  0.00  0.00    -0.020 A 
ATOM     32  CD1 TRP A   1       3.885  -1.974 -12.470  0.00  0.00    +0.087 A 
ATOM     33  NE1 TRP A   1       3.597  -0.925 -13.300  0.00  0.00    -0.360 N 
ATOM     34  HE1 TRP A   1       3.017  -0.972 -14.077  0.00  0.00    +0.165 HD
ATOM     35  CE2 TRP A   1       4.257   0.205 -12.873  0.00  0.00    +0.047 A 
ATOM     36  CD2 TRP A   1       4.986  -0.150 -11.723  0.00  0.00    +0.003 A 
ATOM     37  CE3 TRP A   1       5.760   0.808 -11.066  0.00  0.00    +0.010 A 
ATOM     38  CZ3 TRP A   1       5.806   2.087 -11.543  0.00  0.00    +0.001 A 
ATOM     39  CH2 TRP A   1       5.089   2.442 -12.678  0.00  0.00    +0.002 A 
ATOM     40  CZ2 TRP A   1       4.319   1.513 -13.342  0.00  0.00    +0.026 A 
ENDBRANCH  30  31
ENDBRANCH  26  30
ENDBRANCH  24  26
ENDBRANCH  21  22
ENDBRANCH  15  21
TORSDOF 6
