REMARK  Name = ZINC36610592
REMARK  11 active torsions:
REMARK  status: ('A' for Active; 'I' for Inactive)
REMARK    1  A    between atoms: C_1  and  C_2
REMARK    2  A    between atoms: C_2  and  C_3
REMARK    3  A    between atoms: C_3  and  C_4
REMARK    4  A    between atoms: C_4  and  N_5
REMARK    5  A    between atoms: C_6  and  C_8
REMARK    6  A    between atoms: C_8  and  C_10
REMARK    7  A    between atoms: C_8  and  N_19
REMARK    8  A    between atoms: C_13  and  N_16
REMARK    9  A    between atoms: N_19  and  C_20
REMARK   10  A    between atoms: C_26  and  C_28
REMARK   11  A    between atoms: C_28  and  C_29
REMARK                            x       y       z     vdW  Elec       q    Type
REMARK                         _______ _______ _______ _____ _____    ______ ____
ROOT
ATOM      1  C   UNL     1      -4.308  -4.700  -0.211  0.00  0.00    +0.197 C 
ENDROOT
BRANCH   1   2
ATOM      2  C   UNL     1      -4.899  -4.451  -1.575  0.00  0.00    -0.018 A 
ATOM      3  C   UNL     1      -4.628  -5.319  -2.616  0.00  0.00    +0.008 A 
ATOM      4  C   UNL     1      -5.170  -5.090  -3.866  0.00  0.00    +0.033 A 
ATOM      5  C   UNL     1      -5.984  -3.993  -4.077  0.00  0.00    +0.126 A 
ATOM      6  C   UNL     1      -6.256  -3.125  -3.036  0.00  0.00    +0.033 A 
ATOM      7  C   UNL     1      -5.718  -3.356  -1.784  0.00  0.00    +0.008 A 
BRANCH   5   8
ATOM      8  N   UNL     1      -6.563  -3.747  -5.416  0.00  0.00    +0.056 N 
ATOM      9  O   UNL     1      -6.325  -4.506  -6.327  0.00  0.00    -0.126 OA
ATOM     10  O   UNL     1      -7.275  -2.787  -5.600  0.00  0.00    -0.126 OA
ENDBRANCH   5   8
ENDBRANCH   1   2
BRANCH   1  12
ATOM     11  N   UNL     1      -2.208  -3.491  -0.705  0.00  0.00    -0.313 N 
ATOM     12  C   UNL     1      -2.805  -4.627  -0.294  0.00  0.00    +0.238 C 
ATOM     13  O   UNL     1      -2.134  -5.590   0.009  0.00  0.00    -0.273 OA
ATOM     14  H   UNL     1      -2.745  -2.720  -0.947  0.00  0.00    +0.149 HD
BRANCH  11  15
ATOM     15  C   UNL     1      -0.747  -3.419  -0.785  0.00  0.00    +0.104 C 
BRANCH  15  16
ATOM     16  C   UNL     1      -0.331  -2.031  -1.275  0.00  0.00    +0.018 C 
BRANCH  16  18
ATOM     17  C   UNL     1       1.612  -0.568  -1.849  0.00  0.00    +0.004 C 
ATOM     18  C   UNL     1       1.195  -1.956  -1.359  0.00  0.00    -0.002 C 
ENDBRANCH  16  18
ENDBRANCH  15  16
ENDBRANCH  11  15
ENDBRANCH   1  12
BRANCH   1  19
ATOM     19  N   UNL     1      -4.707  -6.030   0.258  0.00  0.00    -0.255 N 
ATOM     20  C   UNL     1      -4.410  -6.418   1.514  0.00  0.00    +0.225 C 
ATOM     21  O   UNL     1      -3.736  -5.705   2.226  0.00  0.00    -0.275 OA
BRANCH  19  22
ATOM     22  C   UNL     1      -5.396  -6.896  -0.598  0.00  0.00    +0.037 A 
ATOM     23  C   UNL     1      -4.790  -8.064  -1.042  0.00  0.00    +0.023 A 
ATOM     24  C   UNL     1      -5.473  -8.917  -1.887  0.00  0.00    +0.002 A 
ATOM     25  C   UNL     1      -6.760  -8.609  -2.290  0.00  0.00    +0.000 A 
ATOM     26  C   UNL     1      -7.366  -7.447  -1.849  0.00  0.00    +0.002 A 
ATOM     27  C   UNL     1      -6.690  -6.593  -1.001  0.00  0.00    +0.023 A 
ENDBRANCH  19  22
BRANCH  20  28
ATOM     28  C   UNL     1      -4.915  -7.740   2.033  0.00  0.00    +0.133 C 
BRANCH  28  29
ATOM     29  C   UNL     1      -4.565  -7.873   3.492  0.00  0.00    -0.019 A 
ATOM     30  C   UNL     1      -3.411  -8.534   3.869  0.00  0.00    +0.005 A 
ATOM     31  C   UNL     1      -3.090  -8.657   5.208  0.00  0.00    +0.002 A 
ATOM     32  C   UNL     1      -3.922  -8.119   6.172  0.00  0.00    +0.021 A 
ATOM     33  C   UNL     1      -5.077  -7.457   5.796  0.00  0.00    +0.060 A 
ATOM     34  C   UNL     1      -5.396  -7.329   4.455  0.00  0.00    +0.063 A 
ATOM     35 CL   UNL     1      -6.841  -6.492   3.981  0.00  0.00    -0.082 Cl
ATOM     36 CL   UNL     1      -6.123  -6.781   7.006  0.00  0.00    -0.082 Cl
ENDBRANCH  28  29
ENDBRANCH  20  28
ENDBRANCH   1  19
TORSDOF 10
