REMARK  Name = ZINC67409105
REMARK  6 active torsions:
REMARK  status: ('A' for Active; 'I' for Inactive)
REMARK    1  A    between atoms: C_1  and  C_2
REMARK    2  A    between atoms: C_2  and  C_4
REMARK    3  A    between atoms: C_2  and  N_12
REMARK    4  A    between atoms: C_4  and  C_5
REMARK    5  A    between atoms: C_8  and  O_11
REMARK    6  A    between atoms: C_19  and  C_22
REMARK                            x       y       z     vdW  Elec       q    Type
REMARK                         _______ _______ _______ _____ _____    ______ ____
ROOT
ATOM      1  N   UNL     1      -1.372  -0.511   0.012  0.00  0.00    -0.296 N 
ATOM      2  C   UNL     1      -2.029  -0.655   1.181  0.00  0.00    +0.303 C 
ATOM      3  O   UNL     1      -1.452  -0.451   2.231  0.00  0.00    -0.253 OA
ATOM      4  N   UNL     1      -3.325  -1.025   1.185  0.00  0.00    -0.281 N 
ATOM      5  C   UNL     1      -4.012  -1.389  -0.065  0.00  0.00    +0.137 C 
ATOM      6  C   UNL     1      -5.322  -0.596  -0.144  0.00  0.00    +0.179 C 
ATOM      7  O   UNL     1      -6.061  -0.786   1.066  0.00  0.00    -0.369 OA
ATOM      8  C   UNL     1      -5.400  -0.301   2.237  0.00  0.00    +0.166 C 
ATOM      9  C   UNL     1      -4.092  -1.083   2.439  0.00  0.00    +0.145 C 
ATOM     10  H   UNL     1      -1.810  -0.745  -0.821  0.00  0.00    +0.151 HD
ENDROOT
BRANCH   8  11
ATOM     11  C   UNL     1      -6.292  -0.495   3.436  0.00  0.00    -0.015 A 
ATOM     12  C   UNL     1      -7.033  -1.656   3.564  0.00  0.00    +0.006 A 
ATOM     13  C   UNL     1      -7.852  -1.836   4.663  0.00  0.00    +0.003 A 
ATOM     14  C   UNL     1      -7.931  -0.856   5.634  0.00  0.00    +0.038 A 
ATOM     15  C   UNL     1      -7.191   0.307   5.506  0.00  0.00    +0.124 A 
ATOM     16  C   UNL     1      -6.366   0.483   4.408  0.00  0.00    +0.044 A 
ATOM     17  F   UNL     1      -7.268   1.266   6.455  0.00  0.00    -0.205 F 
ENDBRANCH   8  11
BRANCH   1  19
ATOM     18  C   UNL     1      -0.021   1.527   0.009  0.00  0.00    +0.028 C 
ATOM     19  C   UNL     1       0.001  -0.002   0.002  0.00  0.00    +0.076 C 
BRANCH  19  20
ATOM     20  C   UNL     1       0.718  -0.496  -1.256  0.00  0.00    +0.057 C 
BRANCH  20  21
ATOM     21  C   UNL     1       0.849  -1.996  -1.204  0.00  0.00    -0.045 A 
ATOM     22  C   UNL     1       1.962  -2.572  -0.618  0.00  0.00    +0.007 A 
ATOM     23  C   UNL     1       2.084  -3.947  -0.569  0.00  0.00    +0.045 A 
ATOM     24  C   UNL     1       1.090  -4.750  -1.109  0.00  0.00    +0.117 A 
ATOM     25  C   UNL     1      -0.025  -4.170  -1.696  0.00  0.00    +0.045 A 
ATOM     26  C   UNL     1      -0.145  -2.795  -1.738  0.00  0.00    +0.007 A 
BRANCH  24  27
ATOM     27  O   UNL     1       1.209  -6.104  -1.062  0.00  0.00    -0.507 OA
ATOM     28  H   UNL     1       0.828  -6.505  -0.269  0.00  0.00    +0.292 HD
ENDBRANCH  24  27
ENDBRANCH  20  21
ENDBRANCH  19  20
ENDBRANCH   1  19
TORSDOF 5
