REMARK  Name = ZINC09296712
REMARK  6 active torsions:
REMARK  status: ('A' for Active; 'I' for Inactive)
REMARK    1  A    between atoms: C_3  and  N_8
REMARK    2  A    between atoms: N_9  and  C_10
REMARK    3  A    between atoms: C_13  and  O_27
REMARK    4  A    between atoms: C_14  and  C_16
REMARK    5  A    between atoms: N_20  and  C_24
REMARK    6  A    between atoms: C_24  and  C_25
REMARK                            x       y       z     vdW  Elec       q    Type
REMARK                         _______ _______ _______ _____ _____    ______ ____
ROOT
ATOM      1  C   UNL     1      -3.751   2.898   1.068  0.00  0.00    +0.087 A 
ATOM      2  C   UNL     1      -2.521   3.430   0.661  0.00  0.00    +0.033 A 
ATOM      3  C   UNL     1      -2.435   4.738   0.238  0.00  0.00    +0.048 A 
ATOM      4  C   UNL     1      -3.567   5.541   0.211  0.00  0.00    +0.124 A 
ATOM      5  C   UNL     1      -4.809   5.019   0.616  0.00  0.00    +0.020 A 
ATOM      6  C   UNL     1      -4.897   3.692   1.040  0.00  0.00    +0.041 A 
ENDROOT
BRANCH   5   7
ATOM      7  C   UNL     1      -6.009   5.865   0.587  0.00  0.00    +0.032 C 
ATOM      8  C   UNL     1      -7.177   5.369   0.106  0.00  0.00    +0.077 C 
ATOM      9  C   UNL     1      -7.446   4.088  -0.578  0.00  0.00    +0.259 C 
ATOM     10  O   UNL     1      -6.561   3.281  -0.795  0.00  0.00    -0.269 OA
ATOM     11  N   UNL     1      -8.697   3.862  -0.942  0.00  0.00    -0.244 N 
ATOM     12  C   UNL     1      -9.675   4.759  -0.700  0.00  0.00    +0.121 C 
ATOM     13  S   UNL     1     -11.338   4.650  -1.090  0.00  0.00    -0.027 S 
ATOM     14  S   UNL     1      -8.816   6.084   0.135  0.00  0.00    -0.061 S 
BRANCH  11  15
ATOM     15  C   UNL     1      -9.028   2.609  -1.625  0.00  0.00    +0.240 C 
BRANCH  15  16
ATOM     16  C   UNL     1      -9.396   1.563  -0.605  0.00  0.00    +0.373 C 
ATOM     17  O   UNL     1      -9.383   1.836   0.572  0.00  0.00    -0.245 OA
ATOM     18  O   UNL     1      -9.738   0.328  -1.004  0.00  0.00    -0.245 OA
ENDBRANCH  15  16
ENDBRANCH  11  15
ENDBRANCH   5   7
BRANCH   1  20
ATOM     19  N   UNL     1      -2.757   0.963   1.814  0.00  0.00    -0.149 NA
ATOM     20  N   UNL     1      -3.829   1.601   1.486  0.00  0.00    -0.149 NA
BRANCH  19  23
ATOM     21  C   UNL     1       0.612   1.729   2.996  0.00  0.00    +0.004 A 
ATOM     22  C   UNL     1      -0.440   1.048   2.419  0.00  0.00    +0.029 A 
ATOM     23  C   UNL     1      -1.708   1.634   2.379  0.00  0.00    +0.088 A 
ATOM     24  C   UNL     1      -1.898   2.911   2.914  0.00  0.00    +0.049 A 
ATOM     25  C   UNL     1      -0.836   3.580   3.488  0.00  0.00    +0.043 A 
ATOM     26  C   UNL     1       0.417   2.990   3.529  0.00  0.00    +0.020 A 
ATOM     27 CL   UNL     1      -1.071   5.163   4.160  0.00  0.00    -0.083 Cl
ENDBRANCH  19  23
ENDBRANCH   1  20
BRANCH   4  28
ATOM     28  O   UNL     1      -3.476   6.828  -0.207  0.00  0.00    -0.506 OA
ATOM     29  H   UNL     1      -3.612   6.943  -1.157  0.00  0.00    +0.292 HD
ENDBRANCH   4  28
TORSDOF 6
