REMARK  Name = ZINC64380762
REMARK  5 active torsions:
REMARK  status: ('A' for Active; 'I' for Inactive)
REMARK    1  A    between atoms: C_4  and  C_7
REMARK    2  A    between atoms: C_11  and  C_31
REMARK    3  A    between atoms: N_13  and  C_20
REMARK    4  A    between atoms: C_20  and  C_21
REMARK    5  A    between atoms: C_21  and  C_22
REMARK                            x       y       z     vdW  Elec       q    Type
REMARK                         _______ _______ _______ _____ _____    ______ ____
ROOT
ATOM      1  C   UNL     1       4.534  -0.493  -0.477  0.00  0.00    +0.136 C 
ATOM      2  C   UNL     1       4.311  -1.186  -1.841  0.00  0.00    +0.079 C 
ATOM      3  C   UNL     1       2.953  -0.746  -2.419  0.00  0.00    +0.133 C 
ATOM      4  N   UNL     1       1.945  -1.588  -1.768  0.00  0.00    -0.290 N 
ATOM      5  C   UNL     1       2.503  -2.660  -1.186  0.00  0.00    +0.243 C 
ATOM      6  O   UNL     1       1.888  -3.528  -0.603  0.00  0.00    -0.273 OA
ATOM      7  C   UNL     1       4.021  -2.642  -1.358  0.00  0.00    +0.218 C 
ATOM      8  N   UNL     1       4.663  -2.699  -0.037  0.00  0.00    -0.203 NA
ATOM      9  N   UNL     1       4.928  -1.586   0.422  0.00  0.00    -0.305 N 
ATOM     10  H   UNL     1       5.352  -1.445   1.283  0.00  0.00    +0.183 HD
ENDROOT
BRANCH   1  14
ATOM     11  C   UNL     1       0.920   1.333   0.884  0.00  0.00    +0.000 A 
ATOM     12  C   UNL     1       0.986  -0.039   0.731  0.00  0.00    +0.000 A 
ATOM     13  C   UNL     1       2.155  -0.630   0.290  0.00  0.00    +0.006 A 
ATOM     14  C   UNL     1       3.259   0.151   0.002  0.00  0.00    -0.023 A 
ATOM     15  C   UNL     1       3.193   1.524   0.155  0.00  0.00    +0.006 A 
ATOM     16  C   UNL     1       2.024   2.115   0.597  0.00  0.00    +0.000 A 
ENDBRANCH   1  14
BRANCH   3  17
ATOM     17  C   UNL     1       2.701   0.706  -2.104  0.00  0.00    +0.062 A 
ATOM     18  C   UNL     1       3.753   1.603  -2.128  0.00  0.00    +0.025 A 
ATOM     19  C   UNL     1       3.510   2.936  -1.837  0.00  0.00    +0.003 A 
ATOM     20  C   UNL     1       2.213   3.319  -1.531  0.00  0.00    +0.020 A 
ATOM     21  C   UNL     1       1.212   2.366  -1.526  0.00  0.00    +0.111 A 
ATOM     22  N   UNL     1       1.479   1.107  -1.814  0.00  0.00    -0.258 NA
ENDBRANCH   3  17
BRANCH   4  23
ATOM     23  C   UNL     1       0.510  -1.296  -1.754  0.00  0.00    +0.113 C 
BRANCH  23  24
ATOM     24  C   UNL     1      -0.178  -2.063  -2.885  0.00  0.00    +0.052 C 
BRANCH  24  25
ATOM     25  C   UNL     1      -1.655  -1.762  -2.870  0.00  0.00    -0.040 C 
ATOM     26  C   UNL     1      -2.301  -0.828  -3.605  0.00  0.00    -0.001 A 
ATOM     27  C   UNL     1      -1.841   0.150  -4.597  0.00  0.00    +0.010 A 
ATOM     28  C   UNL     1      -2.745   0.972  -5.177  0.00  0.00    +0.001 A 
ATOM     29  C   UNL     1      -4.108   0.914  -4.853  0.00  0.00    +0.002 A 
ATOM     30  C   UNL     1      -4.607   0.042  -3.951  0.00  0.00    +0.026 A 
ATOM     31  C   UNL     1      -3.745  -0.870  -3.281  0.00  0.00    +0.043 A 
ATOM     32  N   UNL     1      -3.982  -1.794  -2.382  0.00  0.00    -0.380 N 
ATOM     33  C   UNL     1      -2.715  -2.447  -2.037  0.00  0.00    +0.144 C 
ATOM     34  H   UNL     1      -4.851  -2.012  -2.009  0.00  0.00    +0.160 HD
ENDBRANCH  24  25
ENDBRANCH  23  24
ENDBRANCH   4  23
TORSDOF 5
