REMARK  Name = ZINC30465352
REMARK  8 active torsions:
REMARK  status: ('A' for Active; 'I' for Inactive)
REMARK    1  A    between atoms: C_1  and  C_2
REMARK    2  A    between atoms: C_2  and  C_4
REMARK    3  A    between atoms: C_2  and  N_11
REMARK    4  A    between atoms: C_12  and  C_14
REMARK    5  A    between atoms: C_14  and  C_15
REMARK    6  A    between atoms: C_15  and  C_16
REMARK    7  A    between atoms: C_16  and  C_17
REMARK    8  A    between atoms: C_17  and  C_18
REMARK                            x       y       z     vdW  Elec       q    Type
REMARK                         _______ _______ _______ _____ _____    ______ ____
ROOT
ATOM      1  C   UNL     1       0.712  -1.094  -3.598  0.00  0.00    +0.096 C 
ENDROOT
BRANCH   1   3
ATOM      2  N   UNL     1       0.688  -0.476  -1.203  0.00  0.00    -0.309 N 
ATOM      3  C   UNL     1       0.006  -0.608  -2.358  0.00  0.00    +0.213 C 
ATOM      4  O   UNL     1      -1.175  -0.336  -2.400  0.00  0.00    -0.276 OA
ATOM      5  H   UNL     1       1.632  -0.695  -1.170  0.00  0.00    +0.149 HD
BRANCH   2   7
ATOM      6  C   UNL     1      -0.019   1.526   0.010  0.00  0.00    +0.033 C 
ATOM      7  C   UNL     1       0.002  -0.004   0.002  0.00  0.00    +0.100 C 
BRANCH   7   8
ATOM      8  C   UNL     1       0.731  -0.503   1.223  0.00  0.00    -0.026 A 
ATOM      9  C   UNL     1       2.113  -0.514   1.247  0.00  0.00    +0.005 A 
ATOM     10  C   UNL     1       2.782  -0.971   2.366  0.00  0.00    +0.001 A 
ATOM     11  C   UNL     1       2.070  -1.419   3.463  0.00  0.00    +0.015 A 
ATOM     12  C   UNL     1       0.687  -1.409   3.440  0.00  0.00    +0.018 A 
ATOM     13  C   UNL     1       0.018  -0.945   2.321  0.00  0.00    +0.020 A 
ATOM     14 BR   UNL     1      -0.289  -2.021   4.939  0.00  0.00    -0.050 Br
ENDBRANCH   7   8
ENDBRANCH   2   7
ENDBRANCH   1   3
BRANCH   1  15
ATOM     15  C   UNL     1      -0.282  -1.153  -4.761  0.00  0.00    +0.009 C 
BRANCH  15  16
ATOM     16  C   UNL     1       0.434  -1.646  -6.019  0.00  0.00    +0.002 C 
BRANCH  16  17
ATOM     17  C   UNL     1      -0.559  -1.705  -7.181  0.00  0.00    +0.016 C 
BRANCH  17  18
ATOM     18  C   UNL     1       0.157  -2.198  -8.440  0.00  0.00    +0.069 C 
ATOM     19  C   UNL     1      -0.824  -2.312  -9.627  0.00  0.00    +0.108 C 
ATOM     20  C   UNL     1      -0.233  -1.845 -10.961  0.00  0.00    +0.105 C 
ATOM     21  C   UNL     1       1.223  -1.343 -10.852  0.00  0.00    +0.093 C 
ATOM     22  S   UNL     1       1.344  -0.931  -9.067  0.00  0.00    -0.154 S 
ATOM     23  N   UNL     1      -1.093  -0.718 -11.357  0.00  0.00    -0.294 N 
ATOM     24  C   UNL     1      -2.037  -0.540 -10.423  0.00  0.00    +0.300 C 
ATOM     25  O   UNL     1      -2.887   0.326 -10.496  0.00  0.00    -0.253 OA
ATOM     26  N   UNL     1      -1.954  -1.396  -9.406  0.00  0.00    -0.294 N 
ATOM     27  H   UNL     1      -0.992  -0.190 -12.164  0.00  0.00    +0.151 HD
ATOM     28  H   UNL     1      -2.551  -1.412  -8.642  0.00  0.00    +0.151 HD
ENDBRANCH  17  18
ENDBRANCH  16  17
ENDBRANCH  15  16
ENDBRANCH   1  15
TORSDOF 7
