REMARK  Name = ZINC09090893
REMARK  5 active torsions:
REMARK  status: ('A' for Active; 'I' for Inactive)
REMARK    1  A    between atoms: C_4  and  C_7
REMARK    2  A    between atoms: C_7  and  N_8
REMARK    3  A    between atoms: C_9  and  N_28
REMARK    4  A    between atoms: C_10  and  C_22
REMARK    5  A    between atoms: C_14  and  N_19
REMARK                            x       y       z     vdW  Elec       q    Type
REMARK                         _______ _______ _______ _____ _____    ______ ____
ROOT
ATOM      1  N   UNL     1      -3.662   3.141  -0.172  0.00  0.00    -0.292 N 
ATOM      2  C   UNL     1      -3.656   1.777  -0.131  0.00  0.00    +0.109 A 
ATOM      3  C   UNL     1      -2.494   1.060   0.077  0.00  0.00    +0.046 A 
ATOM      4  C   UNL     1      -1.231   1.788   0.251  0.00  0.00    -0.000 A 
ATOM      5  C   UNL     1      -0.022   1.127   0.469  0.00  0.00    +0.011 A 
ATOM      6  C   UNL     1       1.124   1.855   0.631  0.00  0.00    +0.033 A 
ATOM      7  C   UNL     1       1.098   3.244   0.586  0.00  0.00    +0.127 A 
ATOM      8  C   UNL     1      -0.073   3.917   0.378  0.00  0.00    +0.046 A 
ATOM      9  C   UNL     1      -1.259   3.201   0.210  0.00  0.00    +0.050 A 
ATOM     10  C   UNL     1      -2.542   3.872  -0.015  0.00  0.00    +0.261 A 
ATOM     11  O   UNL     1      -2.596   5.088  -0.060  0.00  0.00    -0.267 OA
ENDROOT
BRANCH   3  12
ATOM     12  C   UNL     1      -2.520  -0.417   0.117  0.00  0.00    +0.075 A 
ATOM     13  C   UNL     1      -1.837  -1.149  -0.858  0.00  0.00    +0.028 A 
ATOM     14  C   UNL     1      -1.867  -2.530  -0.802  0.00  0.00    +0.004 A 
ATOM     15  C   UNL     1      -2.587  -3.138   0.218  0.00  0.00    +0.020 A 
ATOM     16  C   UNL     1      -3.244  -2.354   1.146  0.00  0.00    +0.111 A 
ATOM     17  N   UNL     1      -3.197  -1.039   1.076  0.00  0.00    -0.255 NA
ENDBRANCH   3  12
BRANCH   7  18
ATOM     18  N   UNL     1       2.357   4.004   0.764  0.00  0.00    +0.056 N 
ATOM     19  O   UNL     1       3.405   3.412   0.949  0.00  0.00    -0.126 OA
ATOM     20  O   UNL     1       2.344   5.221   0.726  0.00  0.00    -0.126 OA
ENDBRANCH   7  18
BRANCH   2  21
ATOM     21  N   UNL     1      -4.841   1.097  -0.300  0.00  0.00    -0.344 N 
ATOM     22  H   UNL     1      -5.678   1.585  -0.348  0.00  0.00    +0.144 HD
ATOM     23  H   UNL     1      -4.839   0.130  -0.370  0.00  0.00    +0.144 HD
ENDBRANCH   2  21
BRANCH   1  24
ATOM     24  C   UNL     1      -4.933   3.835  -0.395  0.00  0.00    +0.161 C 
BRANCH  24  28
ATOM     25  C   UNL     1      -5.534   4.391  -4.588  0.00  0.00    +0.000 A 
ATOM     26  C   UNL     1      -6.002   3.247  -3.968  0.00  0.00    +0.000 A 
ATOM     27  C   UNL     1      -5.807   3.067  -2.612  0.00  0.00    +0.005 A 
ATOM     28  C   UNL     1      -5.144   4.031  -1.875  0.00  0.00    -0.028 A 
ATOM     29  C   UNL     1      -4.681   5.177  -2.493  0.00  0.00    +0.005 A 
ATOM     30  C   UNL     1      -4.871   5.355  -3.851  0.00  0.00    +0.000 A 
ENDBRANCH  24  28
ENDBRANCH   1  24
TORSDOF 5
