REMARK  Name = ZINC37738276
REMARK  3 active torsions:
REMARK  status: ('A' for Active; 'I' for Inactive)
REMARK    1  A    between atoms: C_11  and  N_13
REMARK    2  A    between atoms: N_13  and  C_14
REMARK    3  A    between atoms: C_14  and  C_15
REMARK                            x       y       z     vdW  Elec       q    Type
REMARK                         _______ _______ _______ _____ _____    ______ ____
ROOT
ATOM      1  C   UNL     1      -0.017   1.379   0.010  0.00  0.00    +0.015 A 
ATOM      2  C   UNL     1       1.175   2.084   0.002  0.00  0.00    +0.005 A 
ATOM      3  C   UNL     1       2.373   1.407  -0.013  0.00  0.00    -0.031 A 
ATOM      4  C   UNL     1       2.405   0.018  -0.021  0.00  0.00    +0.036 A 
ATOM      5  C   UNL     1       1.203  -0.685  -0.013  0.00  0.00    +0.038 A 
ATOM      6  C   UNL     1       0.002  -0.004   0.002  0.00  0.00    +0.020 A 
ATOM      7 BR   UNL     1      -1.625  -0.967   0.013  0.00  0.00    -0.050 Br
ATOM      8  N   UNL     1       3.726  -0.434  -0.036  0.00  0.00    -0.286 N 
ATOM      9  C   UNL     1       4.609   0.578  -0.039  0.00  0.00    +0.208 C 
ATOM     10  O   UNL     1       5.818   0.479  -0.051  0.00  0.00    -0.277 OA
ATOM     11  C   UNL     1       3.813   1.866  -0.024  0.00  0.00    +0.049 C 
ATOM     12  H   UNL     1       3.977  -1.371  -0.043  0.00  0.00    +0.155 HD
ENDROOT
BRANCH  11  13
ATOM     13  N   UNL     1       4.091   2.657  -1.230  0.00  0.00    +0.390 N 
ATOM     14  H   UNL     1       4.001   2.070  -2.046  0.00  0.00    -0.084 HD
ATOM     15  H   UNL     1       3.435   3.421  -1.291  0.00  0.00    -0.084 HD
BRANCH  13  16
ATOM     16  C   UNL     1       5.458   3.191  -1.161  0.00  0.00    -0.075 C 
BRANCH  16  17
ATOM     17  C   UNL     1       5.748   4.015  -2.417  0.00  0.00    -0.000 C 
ATOM     18  C   UNL     1       7.210   4.523  -2.405  0.00  0.00    +0.032 C 
ATOM     19  C   UNL     1       7.056   5.967  -2.949  0.00  0.00    +0.160 C 
ATOM     20  O   UNL     1       5.811   6.413  -2.370  0.00  0.00    -0.380 OA
ATOM     21  C   UNL     1       4.898   5.300  -2.427  0.00  0.00    +0.161 C 
ENDBRANCH  16  17
ENDBRANCH  13  16
ENDBRANCH  11  13
TORSDOF 3
