REMARK  Name = ZINC09138105
REMARK  9 active torsions:
REMARK  status: ('A' for Active; 'I' for Inactive)
REMARK    1  A    between atoms: C_1  and  C_2
REMARK    2  A    between atoms: C_4  and  C_33
REMARK    3  A    between atoms: C_6  and  N_8
REMARK    4  A    between atoms: C_9  and  C_11
REMARK    5  A    between atoms: N_13  and  C_14
REMARK    6  A    between atoms: C_14  and  C_15
REMARK    7  A    between atoms: C_15  and  C_17
REMARK    8  A    between atoms: C_15  and  N_69
REMARK    9  A    between atoms: N_26  and  C_27
REMARK                            x       y       z     vdW  Elec       q    Type
REMARK                         _______ _______ _______ _____ _____    ______ ____
ROOT
ATOM      1  C   UNL     1      -0.581   0.211  -0.090  0.00  0.00    -0.020 C 
ENDROOT
BRANCH   1   2
ATOM      2  C   UNL     1      -1.385   0.734   1.072  0.00  0.00    -0.059 A 
ATOM      3  C   UNL     1      -1.882   2.024   1.047  0.00  0.00    +0.004 A 
ATOM      4  C   UNL     1      -2.615   2.501   2.113  0.00  0.00    +0.023 A 
ATOM      5  C   UNL     1      -2.861   1.688   3.221  0.00  0.00    +0.033 A 
ATOM      6  C   UNL     1      -2.366   0.396   3.239  0.00  0.00    -0.026 A 
ATOM      7  C   UNL     1      -1.632  -0.077   2.162  0.00  0.00    +0.007 A 
ATOM      8  C   UNL     1      -2.606  -0.536   4.400  0.00  0.00    +0.038 C 
ATOM      9  C   UNL     1      -3.080   0.266   5.614  0.00  0.00    +0.024 C 
ATOM     10  C   UNL     1      -4.188   1.218   5.147  0.00  0.00    +0.105 C 
ATOM     11  N   UNL     1      -3.596   2.233   4.273  0.00  0.00    -0.333 N 
ATOM     12  C   UNL     1      -4.620   3.160   3.774  0.00  0.00    +0.129 C 
ENDBRANCH   1   2
BRANCH   1  18
ATOM     13  C   UNL     1      -2.589   0.276  -1.442  0.00  0.00    -0.078 C 
ATOM     14  C   UNL     1      -3.217   0.900  -2.690  0.00  0.00    -0.019 C 
ATOM     15  C   UNL     1      -2.451   0.432  -3.930  0.00  0.00    -0.004 C 
ATOM     16  C   UNL     1      -0.977   0.820  -3.785  0.00  0.00    -0.019 C 
ATOM     17  C   UNL     1      -0.413   0.198  -2.505  0.00  0.00    -0.078 C 
ATOM     18  N   UNL     1      -1.178   0.708  -1.348  0.00  0.00    +0.385 N 
ATOM     19  H   UNL     1      -1.143   1.734  -1.351  0.00  0.00    -0.081 HD
ENDBRANCH   1  18
BRANCH   1  20
ATOM     20  C   UNL     1       0.856   0.725   0.012  0.00  0.00    +0.094 C 
BRANCH  20  23
ATOM     21  C   UNL     1       2.718   0.591   1.578  0.00  0.00    +0.299 C 
ATOM     22  O   UNL     1       3.313   1.398   0.895  0.00  0.00    -0.265 OA
ATOM     23  N   UNL     1       1.482   0.189   1.223  0.00  0.00    -0.309 N 
ATOM     24  H   UNL     1       1.006  -0.456   1.770  0.00  0.00    +0.149 HD
BRANCH  21  26
ATOM     25  N   UNL     1       4.591   0.447   3.168  0.00  0.00    -0.278 N 
ATOM     26  C   UNL     1       3.355   0.044   2.813  0.00  0.00    +0.303 C 
ATOM     27  O   UNL     1       2.760  -0.763   3.497  0.00  0.00    -0.265 OA
ATOM     28  H   UNL     1       5.096   1.035   2.585  0.00  0.00    +0.155 HD
BRANCH  25  34
ATOM     29  C   UNL     1       8.541  -0.882   5.775  0.00  0.00    +0.044 C 
ATOM     30  C   UNL     1       7.058  -0.636   5.669  0.00  0.00    -0.048 A 
ATOM     31  C   UNL     1       6.244  -0.836   6.769  0.00  0.00    +0.006 A 
ATOM     32  C   UNL     1       4.883  -0.610   6.676  0.00  0.00    -0.048 A 
ATOM     33  C   UNL     1       4.332  -0.185   5.484  0.00  0.00    +0.026 A 
ATOM     34  C   UNL     1       5.146   0.017   4.377  0.00  0.00    +0.034 A 
ATOM     35  C   UNL     1       6.512  -0.216   4.472  0.00  0.00    +0.026 A 
ATOM     36  C   UNL     1       4.000  -0.829   7.878  0.00  0.00    +0.044 C 
ENDBRANCH  25  34
ENDBRANCH  21  26
ENDBRANCH  20  23
ENDBRANCH   1  20
TORSDOF 6
