REMARK  Name = ZINC20885779
REMARK  6 active torsions:
REMARK  status: ('A' for Active; 'I' for Inactive)
REMARK    1  A    between atoms: C_1  and  O_2
REMARK    2  A    between atoms: O_2  and  C_3
REMARK    3  A    between atoms: C_5  and  C_12
REMARK    4  A    between atoms: C_6  and  O_10
REMARK    5  A    between atoms: O_10  and  C_11
REMARK    6  A    between atoms: C_17  and  C_22
REMARK                            x       y       z     vdW  Elec       q    Type
REMARK                         _______ _______ _______ _____ _____    ______ ____
ROOT
ATOM      1  C   UNL     1       4.713   1.005  -0.130  0.00  0.00    +0.140 C 
ATOM      2  C   UNL     1       5.107   0.644   1.282  0.00  0.00    +0.037 C 
ATOM      3  C   UNL     1       4.984  -0.568   1.850  0.00  0.00    +0.017 C 
ATOM      4  C   UNL     1       5.428  -0.797   3.285  0.00  0.00    +0.060 C 
ATOM      5  C   UNL     1       5.233   0.478   4.103  0.00  0.00    +0.039 C 
ATOM      6  C   UNL     1       6.072   1.583   3.451  0.00  0.00    +0.088 C 
ATOM      7  C   UNL     1       5.644   1.725   2.021  0.00  0.00    +0.163 C 
ATOM      8  O   UNL     1       5.762   2.806   1.477  0.00  0.00    -0.292 OA
ATOM      9  N   UNL     1       4.488  -1.667   1.226  0.00  0.00    -0.316 N 
ATOM     10  C   UNL     1       3.326  -1.693   0.464  0.00  0.00    +0.052 A 
ATOM     11  C   UNL     1       2.212  -2.426   0.836  0.00  0.00    +0.025 A 
ATOM     12  C   UNL     1       1.104  -2.445   0.006  0.00  0.00    +0.002 A 
ATOM     13  C   UNL     1       1.112  -1.741  -1.184  0.00  0.00    +0.002 A 
ATOM     14  C   UNL     1       2.218  -0.993  -1.549  0.00  0.00    +0.025 A 
ATOM     15  C   UNL     1       3.320  -0.954  -0.710  0.00  0.00    +0.049 A 
ATOM     16  N   UNL     1       4.410  -0.128  -0.978  0.00  0.00    -0.331 N 
ATOM     17  H   UNL     1       5.016  -2.629   1.304  0.00  0.00    +0.152 HD
ATOM     18  H   UNL     1       5.043  -0.347  -1.850  0.00  0.00    +0.147 HD
ENDROOT
BRANCH   1  21
ATOM     19  C   UNL     1       1.625   2.782   1.131  0.00  0.00    +0.135 A 
ATOM     20  C   UNL     1       2.742   1.960   1.079  0.00  0.00    +0.056 A 
ATOM     21  C   UNL     1       3.500   1.898  -0.074  0.00  0.00    +0.022 A 
ATOM     22  C   UNL     1       3.146   2.656  -1.179  0.00  0.00    +0.127 A 
ATOM     23  C   UNL     1       2.030   3.478  -1.128  0.00  0.00    +0.065 A 
ATOM     24  C   UNL     1       1.267   3.536   0.023  0.00  0.00    +0.063 A 
ATOM     25 BR   UNL     1      -0.259   4.650   0.091  0.00  0.00    -0.046 Br
BRANCH  19  27
ATOM     26  C   UNL     1       1.366   2.128   3.403  0.00  0.00    +0.277 C 
ATOM     27  O   UNL     1       0.879   2.844   2.266  0.00  0.00    -0.494 OA
ENDBRANCH  19  27
BRANCH  22  28
ATOM     28  O   UNL     1       3.893   2.595  -2.314  0.00  0.00    -0.495 OA
ATOM     29  C   UNL     1       3.471   3.403  -3.414  0.00  0.00    +0.277 C 
ENDBRANCH  22  28
ENDBRANCH   1  21
BRANCH   5  30
ATOM     30  C   UNL     1       5.697   0.253   5.519  0.00  0.00    -0.006 A 
ATOM     31  C   UNL     1       5.000   0.375   6.675  0.00  0.00    +0.011 A 
ATOM     32  C   UNL     1       5.638   0.114   7.873  0.00  0.00    +0.008 A 
ATOM     33  C   UNL     1       6.941  -0.258   7.856  0.00  0.00    +0.045 A 
ATOM     34  S   UNL     1       7.304  -0.253   6.108  0.00  0.00    -0.101 S 
ENDBRANCH   5  30
TORSDOF 4
