REMARK  Name = ZINC14479225
REMARK  5 active torsions:
REMARK  status: ('A' for Active; 'I' for Inactive)
REMARK    1  A    between atoms: C_1  and  O_2
REMARK    2  A    between atoms: O_2  and  C_3
REMARK    3  A    between atoms: C_6  and  C_11
REMARK    4  A    between atoms: C_8  and  O_9
REMARK    5  A    between atoms: O_9  and  C_10
REMARK                            x       y       z     vdW  Elec       q    Type
REMARK                         _______ _______ _______ _____ _____    ______ ____
ROOT
ATOM      1  C   UNL     1      -1.997   0.673  -1.434  0.00  0.00    +0.105 C 
ATOM      2  C   UNL     1      -0.824   1.630  -1.204  0.00  0.00    +0.029 C 
ATOM      3  C   UNL     1      -0.013   1.086   0.008  0.00  0.00    +0.033 C 
ATOM      4  C   UNL     1      -0.780   1.603   1.209  0.00  0.00    -0.030 C 
ATOM      5  C   UNL     1      -1.514   2.639   0.871  0.00  0.00    -0.023 C 
ATOM      6  C   UNL     1      -1.335   2.951  -0.596  0.00  0.00    +0.050 C 
ATOM      7  C   UNL     1      -2.612   3.422  -1.214  0.00  0.00    -0.001 A 
ATOM      8  C   UNL     1      -3.375   2.618  -2.047  0.00  0.00    +0.034 A 
ATOM      9  C   UNL     1      -4.554   3.097  -2.604  0.00  0.00    +0.043 A 
ATOM     10  C   UNL     1      -4.976   4.384  -2.328  0.00  0.00    +0.044 A 
ATOM     11  C   UNL     1      -4.220   5.190  -1.496  0.00  0.00    +0.040 A 
ATOM     12  C   UNL     1      -3.048   4.713  -0.943  0.00  0.00    +0.048 A 
ATOM     13 CL   UNL     1      -2.110   5.737   0.100  0.00  0.00    -0.083 Cl
ATOM     14 CL   UNL     1      -6.449   4.986  -3.024  0.00  0.00    -0.083 Cl
ATOM     15  N   UNL     1      -2.962   1.313  -2.335  0.00  0.00    -0.336 N 
ATOM     16  H   UNL     1      -3.306   0.842  -3.110  0.00  0.00    +0.147 HD
ENDROOT
BRANCH   1  20
ATOM     17  C   UNL     1      -0.566  -2.944  -3.212  0.00  0.00    +0.162 A 
ATOM     18  C   UNL     1      -0.770  -1.818  -3.993  0.00  0.00    +0.050 A 
ATOM     19  C   UNL     1      -1.233  -0.650  -3.416  0.00  0.00    +0.009 A 
ATOM     20  C   UNL     1      -1.493  -0.602  -2.059  0.00  0.00    -0.023 A 
ATOM     21  C   UNL     1      -1.285  -1.720  -1.272  0.00  0.00    +0.055 A 
ATOM     22  C   UNL     1      -0.827  -2.895  -1.845  0.00  0.00    +0.162 A 
BRANCH  17  24
ATOM     23  C   UNL     1       0.135  -4.070  -5.186  0.00  0.00    +0.277 C 
ATOM     24  O   UNL     1      -0.111  -4.093  -3.778  0.00  0.00    -0.491 OA
ENDBRANCH  17  24
BRANCH  22  25
ATOM     25  O   UNL     1      -0.628  -3.998  -1.074  0.00  0.00    -0.491 OA
ATOM     26  C   UNL     1      -0.918  -3.875   0.320  0.00  0.00    +0.277 C 
ENDBRANCH  22  25
ENDBRANCH   1  20
TORSDOF 3
