REMARK  Name = ZINC39488130
REMARK  10 active torsions:
REMARK  status: ('A' for Active; 'I' for Inactive)
REMARK    1  A    between atoms: C_1  and  C_2
REMARK    2  A    between atoms: C_2  and  C_30
REMARK    3  A    between atoms: N_4  and  C_23
REMARK    4  A    between atoms: N_7  and  C_8
REMARK    5  A    between atoms: C_8  and  C_9
REMARK    6  A    between atoms: C_9  and  C_17
REMARK    7  A    between atoms: N_12  and  O_15
REMARK    8  A    between atoms: O_15  and  C_16
REMARK    9  A    between atoms: C_28  and  O_29
REMARK   10  A    between atoms: C_35  and  O_36
REMARK                            x       y       z     vdW  Elec       q    Type
REMARK                         _______ _______ _______ _____ _____    ______ ____
ROOT
ATOM      1  C   UNL     1       2.084  -2.999   0.585  0.00  0.00    +0.039 C 
ATOM      2  C   UNL     1       1.762  -1.562   0.171  0.00  0.00    +0.081 C 
ATOM      3  C   UNL     1       1.254  -1.518  -1.284  0.00  0.00    +0.146 C 
ATOM      4  N   UNL     1      -0.108  -0.976  -1.165  0.00  0.00    -0.250 N 
ATOM      5  C   UNL     1      -0.374  -0.735   0.126  0.00  0.00    +0.310 C 
ATOM      6  O   UNL     1      -1.435  -0.281   0.510  0.00  0.00    -0.252 OA
ATOM      7  N   UNL     1       0.633  -1.039   0.954  0.00  0.00    -0.274 N 
ENDROOT
BRANCH   4   8
ATOM      8  C   UNL     1      -0.987  -0.747  -2.232  0.00  0.00    +0.079 A 
ATOM      9  C   UNL     1      -1.860  -1.745  -2.640  0.00  0.00    +0.027 A 
ATOM     10  C   UNL     1      -2.726  -1.517  -3.693  0.00  0.00    +0.002 A 
ATOM     11  C   UNL     1      -2.724  -0.296  -4.342  0.00  0.00    +0.004 A 
ATOM     12  C   UNL     1      -1.857   0.703  -3.941  0.00  0.00    +0.047 A 
ATOM     13  C   UNL     1      -0.990   0.484  -2.883  0.00  0.00    +0.138 A 
BRANCH  13  14
ATOM     14  O   UNL     1      -0.140   1.468  -2.484  0.00  0.00    -0.505 OA
ATOM     15  H   UNL     1       0.716   1.455  -2.934  0.00  0.00    +0.292 HD
ENDBRANCH  13  14
ENDBRANCH   4   8
BRANCH   2  16
ATOM     16  C   UNL     1       2.974  -0.681   0.337  0.00  0.00    +0.019 A 
ATOM     17  C   UNL     1       2.896   0.464   1.105  0.00  0.00    +0.009 A 
ATOM     18  C   UNL     1       4.007   1.273   1.258  0.00  0.00    +0.001 A 
ATOM     19  C   UNL     1       5.199   0.937   0.643  0.00  0.00    +0.004 A 
ATOM     20  C   UNL     1       5.283  -0.208  -0.126  0.00  0.00    +0.046 A 
ATOM     21  C   UNL     1       4.170  -1.024  -0.276  0.00  0.00    +0.122 A 
BRANCH  21  22
ATOM     22  O   UNL     1       4.251  -2.153  -1.028  0.00  0.00    -0.506 OA
ATOM     23  H   UNL     1       4.039  -2.020  -1.962  0.00  0.00    +0.292 HD
ENDBRANCH  21  22
ENDBRANCH   2  16
BRANCH   7  24
ATOM     24  C   UNL     1       0.613  -0.877   2.410  0.00  0.00    +0.117 C 
BRANCH  24  25
ATOM     25  C   UNL     1      -0.237  -1.984   3.035  0.00  0.00    -0.008 C 
ATOM     26  C   UNL     1       0.474  -3.330   2.869  0.00  0.00    +0.026 C 
ATOM     27  C   UNL     1       1.809  -3.292   3.614  0.00  0.00    +0.115 C 
ATOM     28  N   UNL     1       1.570  -3.018   5.037  0.00  0.00    -0.188 NA
ATOM     29  C   UNL     1       0.931  -1.709   5.225  0.00  0.00    +0.115 C 
ATOM     30  C   UNL     1      -0.431  -1.700   4.527  0.00  0.00    +0.026 C 
BRANCH  25  31
ATOM     31  C   UNL     1      -1.600  -2.035   2.343  0.00  0.00    -0.003 C 
ATOM     32  C   UNL     1      -2.394  -0.772   2.685  0.00  0.00    +0.004 C 
ATOM     33  C   UNL     1      -3.757  -0.823   1.993  0.00  0.00    +0.000 C 
ATOM     34  C   UNL     1      -4.527  -2.055   2.472  0.00  0.00    +0.000 C 
ATOM     35  C   UNL     1      -3.734  -3.318   2.130  0.00  0.00    +0.000 C 
ATOM     36  C   UNL     1      -2.370  -3.267   2.822  0.00  0.00    +0.004 C 
ENDBRANCH  25  31
BRANCH  28  37
ATOM     37  O   UNL     1       2.811  -3.111   5.805  0.00  0.00    -0.300 OA
ATOM     38  C   UNL     1       2.784  -4.101   6.836  0.00  0.00    +0.221 C 
ENDBRANCH  28  37
ENDBRANCH  24  25
ENDBRANCH   7  24
TORSDOF 8
