REMARK  Name = ZINC39794227
REMARK  7 active torsions:
REMARK  status: ('A' for Active; 'I' for Inactive)
REMARK    1  A    between atoms: C_1  and  C_2
REMARK    2  A    between atoms: C_5  and  C_11
REMARK    3  A    between atoms: C_6  and  N_8
REMARK    4  A    between atoms: C_14  and  C_16
REMARK    5  A    between atoms: C_18  and  C_33
REMARK    6  A    between atoms: C_19  and  N_32
REMARK    7  A    between atoms: C_29  and  C_30
REMARK                            x       y       z     vdW  Elec       q    Type
REMARK                         _______ _______ _______ _____ _____    ______ ____
ROOT
ATOM      1  C   UNL     1       1.351  -7.517   1.011  0.00  0.00    +0.141 C 
ATOM      2  C   UNL     1       1.146  -7.500   2.512  0.00  0.00    +0.081 C 
ATOM      3  C   UNL     1       2.230  -7.440   3.320  0.00  0.00    +0.108 C 
ATOM      4  N   UNL     1       3.543  -7.392   2.851  0.00  0.00    -0.249 N 
ATOM      5  C   UNL     1       4.667  -7.331   3.697  0.00  0.00    +0.054 A 
ATOM      6  C   UNL     1       4.641  -7.309   5.102  0.00  0.00    +0.025 A 
ATOM      7  C   UNL     1       5.809  -7.247   5.825  0.00  0.00    +0.002 A 
ATOM      8  C   UNL     1       7.041  -7.206   5.196  0.00  0.00    +0.001 A 
ATOM      9  C   UNL     1       7.094  -7.227   3.813  0.00  0.00    +0.017 A 
ATOM     10  C   UNL     1       5.924  -7.287   3.092  0.00  0.00    +0.036 A 
ATOM     11  S   UNL     1       5.548  -7.332   1.357  0.00  0.00    -0.071 S 
ATOM     12  C   UNL     1       3.775  -7.405   1.496  0.00  0.00    +0.093 C 
ATOM     13  C   UNL     1       2.795  -7.460   0.547  0.00  0.00    +0.073 C 
ENDROOT
BRANCH   1  17
ATOM     14  C   UNL     1       0.037  -4.269  -0.024  0.00  0.00    +0.137 A 
ATOM     15  C   UNL     1      -0.791  -5.079  -0.735  0.00  0.00    +0.050 A 
ATOM     16  C   UNL     1      -0.410  -6.405  -0.444  0.00  0.00    +0.046 A 
ATOM     17  C   UNL     1       0.621  -6.338   0.422  0.00  0.00    +0.119 A 
ATOM     18  O   UNL     1       0.892  -5.045   0.668  0.00  0.00    -0.459 OA
BRANCH  14  23
ATOM     19  C   UNL     1      -0.078   1.484   0.002  0.00  0.00    +0.044 C 
ATOM     20  C   UNL     1      -0.047  -0.022  -0.005  0.00  0.00    -0.048 A 
ATOM     21  C   UNL     1      -0.039  -0.706  -1.208  0.00  0.00    +0.004 A 
ATOM     22  C   UNL     1      -0.012  -2.085  -1.222  0.00  0.00    +0.014 A 
ATOM     23  C   UNL     1       0.008  -2.791  -0.018  0.00  0.00    +0.047 A 
ATOM     24  C   UNL     1       0.000  -2.095   1.192  0.00  0.00    +0.137 A 
ATOM     25  C   UNL     1      -0.022  -0.716   1.192  0.00  0.00    +0.036 A 
BRANCH  24  26
ATOM     26  N   UNL     1       0.021  -2.836   2.474  0.00  0.00    +0.057 N 
ATOM     27  O   UNL     1       0.014  -2.232   3.521  0.00  0.00    -0.126 OA
ATOM     28  O   UNL     1       0.045  -4.045   2.473  0.00  0.00    -0.126 OA
ENDBRANCH  24  26
ENDBRANCH  14  23
ENDBRANCH   1  17
BRANCH   3  29
ATOM     29  N   UNL     1       2.026  -7.425   4.679  0.00  0.00    -0.345 N 
ATOM     30  H   UNL     1       1.502  -8.126   5.098  0.00  0.00    +0.144 HD
ATOM     31  H   UNL     1       2.405  -6.714   5.218  0.00  0.00    +0.144 HD
ENDBRANCH   3  29
BRANCH  13  32
ATOM     32  C   UNL     1       3.123  -7.468  -0.847  0.00  0.00    +0.098 C 
ATOM     33  N   UNL     1       3.383  -7.473  -1.952  0.00  0.00    -0.191 NA
ENDBRANCH  13  32
BRANCH   2  34
ATOM     34  C   UNL     1      -0.173  -7.546   3.067  0.00  0.00    +0.099 C 
ATOM     35  N   UNL     1      -1.220  -7.583   3.507  0.00  0.00    -0.191 NA
ENDBRANCH   2  34
TORSDOF 6
