REMARK  Name = ZINC05215004
REMARK  6 active torsions:
REMARK  status: ('A' for Active; 'I' for Inactive)
REMARK    1  A    between atoms: C_1  and  C_2
REMARK    2  A    between atoms: C_5  and  N_7
REMARK    3  A    between atoms: N_9  and  C_22
REMARK    4  A    between atoms: C_13  and  C_14
REMARK    5  A    between atoms: C_17  and  O_20
REMARK    6  A    between atoms: C_22  and  C_23
REMARK                            x       y       z     vdW  Elec       q    Type
REMARK                         _______ _______ _______ _____ _____    ______ ____
ROOT
ATOM      1  N   UNL     1      -2.502   7.473   1.011  0.00  0.00    -0.198 NA
ATOM      2  C   UNL     1      -2.010   6.279   0.755  0.00  0.00    +0.171 C 
ATOM      3  N   UNL     1      -0.695   5.917   0.567  0.00  0.00    -0.242 N 
ATOM      4  C   UNL     1      -0.369   4.659   0.321  0.00  0.00    +0.259 C 
ATOM      5  O   UNL     1       0.789   4.322   0.158  0.00  0.00    -0.269 OA
ATOM      6  C   UNL     1      -1.474   3.685   0.249  0.00  0.00    +0.078 C 
ATOM      7  C   UNL     1      -1.430   2.349   0.011  0.00  0.00    +0.028 C 
ATOM      8  S   UNL     1      -2.885   4.734   0.567  0.00  0.00    -0.049 S 
ENDROOT
BRANCH   1  13
ATOM      9  C   UNL     1       0.586  11.936   0.112  0.00  0.00    +0.075 C 
ATOM     10  C   UNL     1      -0.193  10.724   0.554  0.00  0.00    +0.101 A 
ATOM     11  N   UNL     1      -0.265  10.150   1.738  0.00  0.00    -0.145 NA
ATOM     12  N   UNL     1      -0.972   9.127   1.949  0.00  0.00    -0.121 NA
ATOM     13  C   UNL     1      -1.691   8.563   0.978  0.00  0.00    +0.217 A 
ATOM     14  S   UNL     1      -1.277   9.650  -0.383  0.00  0.00    -0.031 S 
ENDBRANCH   1  13
BRANCH   7  15
ATOM     15  C   UNL     1      -0.174   1.720  -0.418  0.00  0.00    -0.024 A 
ATOM     16  C   UNL     1       0.639   2.351  -1.368  0.00  0.00    +0.011 A 
ATOM     17  C   UNL     1       1.812   1.754  -1.770  0.00  0.00    +0.046 A 
ATOM     18  C   UNL     1       2.191   0.528  -1.235  0.00  0.00    +0.117 A 
ATOM     19  C   UNL     1       1.388  -0.102  -0.292  0.00  0.00    +0.046 A 
ATOM     20  C   UNL     1       0.212   0.485   0.118  0.00  0.00    +0.011 A 
BRANCH  18  21
ATOM     21  O   UNL     1       3.349  -0.056  -1.635  0.00  0.00    -0.507 OA
ATOM     22  H   UNL     1       3.252  -0.641  -2.399  0.00  0.00    +0.292 HD
ENDBRANCH  18  21
ENDBRANCH   7  15
BRANCH   3  23
ATOM     23  C   UNL     1       0.356   6.936   0.646  0.00  0.00    +0.142 C 
BRANCH  23  24
ATOM     24  C   UNL     1       0.745   7.145   2.087  0.00  0.00    -0.015 C 
ATOM     25  C   UNL     1       1.997   7.022   2.451  0.00  0.00    +0.005 C 
ENDBRANCH  23  24
ENDBRANCH   3  23
TORSDOF 5
