REMARK  Name = ZINC39481340
REMARK  8 active torsions:
REMARK  status: ('A' for Active; 'I' for Inactive)
REMARK    1  A    between atoms: C_1  and  C_2
REMARK    2  A    between atoms: C_2  and  C_3
REMARK    3  A    between atoms: C_3  and  C_4
REMARK    4  A    between atoms: C_7  and  N_18
REMARK    5  A    between atoms: C_8  and  N_10
REMARK    6  A    between atoms: N_18  and  S_19
REMARK    7  A    between atoms: S_19  and  C_22
REMARK    8  A    between atoms: C_27  and  O_28
REMARK                            x       y       z     vdW  Elec       q    Type
REMARK                         _______ _______ _______ _____ _____    ______ ____
ROOT
ATOM      1  C   UNL     1      -0.070  -2.355  -0.338  0.00  0.00    -0.046 A 
ATOM      2  C   UNL     1       1.140  -2.897   0.055  0.00  0.00    +0.005 A 
ATOM      3  C   UNL     1       1.412  -4.233  -0.178  0.00  0.00    +0.026 A 
ATOM      4  C   UNL     1       0.470  -5.033  -0.807  0.00  0.00    +0.069 A 
ATOM      5  C   UNL     1      -0.750  -4.486  -1.203  0.00  0.00    +0.053 A 
ATOM      6  C   UNL     1      -1.017  -3.147  -0.961  0.00  0.00    +0.028 A 
ENDROOT
BRANCH   5   7
ATOM      7  N   UNL     1      -1.706  -5.288  -1.839  0.00  0.00    -0.330 N 
ATOM      8  C   UNL     1      -2.722  -6.014  -1.061  0.00  0.00    +0.086 C 
ATOM      9  C   UNL     1      -4.099  -5.718  -1.666  0.00  0.00    -0.060 C 
ATOM     10  N   UNL     1      -4.084  -6.043  -3.098  0.00  0.00    +0.400 N 
ATOM     11  C   UNL     1      -3.145  -5.160  -3.801  0.00  0.00    +0.119 C 
ATOM     12  C   UNL     1      -1.725  -5.425  -3.303  0.00  0.00    +0.120 C 
ATOM     13  O   UNL     1      -3.215  -5.414  -5.206  0.00  0.00    -0.250 OA
ATOM     14  H   UNL     1      -3.798  -7.003  -3.220  0.00  0.00    -0.082 HD
ATOM     15  H   UNL     1      -5.010  -5.920  -3.479  0.00  0.00    -0.082 HD
ENDBRANCH   5   7
BRANCH   4  16
ATOM     16  N   UNL     1       0.744  -6.385  -1.044  0.00  0.00    -0.214 N 
ATOM     17  H   UNL     1       0.413  -6.813  -1.849  0.00  0.00    +0.174 HD
BRANCH  16  18
ATOM     18  S   UNL     1       1.632  -7.255   0.050  0.00  0.00    +0.076 S 
ATOM     19  O   UNL     1       1.105  -6.951   1.334  0.00  0.00    -0.150 OA
ATOM     20  O   UNL     1       1.705  -8.583  -0.449  0.00  0.00    -0.150 OA
BRANCH  18  21
ATOM     21  C   UNL     1       3.273  -6.613   0.015  0.00  0.00    +0.150 A 
ATOM     22  C   UNL     1       3.806  -6.015   1.141  0.00  0.00    +0.032 A 
ATOM     23  C   UNL     1       5.093  -5.512   1.114  0.00  0.00    +0.002 A 
ATOM     24  C   UNL     1       5.851  -5.605  -0.039  0.00  0.00    +0.004 A 
ATOM     25  C   UNL     1       5.323  -6.203  -1.167  0.00  0.00    +0.047 A 
ATOM     26  C   UNL     1       4.033  -6.714  -1.141  0.00  0.00    +0.143 A 
BRANCH  26  27
ATOM     27  O   UNL     1       3.514  -7.307  -2.248  0.00  0.00    -0.505 OA
ATOM     28  H   UNL     1       3.067  -6.695  -2.849  0.00  0.00    +0.292 HD
ENDBRANCH  26  27
ENDBRANCH  18  21
ENDBRANCH  16  18
ENDBRANCH   4  16
BRANCH   1  29
ATOM     29  C   UNL     1      -0.360  -0.899  -0.081  0.00  0.00    +0.035 C 
BRANCH  29  31
ATOM     30  C   UNL     1      -1.314   0.734   1.551  0.00  0.00    +0.004 C 
ATOM     31  C   UNL     1      -1.020  -0.745   1.290  0.00  0.00    +0.001 C 
ENDBRANCH  29  31
ENDBRANCH   1  29
TORSDOF 7
