REMARK  Name = ZINC57942977
REMARK  7 active torsions:
REMARK  status: ('A' for Active; 'I' for Inactive)
REMARK    1  A    between atoms: C_1  and  C_2
REMARK    2  A    between atoms: C_2  and  N_3
REMARK    3  A    between atoms: C_7  and  C_9
REMARK    4  A    between atoms: C_9  and  N_10
REMARK    5  A    between atoms: N_10  and  C_11
REMARK    6  A    between atoms: C_11  and  C_12
REMARK    7  A    between atoms: C_15  and  O_19
REMARK                            x       y       z     vdW  Elec       q    Type
REMARK                         _______ _______ _______ _____ _____    ______ ____
ROOT
ATOM      1  N   UNL     1      -1.555  -1.710  -2.543  0.00  0.00    +0.381 N 
ATOM      2  H   UNL     1      -1.637  -0.712  -2.416  0.00  0.00    -0.086 HD
ATOM      3  H   UNL     1      -0.582  -1.958  -2.639  0.00  0.00    -0.086 HD
ENDROOT
BRANCH   1   4
ATOM      4  C   UNL     1      -2.124  -2.399  -1.377  0.00  0.00    -0.098 C 
BRANCH   4   9
ATOM      5  N   UNL     1      -1.376  -0.512   0.012  0.00  0.00    +0.380 N 
ATOM      6  C   UNL     1      -2.028  -0.158   1.291  0.00  0.00    -0.079 C 
ATOM      7  C   UNL     1      -2.935  -1.369   1.623  0.00  0.00    -0.020 C 
ATOM      8  C   UNL     1      -2.064  -2.556   1.133  0.00  0.00    -0.019 C 
ATOM      9  C   UNL     1      -1.364  -1.981  -0.117  0.00  0.00    -0.086 C 
ATOM     10  H   UNL     1      -1.894  -0.109  -0.754  0.00  0.00    -0.082 HD
BRANCH   5  12
ATOM     11  C   UNL     1      -0.019   1.526   0.010  0.00  0.00    -0.017 C 
ATOM     12  C   UNL     1       0.002  -0.004   0.002  0.00  0.00    -0.082 C 
ENDBRANCH   5  12
ENDBRANCH   4   9
ENDBRANCH   1   4
BRANCH   1  13
ATOM     13  C   UNL     1      -2.285  -2.111  -3.753  0.00  0.00    -0.047 C 
BRANCH  13  14
ATOM     14  C   UNL     1      -1.701  -1.403  -4.949  0.00  0.00    -0.063 A 
ATOM     15  C   UNL     1      -2.198  -0.171  -5.331  0.00  0.00    +0.005 A 
ATOM     16  C   UNL     1      -1.665   0.480  -6.428  0.00  0.00    +0.047 A 
ATOM     17  C   UNL     1      -0.631  -0.103  -7.145  0.00  0.00    +0.131 A 
ATOM     18  C   UNL     1      -0.135  -1.341  -6.759  0.00  0.00    +0.059 A 
ATOM     19  C   UNL     1      -0.667  -1.985  -5.659  0.00  0.00    +0.020 A 
ATOM     20 BR   UNL     1       1.274  -2.141  -7.734  0.00  0.00    -0.047 Br
BRANCH  17  21
ATOM     21  O   UNL     1      -0.106   0.535  -8.224  0.00  0.00    -0.506 OA
ATOM     22  H   UNL     1       0.634   1.119  -8.013  0.00  0.00    +0.292 HD
ENDBRANCH  17  21
ENDBRANCH  13  14
ENDBRANCH   1  13
TORSDOF 6
