REMARK  Name = ZINC31057895
REMARK  9 active torsions:
REMARK  status: ('A' for Active; 'I' for Inactive)
REMARK    1  A    between atoms: C_1  and  C_2
REMARK    2  A    between atoms: N_7  and  C_9
REMARK    3  A    between atoms: C_9  and  C_10
REMARK    4  A    between atoms: C_13  and  C_16
REMARK    5  A    between atoms: C_16  and  N_17
REMARK    6  A    between atoms: C_18  and  C_20
REMARK    7  A    between atoms: N_25  and  C_27
REMARK    8  A    between atoms: C_27  and  C_28
REMARK    9  A    between atoms: C_30  and  C_33
REMARK                            x       y       z     vdW  Elec       q    Type
REMARK                         _______ _______ _______ _____ _____    ______ ____
ROOT
ATOM      1  N   UNL     1      -0.018   1.461   0.010  0.00  0.00    -0.311 N 
ATOM      2  C   UNL     1      -1.194   2.119   0.019  0.00  0.00    +0.215 C 
ATOM      3  O   UNL     1      -2.236   1.498   0.021  0.00  0.00    -0.276 OA
ATOM      4  H   UNL     1       0.927   2.024   0.009  0.00  0.00    +0.149 HD
ENDROOT
BRANCH   2   5
ATOM      5  C   UNL     1      -1.214   3.626   0.028  0.00  0.00    +0.058 C 
ATOM      6  C   UNL     1      -0.498   4.140   1.279  0.00  0.00    +0.009 C 
ATOM      7  C   UNL     1      -0.576   5.669   1.311  0.00  0.00    -0.018 C 
ATOM      8  C   UNL     1      -2.044   6.101   1.283  0.00  0.00    -0.078 C 
ATOM      9  N   UNL     1      -2.684   5.585   0.066  0.00  0.00    +0.386 N 
ATOM     10  C   UNL     1      -2.664   4.117   0.037  0.00  0.00    -0.065 C 
ATOM     11  H   UNL     1      -2.105   5.946  -0.796  0.00  0.00    -0.081 HD
BRANCH   9  12
ATOM     12  C   UNL     1      -4.056   6.095  -0.063  0.00  0.00    +0.022 C 
BRANCH  12  13
ATOM     13  C   UNL     1      -4.019   7.587  -0.276  0.00  0.00    +0.211 A 
ATOM     14  N   UNL     1      -3.952   8.206  -1.427  0.00  0.00    -0.192 NA
ATOM     15  C   UNL     1      -3.945   9.527  -1.130  0.00  0.00    +0.209 A 
ATOM     16  N   UNL     1      -4.000   9.628   0.176  0.00  0.00    -0.056 NA
ATOM     17  O   UNL     1      -4.043   8.524   0.677  0.00  0.00    -0.340 OA
BRANCH  15  18
ATOM     18  C   UNL     1      -3.882  10.643  -2.095  0.00  0.00    +0.060 A 
ATOM     19  C   UNL     1      -3.868  11.992  -1.855  0.00  0.00    +0.019 A 
ATOM     20  C   UNL     1      -3.804  12.854  -2.925  0.00  0.00    +0.008 A 
ATOM     21  C   UNL     1      -3.759  12.345  -4.184  0.00  0.00    +0.046 A 
ATOM     22  S   UNL     1      -3.797  10.587  -3.877  0.00  0.00    -0.093 S 
ENDBRANCH  15  18
ENDBRANCH  12  13
ENDBRANCH   9  12
ENDBRANCH   2   5
BRANCH   1  23
ATOM     23  C   UNL     1       0.002  -0.004   0.002  0.00  0.00    +0.139 C 
BRANCH  23  27
ATOM     24  C   UNL     1       4.048  -1.374  -0.044  0.00  0.00    -0.064 A 
ATOM     25  C   UNL     1       3.405  -1.158   1.161  0.00  0.00    +0.002 A 
ATOM     26  C   UNL     1       2.096  -0.715   1.175  0.00  0.00    +0.005 A 
ATOM     27  C   UNL     1       1.429  -0.487  -0.014  0.00  0.00    -0.030 A 
ATOM     28  C   UNL     1       2.071  -0.708  -1.219  0.00  0.00    +0.005 A 
ATOM     29  C   UNL     1       3.382  -1.145  -1.234  0.00  0.00    +0.002 A 
BRANCH  24  30
ATOM     30  C   UNL     1       5.475  -1.857  -0.060  0.00  0.00    -0.043 C 
BRANCH  30  36
ATOM     31  C   UNL     1       8.221  -5.886  -0.711  0.00  0.00    +0.005 C 
ATOM     32  C   UNL     1       6.807  -5.356  -0.467  0.00  0.00    -0.031 C 
ATOM     33  C   UNL     1       6.243  -5.971   0.817  0.00  0.00    -0.001 C 
ATOM     34  C   UNL     1       4.852  -5.390   1.084  0.00  0.00    -0.018 C 
ATOM     35  C   UNL     1       4.952  -3.866   1.185  0.00  0.00    -0.078 C 
ATOM     36  N   UNL     1       5.495  -3.326  -0.068  0.00  0.00    +0.383 N 
ATOM     37  C   UNL     1       6.849  -3.833  -0.322  0.00  0.00    -0.075 C 
ATOM     38  H   UNL     1       4.849  -3.670  -0.889  0.00  0.00    -0.081 HD
ENDBRANCH  30  36
ENDBRANCH  24  30
ENDBRANCH  23  27
ENDBRANCH   1  23
TORSDOF 8
