REMARK  Name = ZINC64078384
REMARK  9 active torsions:
REMARK  status: ('A' for Active; 'I' for Inactive)
REMARK    1  A    between atoms: C_1  and  C_2
REMARK    2  A    between atoms: C_2  and  C_3
REMARK    3  A    between atoms: C_3  and  C_4
REMARK    4  A    between atoms: C_4  and  C_5
REMARK    5  A    between atoms: C_7  and  N_11
REMARK    6  A    between atoms: C_12  and  C_14
REMARK    7  A    between atoms: C_14  and  N_15
REMARK    8  A    between atoms: C_21  and  C_24
REMARK    9  A    between atoms: C_24  and  C_25
REMARK                            x       y       z     vdW  Elec       q    Type
REMARK                         _______ _______ _______ _____ _____    ______ ____
ROOT
ATOM      1  C   UNL     1       5.809  -5.932  -3.946  0.00  0.00    +0.214 C 
ENDROOT
BRANCH   1   2
ATOM      2  N   UNL     1       6.494  -6.557  -2.812  0.00  0.00    -0.215 N 
ATOM      3  C   UNL     1       7.544  -6.009  -2.165  0.00  0.00    +0.247 C 
ATOM      4  O   UNL     1       8.080  -4.948  -2.402  0.00  0.00    -0.273 OA
ATOM      5  C   UNL     1       7.911  -6.998  -1.082  0.00  0.00    +0.113 C 
ATOM      6  C   UNL     1       7.760  -6.359   0.294  0.00  0.00    +0.035 C 
ATOM      7  C   UNL     1       8.750  -5.200   0.431  0.00  0.00    +0.006 C 
ATOM      8  C   UNL     1      10.176  -5.724   0.247  0.00  0.00    -0.011 C 
ATOM      9  C   UNL     1      10.318  -6.344  -1.144  0.00  0.00    +0.006 C 
ATOM     10  C   UNL     1       9.333  -7.507  -1.287  0.00  0.00    +0.035 C 
ATOM     11  N   UNL     1       6.943  -8.089  -1.252  0.00  0.00    -0.285 N 
ATOM     12  C   UNL     1       6.153  -7.739  -2.285  0.00  0.00    +0.310 C 
ATOM     13  O   UNL     1       5.234  -8.421  -2.695  0.00  0.00    -0.252 OA
ATOM     14  H   UNL     1       6.883  -8.900  -0.724  0.00  0.00    +0.151 HD
BRANCH   8  15
ATOM     15  C   UNL     1      11.167  -4.568   0.395  0.00  0.00    -0.000 C 
ATOM     16  C   UNL     1      12.596  -5.112   0.336  0.00  0.00    +0.004 C 
ENDBRANCH   8  15
ENDBRANCH   1   2
BRANCH   1  18
ATOM     17  N   UNL     1       3.915  -4.384  -4.310  0.00  0.00    -0.269 N 
ATOM     18  C   UNL     1       4.688  -5.063  -3.439  0.00  0.00    +0.236 C 
ATOM     19  O   UNL     1       4.481  -4.974  -2.247  0.00  0.00    -0.274 OA
ATOM     20  H   UNL     1       4.080  -4.455  -5.263  0.00  0.00    +0.156 HD
BRANCH  17  23
ATOM     21  C   UNL     1       1.444  -2.513  -2.505  0.00  0.00    +0.065 A 
ATOM     22  C   UNL     1       2.534  -3.388  -2.537  0.00  0.00    +0.068 A 
ATOM     23  C   UNL     1       2.877  -3.579  -3.840  0.00  0.00    +0.121 A 
ATOM     24  N   UNL     1       2.028  -2.847  -4.597  0.00  0.00    -0.264 N 
ATOM     25  H   UNL     1       2.033  -2.788  -5.566  0.00  0.00    +0.190 HD
ATOM     26  N   UNL     1       1.138  -2.193  -3.736  0.00  0.00    -0.177 NA
BRANCH  21  27
ATOM     27  C   UNL     1       0.739  -2.027  -1.265  0.00  0.00    +0.057 C 
BRANCH  27  28
ATOM     28  C   UNL     1       0.718  -0.497  -1.257  0.00  0.00    +0.006 C 
BRANCH  28  30
ATOM     29  C   UNL     1      -0.019   1.526   0.010  0.00  0.00    +0.004 C 
ATOM     30  C   UNL     1       0.002  -0.004   0.002  0.00  0.00    -0.003 C 
ENDBRANCH  28  30
ENDBRANCH  27  28
ENDBRANCH  21  27
ENDBRANCH  17  23
ENDBRANCH   1  18
TORSDOF 7
