REMARK  Name = ZINC03643801
REMARK  8 active torsions:
REMARK  status: ('A' for Active; 'I' for Inactive)
REMARK    1  A    between atoms: C_1  and  C_2
REMARK    2  A    between atoms: C_2  and  O_3
REMARK    3  A    between atoms: O_3  and  C_4
REMARK    4  A    between atoms: C_6  and  C_11
REMARK    5  A    between atoms: C_9  and  O_10
REMARK    6  A    between atoms: C_30  and  C_32
REMARK    7  A    between atoms: C_32  and  C_33
REMARK    8  A    between atoms: C_32  and  C_34
REMARK                            x       y       z     vdW  Elec       q    Type
REMARK                         _______ _______ _______ _____ _____    ______ ____
ROOT
ATOM      1  C   UNL     1       1.671   7.406   0.026  0.00  0.00    +0.152 C 
ATOM      2  C   UNL     1       1.248   5.960   0.022  0.00  0.00    +0.072 A 
ATOM      3  C   UNL     1      -0.065   5.309   0.031  0.00  0.00    +0.199 A 
ATOM      4  O   UNL     1      -1.098   5.954   0.044  0.00  0.00    -0.287 OA
ATOM      5  C   UNL     1      -0.072   3.833   0.023  0.00  0.00    +0.064 A 
ATOM      6  C   UNL     1      -1.265   3.112   0.030  0.00  0.00    +0.015 A 
ATOM      7  C   UNL     1      -1.228   1.745   0.017  0.00  0.00    +0.001 A 
ATOM      8  C   UNL     1      -0.013   1.076   0.008  0.00  0.00    +0.004 A 
ATOM      9  C   UNL     1       1.176   1.772   0.000  0.00  0.00    +0.047 A 
ATOM     10  C   UNL     1       1.164   3.165   0.008  0.00  0.00    +0.139 A 
ATOM     11  O   UNL     1       2.316   3.860   0.000  0.00  0.00    -0.450 OA
ATOM     12  C   UNL     1       2.375   5.206   0.007  0.00  0.00    +0.199 A 
ATOM     13  C   UNL     1       3.546   6.117   0.001  0.00  0.00    +0.289 C 
ATOM     14  O   UNL     1       4.707   5.758  -0.011  0.00  0.00    -0.266 OA
ATOM     15  N   UNL     1       3.139   7.398   0.012  0.00  0.00    -0.230 N 
ATOM     16  C   UNL     1       3.961   8.517   0.009  0.00  0.00    +0.191 A 
ATOM     17  N   UNL     1       3.649   9.806   0.012  0.00  0.00    -0.125 NA
ATOM     18  N   UNL     1       4.534  10.705   0.014  0.00  0.00    -0.144 NA
ATOM     19  C   UNL     1       5.822  10.422   0.000  0.00  0.00    +0.106 A 
ATOM     20  S   UNL     1       5.748   8.633  -0.007  0.00  0.00    -0.035 S 
ENDROOT
BRANCH   1  23
ATOM     21  C   UNL     1      -0.479   9.529  -2.242  0.00  0.00    +0.162 A 
ATOM     22  C   UNL     1       0.007   8.887  -1.115  0.00  0.00    +0.055 A 
ATOM     23  C   UNL     1       1.143   8.104  -1.201  0.00  0.00    -0.018 A 
ATOM     24  C   UNL     1       1.800   7.965  -2.410  0.00  0.00    +0.009 A 
ATOM     25  C   UNL     1       1.317   8.598  -3.540  0.00  0.00    +0.049 A 
ATOM     26  C   UNL     1       0.179   9.384  -3.460  0.00  0.00    +0.158 A 
BRANCH  26  27
ATOM     27  O   UNL     1      -0.294  10.013  -4.569  0.00  0.00    -0.503 OA
ATOM     28  H   UNL     1       0.069  10.899  -4.704  0.00  0.00    +0.292 HD
ENDBRANCH  26  27
BRANCH  21  29
ATOM     29  O   UNL     1      -1.596  10.300  -2.159  0.00  0.00    -0.489 OA
BRANCH  29  31
ATOM     30  C   UNL     1      -3.451  11.304  -0.980  0.00  0.00    +0.048 C 
ATOM     31  C   UNL     1      -2.219  10.403  -0.877  0.00  0.00    +0.226 C 
ENDBRANCH  29  31
ENDBRANCH  21  29
ENDBRANCH   1  23
BRANCH  19  32
ATOM     32  C   UNL     1       7.015  11.342  -0.007  0.00  0.00    +0.040 C 
ATOM     33  C   UNL     1       6.966  12.231  -1.252  0.00  0.00    +0.014 C 
ATOM     34  C   UNL     1       6.991  12.219   1.246  0.00  0.00    +0.014 C 
ENDBRANCH  19  32
TORSDOF 5
