REMARK  Name = ZINC40035667
REMARK  11 active torsions:
REMARK  status: ('A' for Active; 'I' for Inactive)
REMARK    1  A    between atoms: C_1  and  C_2
REMARK    2  A    between atoms: C_2  and  C_3
REMARK    3  A    between atoms: C_3  and  O_4
REMARK    4  A    between atoms: O_4  and  C_5
REMARK    5  A    between atoms: C_10  and  C_11
REMARK    6  A    between atoms: N_12  and  N_13
REMARK    7  A    between atoms: N_20  and  C_21
REMARK    8  A    between atoms: C_24  and  C_27
REMARK    9  A    between atoms: C_28  and  C_36
REMARK   10  A    between atoms: C_28  and  C_37
REMARK   11  A    between atoms: C_37  and  C_38
REMARK                            x       y       z     vdW  Elec       q    Type
REMARK                         _______ _______ _______ _____ _____    ______ ____
ROOT
ATOM      1  N   UNL     1       1.004  -4.970   0.542  0.00  0.00    -0.206 N 
ATOM      2  C   UNL     1       2.210  -4.325   0.630  0.00  0.00    +0.223 A 
ATOM      3  N   UNL     1       2.236  -3.050   0.960  0.00  0.00    -0.214 NA
ATOM      4  C   UNL     1       3.394  -2.388   1.056  0.00  0.00    +0.084 A 
ATOM      5  C   UNL     1       4.590  -3.043   0.799  0.00  0.00    +0.050 A 
ATOM      6  C   UNL     1       4.556  -4.399   0.451  0.00  0.00    +0.264 A 
ATOM      7  O   UNL     1       5.588  -5.010   0.222  0.00  0.00    -0.267 OA
ATOM      8  N   UNL     1       3.358  -5.019   0.379  0.00  0.00    -0.248 N 
ATOM      9  C   UNL     1       5.894  -2.303   0.890  0.00  0.00    +0.004 C 
ATOM     10  C   UNL     1       5.852  -1.276   2.019  0.00  0.00    +0.047 C 
ATOM     11  C   UNL     1       4.626  -0.411   1.903  0.00  0.00    -0.037 A 
ATOM     12  C   UNL     1       3.429  -0.958   1.437  0.00  0.00    +0.004 A 
ATOM     13  C   UNL     1       2.292  -0.163   1.335  0.00  0.00    +0.010 A 
ATOM     14  C   UNL     1       2.354   1.169   1.693  0.00  0.00    +0.001 A 
ATOM     15  C   UNL     1       3.543   1.709   2.151  0.00  0.00    +0.000 A 
ATOM     16  C   UNL     1       4.676   0.921   2.256  0.00  0.00    +0.004 A 
ATOM     17  C   UNL     1       7.023  -3.300   1.156  0.00  0.00    +0.016 C 
ATOM     18  H   UNL     1       0.977  -5.931   0.410  0.00  0.00    +0.177 HD
ENDROOT
BRANCH   8  19
ATOM     19  C   UNL     1       3.293  -6.376   0.041  0.00  0.00    +0.053 A 
ATOM     20  C   UNL     1       3.811  -7.333   0.904  0.00  0.00    +0.026 A 
ATOM     21  C   UNL     1       3.745  -8.671   0.568  0.00  0.00    +0.005 A 
ATOM     22  C   UNL     1       3.164  -9.058  -0.626  0.00  0.00    -0.050 A 
ATOM     23  C   UNL     1       2.647  -8.108  -1.486  0.00  0.00    +0.005 A 
ATOM     24  C   UNL     1       2.705  -6.768  -1.154  0.00  0.00    +0.026 A 
ATOM     25  C   UNL     1       3.094 -10.519  -0.989  0.00  0.00    +0.044 C 
ENDBRANCH   8  19
BRANCH   1  27
ATOM     26  C   UNL     1      -1.326  -4.866   0.700  0.00  0.00    +0.142 C 
ATOM     27  N   UNL     1      -0.189  -4.243   0.643  0.00  0.00    -0.187 NA
BRANCH  26  33
ATOM     28  C   UNL     1      -2.542  -2.808  -0.007  0.00  0.00    +0.129 A 
ATOM     29  C   UNL     1      -3.726  -2.133  -0.257  0.00  0.00    +0.046 A 
ATOM     30  C   UNL     1      -4.939  -2.767  -0.063  0.00  0.00    +0.004 A 
ATOM     31  C   UNL     1      -4.981  -4.077   0.382  0.00  0.00    +0.001 A 
ATOM     32  C   UNL     1      -3.812  -4.764   0.634  0.00  0.00    +0.013 A 
ATOM     33  C   UNL     1      -2.580  -4.136   0.437  0.00  0.00    +0.036 A 
BRANCH  28  34
ATOM     34  O   UNL     1      -1.350  -2.186  -0.198  0.00  0.00    -0.491 OA
BRANCH  34  35
ATOM     35  C   UNL     1      -1.361  -0.986  -0.974  0.00  0.00    +0.229 C 
BRANCH  35  37
ATOM     36  C   UNL     1       0.056   0.872  -1.859  0.00  0.00    +0.007 C 
ATOM     37  C   UNL     1       0.013  -0.316  -0.896  0.00  0.00    +0.038 C 
ENDBRANCH  35  37
ENDBRANCH  34  35
ENDBRANCH  28  34
ENDBRANCH  26  33
ENDBRANCH   1  27
BRANCH   9  38
ATOM     38  C   UNL     1       6.159  -1.584  -0.435  0.00  0.00    +0.008 C 
ATOM     39  C   UNL     1       6.230  -2.611  -1.567  0.00  0.00    +0.005 C 
ENDBRANCH   9  38
TORSDOF 7
