REMARK  Name = ZINC39533744
REMARK  9 active torsions:
REMARK  status: ('A' for Active; 'I' for Inactive)
REMARK    1  A    between atoms: C_1  and  C_2
REMARK    2  A    between atoms: C_2  and  C_3
REMARK    3  A    between atoms: C_2  and  S_4
REMARK    4  A    between atoms: S_4  and  N_7
REMARK    5  A    between atoms: N_7  and  C_8
REMARK    6  A    between atoms: C_8  and  C_9
REMARK    7  A    between atoms: C_9  and  C_11
REMARK    8  A    between atoms: C_9  and  N_23
REMARK    9  A    between atoms: C_14  and  C_17
REMARK                            x       y       z     vdW  Elec       q    Type
REMARK                         _______ _______ _______ _____ _____    ______ ____
ROOT
ATOM      1  C   UNL     1      -0.040  -4.508   2.583  0.00  0.00    +0.102 C 
ENDROOT
BRANCH   1   2
ATOM      2  N   UNL     1       0.786  -5.286   1.649  0.00  0.00    -0.295 NA
ATOM      3  C   UNL     1       0.345  -5.085   0.262  0.00  0.00    +0.066 C 
ATOM      4  C   UNL     1       1.266  -5.863  -0.681  0.00  0.00    -0.063 C 
ATOM      5  N   UNL     1       1.225  -7.291  -0.338  0.00  0.00    +0.400 N 
ATOM      6  C   UNL     1       1.692  -7.478   1.042  0.00  0.00    +0.116 C 
ATOM      7  C   UNL     1       0.775  -6.713   2.000  0.00  0.00    +0.100 C 
ATOM      8  O   UNL     1       1.668  -8.869   1.369  0.00  0.00    -0.251 OA
ATOM      9  H   UNL     1       0.278  -7.630  -0.421  0.00  0.00    -0.082 HD
ATOM     10  H   UNL     1       1.823  -7.805  -0.967  0.00  0.00    -0.082 HD
ENDBRANCH   1   2
BRANCH   1  11
ATOM     11  C   UNL     1       0.500  -4.664   3.981  0.00  0.00    -0.029 A 
ATOM     12  C   UNL     1       1.866  -4.666   4.196  0.00  0.00    +0.006 A 
ATOM     13  C   UNL     1       2.366  -4.808   5.475  0.00  0.00    +0.009 A 
ATOM     14  C   UNL     1       1.491  -4.950   6.550  0.00  0.00    -0.018 A 
ATOM     15  C   UNL     1       0.116  -4.947   6.328  0.00  0.00    +0.009 A 
ATOM     16  C   UNL     1      -0.373  -4.798   5.045  0.00  0.00    +0.006 A 
BRANCH  14  17
ATOM     17  C   UNL     1       2.023  -5.104   7.927  0.00  0.00    -0.018 A 
ATOM     18  C   UNL     1       3.398  -5.101   8.150  0.00  0.00    +0.008 A 
ATOM     19  C   UNL     1       3.887  -5.244   9.433  0.00  0.00    +0.001 A 
ATOM     20  C   UNL     1       3.014  -5.390  10.496  0.00  0.00    +0.000 A 
ATOM     21  C   UNL     1       1.648  -5.394  10.280  0.00  0.00    +0.001 A 
ATOM     22  C   UNL     1       1.148  -5.245   9.002  0.00  0.00    +0.008 A 
ENDBRANCH  14  17
ENDBRANCH   1  11
BRANCH   1  23
ATOM     23  C   UNL     1      -0.006  -3.031   2.184  0.00  0.00    +0.129 C 
BRANCH  23  24
ATOM     24  N   UNL     1      -0.885  -2.266   3.072  0.00  0.00    -0.192 NA
ATOM     25  H   UNL     1      -1.597  -2.715   3.555  0.00  0.00    +0.148 HD
BRANCH  24  26
ATOM     26  S   UNL     1      -0.663  -0.635   3.252  0.00  0.00    +0.032 S 
ATOM     27  O   UNL     1       0.729  -0.482   3.493  0.00  0.00    -0.158 OA
ATOM     28  O   UNL     1      -1.615  -0.245   4.232  0.00  0.00    -0.158 OA
BRANCH  26  30
ATOM     29  C   UNL     1      -0.914   1.593   1.684  0.00  0.00    +0.033 C 
ATOM     30  C   UNL     1      -1.100   0.075   1.640  0.00  0.00    +0.142 C 
ATOM     31  C   UNL     1      -0.195  -0.519   0.559  0.00  0.00    +0.033 C 
ENDBRANCH  26  30
ENDBRANCH  24  26
ENDBRANCH  23  24
ENDBRANCH   1  23
TORSDOF 7
