REMARK  Name = ZINC36019795
REMARK  12 active torsions:
REMARK  status: ('A' for Active; 'I' for Inactive)
REMARK    1  A    between atoms: C_1  and  C_2
REMARK    2  A    between atoms: C_2  and  C_3
REMARK    3  A    between atoms: C_3  and  N_4
REMARK    4  A    between atoms: N_11  and  C_14
REMARK    5  A    between atoms: C_14  and  C_15
REMARK    6  A    between atoms: C_16  and  C_33
REMARK    7  A    between atoms: C_17  and  C_26
REMARK    8  A    between atoms: N_22  and  C_23
REMARK    9  A    between atoms: C_23  and  C_24
REMARK   10  A    between atoms: C_33  and  O_35
REMARK   11  A    between atoms: O_35  and  C_36
REMARK   12  A    between atoms: C_36  and  C_37
REMARK                            x       y       z     vdW  Elec       q    Type
REMARK                         _______ _______ _______ _____ _____    ______ ____
ROOT
ATOM      1  C   UNL     1       5.906  -6.920   3.081  0.00  0.00    +0.011 C 
ATOM      2  C   UNL     1       6.607  -8.022   3.425  0.00  0.00    +0.076 C 
ATOM      3  C   UNL     1       7.046  -8.156   4.869  0.00  0.00    +0.143 C 
ATOM      4  N   UNL     1       6.671  -7.066   5.785  0.00  0.00    -0.288 N 
ATOM      5  C   UNL     1       5.968  -6.027   5.291  0.00  0.00    +0.307 C 
ATOM      6  O   UNL     1       5.652  -5.122   6.039  0.00  0.00    -0.252 OA
ATOM      7  N   UNL     1       5.609  -5.957   4.003  0.00  0.00    -0.257 N 
ATOM      8  H   UNL     1       6.923  -7.094   6.721  0.00  0.00    +0.151 HD
ENDROOT
BRANCH   3   9
ATOM      9  C   UNL     1       6.470  -9.438   5.414  0.00  0.00    -0.021 A 
ATOM     10  C   UNL     1       5.150  -9.484   5.822  0.00  0.00    +0.006 A 
ATOM     11  C   UNL     1       4.621 -10.659   6.321  0.00  0.00    +0.002 A 
ATOM     12  C   UNL     1       5.412 -11.789   6.413  0.00  0.00    +0.020 A 
ATOM     13  C   UNL     1       6.733 -11.744   6.005  0.00  0.00    +0.041 A 
ATOM     14  C   UNL     1       7.260 -10.569   5.499  0.00  0.00    +0.025 A 
ATOM     15 CL   UNL     1       7.726 -13.163   6.120  0.00  0.00    -0.084 Cl
ENDBRANCH   3   9
BRANCH   2  16
ATOM     16  C   UNL     1       6.919  -9.018   2.471  0.00  0.00    +0.339 C 
ATOM     17  O   UNL     1       6.666  -8.834   1.295  0.00  0.00    -0.245 OA
BRANCH  16  18
ATOM     18  O   UNL     1       7.498 -10.172   2.864  0.00  0.00    -0.462 OA
BRANCH  18  19
ATOM     19  C   UNL     1       7.786 -11.133   1.846  0.00  0.00    +0.229 C 
ATOM     20  C   UNL     1       8.435 -12.366   2.478  0.00  0.00    +0.048 C 
ENDBRANCH  18  19
ENDBRANCH  16  18
ENDBRANCH   2  16
BRANCH   1  21
ATOM     21  C   UNL     1       5.449  -6.748   1.656  0.00  0.00    -0.026 C 
BRANCH  21  29
ATOM     22  N   UNL     1       9.874  -7.249  -1.376  0.00  0.00    -0.299 N 
ATOM     23  C   UNL     1       9.136  -6.249  -1.897  0.00  0.00    +0.302 C 
ATOM     24  O   UNL     1       9.052  -6.120  -3.103  0.00  0.00    -0.253 OA
ATOM     25  N   UNL     1       8.493  -5.391  -1.081  0.00  0.00    -0.287 N 
ATOM     26  C   UNL     1       7.595  -4.380  -1.675  0.00  0.00    +0.107 C 
ATOM     27  C   UNL     1       6.303  -4.234  -0.850  0.00  0.00    +0.000 C 
ATOM     28  C   UNL     1       5.844  -5.598  -0.387  0.00  0.00    -0.077 C 
ATOM     29  N   UNL     1       6.381  -5.861   0.947  0.00  0.00    +0.384 N 
ATOM     30  C   UNL     1       7.663  -6.454   0.967  0.00  0.00    -0.059 C 
ATOM     31  C   UNL     1       8.702  -5.497   0.349  0.00  0.00    +0.091 C 
ATOM     32  H   UNL     1      10.002  -7.309  -0.417  0.00  0.00    +0.150 HD
ATOM     33  H   UNL     1       6.427  -4.987   1.449  0.00  0.00    -0.081 HD
BRANCH  22  34
ATOM     34  C   UNL     1      10.485  -8.245  -2.260  0.00  0.00    +0.105 C 
BRANCH  34  36
ATOM     35  C   UNL     1      11.900 -10.303  -2.345  0.00  0.00    +0.005 C 
ATOM     36  C   UNL     1      11.262  -9.262  -1.422  0.00  0.00    +0.015 C 
ENDBRANCH  34  36
ENDBRANCH  22  34
ENDBRANCH  21  29
ENDBRANCH   1  21
BRANCH   7  37
ATOM     37  C   UNL     1       4.851  -4.785   3.559  0.00  0.00    +0.141 C 
BRANCH  37  38
ATOM     38  C   UNL     1       3.384  -5.006   3.823  0.00  0.00    -0.015 C 
ATOM     39  C   UNL     1       2.705  -4.132   4.523  0.00  0.00    +0.005 C 
ENDBRANCH  37  38
ENDBRANCH   7  37
TORSDOF 10
