REMARK  Name = ZINC00882852
REMARK  7 active torsions:
REMARK  status: ('A' for Active; 'I' for Inactive)
REMARK    1  A    between atoms: C_1  and  C_2
REMARK    2  A    between atoms: C_5  and  N_8
REMARK    3  A    between atoms: C_9  and  C_11
REMARK    4  A    between atoms: C_11  and  S_12
REMARK    5  A    between atoms: S_12  and  C_13
REMARK    6  A    between atoms: C_18  and  C_26
REMARK    7  A    between atoms: C_18  and  C_27
REMARK                            x       y       z     vdW  Elec       q    Type
REMARK                         _______ _______ _______ _____ _____    ______ ____
ROOT
ATOM      1  C   UNL     1       3.864  -6.549  -0.522  0.00  0.00    +0.193 A 
ATOM      2  N   UNL     1       2.696  -7.164  -0.502  0.00  0.00    -0.122 NA
ATOM      3  N   UNL     1       2.863  -8.440  -0.609  0.00  0.00    -0.128 NA
ATOM      4  C   UNL     1       4.129  -8.709  -0.687  0.00  0.00    +0.166 A 
ATOM      5  N   UNL     1       4.811  -7.503  -0.650  0.00  0.00    -0.296 N 
ATOM      6  C   UNL     1       6.264  -7.417  -0.758  0.00  0.00    +0.048 C 
ATOM      7  C   UNL     1       6.914  -8.649  -0.132  0.00  0.00    +0.064 C 
ATOM      8  C   UNL     1       6.252  -9.930  -0.556  0.00  0.00    -0.034 A 
ATOM      9  C   UNL     1       4.870  -9.981  -0.782  0.00  0.00    +0.023 A 
ATOM     10  C   UNL     1       4.252 -11.175  -1.126  0.00  0.00    +0.012 A 
ATOM     11  C   UNL     1       5.014 -12.317  -1.278  0.00  0.00    +0.001 A 
ATOM     12  C   UNL     1       6.383 -12.264  -1.084  0.00  0.00    +0.000 A 
ATOM     13  C   UNL     1       6.999 -11.078  -0.724  0.00  0.00    +0.004 A 
ATOM     14  C   UNL     1       6.659  -7.331  -2.233  0.00  0.00    +0.035 C 
ATOM     15  C   UNL     1       6.753  -6.164  -0.028  0.00  0.00    +0.035 C 
ENDROOT
BRANCH   1  16
ATOM     16  S   UNL     1       4.135  -4.812  -0.398  0.00  0.00    -0.077 S 
BRANCH  16  17
ATOM     17  C   UNL     1       2.425  -4.236  -0.258  0.00  0.00    +0.173 C 
BRANCH  17  19
ATOM     18  N   UNL     1       1.237  -2.079  -0.020  0.00  0.00    -0.285 N 
ATOM     19  C   UNL     1       2.410  -2.734  -0.137  0.00  0.00    +0.227 C 
ATOM     20  O   UNL     1       3.452  -2.114  -0.144  0.00  0.00    -0.275 OA
ATOM     21  H   UNL     1       0.409  -2.578   0.062  0.00  0.00    +0.155 HD
BRANCH  18  26
ATOM     22  C   UNL     1       1.143   3.593  -0.015  0.00  0.00    +0.044 C 
ATOM     23  C   UNL     1       1.168   2.086  -0.017  0.00  0.00    -0.050 A 
ATOM     24  C   UNL     1       2.111   1.412  -0.771  0.00  0.00    +0.005 A 
ATOM     25  C   UNL     1       2.137   0.031  -0.774  0.00  0.00    +0.023 A 
ATOM     26  C   UNL     1       1.214  -0.680  -0.019  0.00  0.00    +0.033 A 
ATOM     27  C   UNL     1       0.268  -0.001   0.737  0.00  0.00    +0.023 A 
ATOM     28  C   UNL     1       0.248   1.380   0.736  0.00  0.00    +0.005 A 
ENDBRANCH  18  26
ENDBRANCH  17  19
ENDBRANCH  16  17
ENDBRANCH   1  16
TORSDOF 4
