REMARK  Name = ZINC24865470
REMARK  9 active torsions:
REMARK  status: ('A' for Active; 'I' for Inactive)
REMARK    1  A    between atoms: C_1  and  C_2
REMARK    2  A    between atoms: C_2  and  C_4
REMARK    3  A    between atoms: C_2  and  N_13
REMARK    4  A    between atoms: C_8  and  N_10
REMARK    5  A    between atoms: N_13  and  C_14
REMARK    6  A    between atoms: N_13  and  C_15
REMARK    7  A    between atoms: C_15  and  C_16
REMARK    8  A    between atoms: N_18  and  C_19
REMARK    9  A    between atoms: C_23  and  C_25
REMARK                            x       y       z     vdW  Elec       q    Type
REMARK                         _______ _______ _______ _____ _____    ______ ____
ROOT
ATOM      1  C   UNL     1      -2.550   7.918  -1.235  0.00  0.00    +0.201 C 
ATOM      2  O   UNL     1      -3.292   7.055  -1.654  0.00  0.00    -0.278 OA
ATOM      3  N   UNL     1      -2.804   9.214  -1.504  0.00  0.00    -0.287 N 
ATOM      4  H   UNL     1      -2.178  10.002  -1.058  0.00  0.00    +0.155 HD
ENDROOT
BRANCH   3   5
ATOM      5  C   UNL     1      -3.864   9.559  -2.351  0.00  0.00    +0.034 A 
ATOM      6  C   UNL     1      -3.747  10.653  -3.201  0.00  0.00    +0.026 A 
ATOM      7  C   UNL     1      -4.788  10.994  -4.043  0.00  0.00    +0.041 A 
ATOM      8  C   UNL     1      -5.957  10.257  -4.038  0.00  0.00    +0.134 A 
ATOM      9  C   UNL     1      -6.086   9.159  -3.183  0.00  0.00    +0.056 A 
ATOM     10  C   UNL     1      -5.032   8.813  -2.337  0.00  0.00    +0.037 A 
ATOM     11  F   UNL     1      -6.975  10.597  -4.859  0.00  0.00    -0.205 F 
BRANCH   9  12
ATOM     12  C   UNL     1      -7.335   8.367  -3.174  0.00  0.00    +0.167 A 
ATOM     13  N   UNL     1      -8.563   8.839  -3.138  0.00  0.00    -0.129 NA
ATOM     14  N   UNL     1      -9.404   7.864  -3.150  0.00  0.00    -0.134 NA
ATOM     15  C   UNL     1      -8.767   6.728  -3.198  0.00  0.00    +0.134 A 
ATOM     16  N   UNL     1      -7.436   7.007  -3.208  0.00  0.00    -0.311 N 
ATOM     17  C   UNL     1      -6.343   6.035  -3.221  0.00  0.00    +0.125 C 
ATOM     18  C   UNL     1      -6.815   4.754  -3.915  0.00  0.00    +0.022 C 
ATOM     19  C   UNL     1      -7.434   3.809  -2.886  0.00  0.00    +0.002 C 
ATOM     20  C   UNL     1      -8.651   4.453  -2.231  0.00  0.00    +0.008 C 
ATOM     21  C   UNL     1      -9.369   5.348  -3.246  0.00  0.00    +0.076 C 
ENDBRANCH   9  12
ENDBRANCH   3   5
BRANCH   1  22
ATOM     22  C   UNL     1      -1.344   7.542  -0.414  0.00  0.00    +0.019 C 
BRANCH  22  23
ATOM     23  N   UNL     1      -1.290   6.081  -0.264  0.00  0.00    +0.388 N 
ATOM     24  C   UNL     1      -1.050   5.428  -1.558  0.00  0.00    -0.095 C 
ATOM     25  H   UNL     1      -2.268   5.744   0.109  0.00  0.00    -0.081 HD
BRANCH  23  27
ATOM     26  C   UNL     1      -0.610   6.310   2.077  0.00  0.00    -0.008 C 
ATOM     27  C   UNL     1      -0.272   5.690   0.720  0.00  0.00    -0.040 C 
BRANCH  27  28
ATOM     28  C   UNL     1      -0.247   4.188   0.847  0.00  0.00    -0.059 A 
ATOM     29  C   UNL     1      -1.431   3.474   0.839  0.00  0.00    +0.002 A 
ATOM     30  C   UNL     1      -1.407   2.096   0.951  0.00  0.00    +0.002 A 
ATOM     31  C   UNL     1      -0.200   1.434   1.078  0.00  0.00    +0.033 A 
ATOM     32  C   UNL     1       0.983   2.148   1.085  0.00  0.00    +0.126 A 
ATOM     33  C   UNL     1       0.960   3.526   0.969  0.00  0.00    +0.034 A 
BRANCH  32  34
ATOM     34  N   UNL     1       2.275   1.438   1.216  0.00  0.00    +0.056 N 
ATOM     35  O   UNL     1       2.296   0.225   1.318  0.00  0.00    -0.126 OA
ATOM     36  O   UNL     1       3.318   2.068   1.221  0.00  0.00    -0.126 OA
ENDBRANCH  32  34
ENDBRANCH  27  28
ENDBRANCH  23  27
ENDBRANCH  22  23
ENDBRANCH   1  22
TORSDOF 7
