REMARK  Name = ZINC19420736
REMARK  5 active torsions:
REMARK  status: ('A' for Active; 'I' for Inactive)
REMARK    1  A    between atoms: C_1  and  C_2
REMARK    2  A    between atoms: C_5  and  N_8
REMARK    3  A    between atoms: C_12  and  S_13
REMARK    4  A    between atoms: S_13  and  C_14
REMARK    5  A    between atoms: C_14  and  C_15
REMARK                            x       y       z     vdW  Elec       q    Type
REMARK                         _______ _______ _______ _____ _____    ______ ____
ROOT
ATOM      1  N   UNL     1       3.696   3.444   1.207  0.00  0.00    -0.259 N 
ATOM      2  C   UNL     1       3.394   2.123   1.398  0.00  0.00    +0.225 A 
ATOM      3  N   UNL     1       4.519   1.464   1.518  0.00  0.00    -0.112 NA
ATOM      4  N   UNL     1       5.574   2.377   1.394  0.00  0.00    -0.120 NA
ATOM      5  C   UNL     1       5.059   3.569   1.210  0.00  0.00    +0.198 A 
ATOM      6  N   UNL     1       2.118   1.578   1.459  0.00  0.00    -0.299 N 
ATOM      7  C   UNL     1       1.921   0.578   0.402  0.00  0.00    +0.108 C 
ATOM      8  C   UNL     1       0.465   0.107   0.408  0.00  0.00    +0.019 C 
ATOM      9  C   UNL     1       0.135  -0.497   1.776  0.00  0.00    +0.003 C 
ATOM     10  C   UNL     1       0.394   0.549   2.864  0.00  0.00    +0.019 C 
ATOM     11  C   UNL     1       1.852   1.008   2.786  0.00  0.00    +0.108 C 
ENDROOT
BRANCH   1  16
ATOM     12  C   UNL     1      -0.042   7.661   0.524  0.00  0.00    +0.044 C 
ATOM     13  C   UNL     1       0.950   6.541   0.706  0.00  0.00    -0.050 A 
ATOM     14  C   UNL     1       1.744   6.500   1.837  0.00  0.00    +0.005 A 
ATOM     15  C   UNL     1       2.655   5.475   2.006  0.00  0.00    +0.026 A 
ATOM     16  C   UNL     1       2.772   4.486   1.038  0.00  0.00    +0.052 A 
ATOM     17  C   UNL     1       1.978   4.534  -0.099  0.00  0.00    +0.026 A 
ATOM     18  C   UNL     1       1.065   5.558  -0.260  0.00  0.00    +0.005 A 
ENDBRANCH   1  16
BRANCH   5  19
ATOM     19  S   UNL     1       5.963   5.067   1.002  0.00  0.00    -0.078 S 
BRANCH  19  20
ATOM     20  C   UNL     1       7.699   4.551   1.106  0.00  0.00    +0.151 C 
BRANCH  20  21
ATOM     21  C   UNL     1       8.592   5.753   0.942  0.00  0.00    +0.122 A 
ATOM     22  N   UNL     1       9.938   5.571   0.989  0.00  0.00    -0.194 NA
ATOM     23  C   UNL     1      10.758   6.638   0.844  0.00  0.00    +0.288 A 
ATOM     24  O   UNL     1      11.970   6.508   0.882  0.00  0.00    -0.265 OA
ATOM     25  C   UNL     1      10.178   7.892   0.649  0.00  0.00    +0.102 A 
ATOM     26  C   UNL     1       8.782   8.054   0.604  0.00  0.00    +0.060 A 
ATOM     27  N   UNL     1       8.039   6.909   0.757  0.00  0.00    -0.342 N 
ATOM     28  C   UNL     1       8.334   9.366   0.402  0.00  0.00    +0.034 A 
ATOM     29  C   UNL     1       9.222  10.375   0.266  0.00  0.00    +0.048 A 
ATOM     30  S   UNL     1      10.792   9.539   0.414  0.00  0.00    -0.090 S 
ATOM     31  H   UNL     1       6.943   6.995   0.719  0.00  0.00    +0.167 HD
ENDBRANCH  20  21
ENDBRANCH  19  20
ENDBRANCH   5  19
TORSDOF 4
