REMARK  Name = ZINC06108952
REMARK  3 active torsions:
REMARK  status: ('A' for Active; 'I' for Inactive)
REMARK    1  A    between atoms: C_11  and  C_13
REMARK    2  A    between atoms: C_13  and  S_14
REMARK    3  A    between atoms: S_14  and  C_15
REMARK                            x       y       z     vdW  Elec       q    Type
REMARK                         _______ _______ _______ _____ _____    ______ ____
ROOT
ATOM      1  C   UNL     1       5.413   4.346  -2.339  0.00  0.00    +0.191 A 
ATOM      2  N   UNL     1       5.995   3.968  -1.206  0.00  0.00    -0.207 NA
ATOM      3  C   UNL     1       7.200   4.387  -0.861  0.00  0.00    +0.129 A 
ATOM      4  C   UNL     1       7.899   5.281  -1.722  0.00  0.00    +0.051 A 
ATOM      5  C   UNL     1       9.226   5.872  -1.543  0.00  0.00    -0.025 A 
ATOM      6  C   UNL     1       9.665   6.697  -2.515  0.00  0.00    -0.004 A 
ATOM      7  S   UNL     1       8.357   6.738  -3.711  0.00  0.00    -0.073 S 
ATOM      8  C   UNL     1       7.220   5.643  -2.902  0.00  0.00    +0.115 A 
ATOM      9  N   UNL     1       6.017   5.177  -3.178  0.00  0.00    -0.214 NA
ATOM     10  C   UNL     1      10.975   7.421  -2.569  0.00  0.00    +0.043 C 
ATOM     11  C   UNL     1      11.609   7.381  -1.171  0.00  0.00    +0.005 C 
ATOM     12  C   UNL     1      11.540   5.946  -0.640  0.00  0.00    +0.005 C 
ATOM     13  C   UNL     1      10.091   5.581  -0.319  0.00  0.00    +0.037 C 
ATOM     14  N   UNL     1       7.775   3.966   0.325  0.00  0.00    -0.343 N 
ATOM     15  H   UNL     1       8.533   4.446   0.693  0.00  0.00    +0.144 HD
ATOM     16  H   UNL     1       7.419   3.192   0.787  0.00  0.00    +0.144 HD
ENDROOT
BRANCH   1  17
ATOM     17  S   UNL     1       3.807   3.737  -2.731  0.00  0.00    -0.077 S 
BRANCH  17  18
ATOM     18  C   UNL     1       3.505   2.693  -1.283  0.00  0.00    +0.173 C 
BRANCH  18  29
ATOM     19  C   UNL     1       2.473  -3.242   1.684  0.00  0.00    +0.000 A 
ATOM     20  C   UNL     1       3.368  -2.390   2.303  0.00  0.00    +0.000 A 
ATOM     21  C   UNL     1       3.369  -1.048   1.982  0.00  0.00    +0.005 A 
ATOM     22  C   UNL     1       2.477  -0.548   1.044  0.00  0.00    -0.027 A 
ATOM     23  C   UNL     1       1.590  -1.396   0.420  0.00  0.00    -0.041 A 
ATOM     24  C   UNL     1       1.589  -2.747   0.748  0.00  0.00    +0.004 A 
ATOM     25  C   UNL     1       0.603  -0.929  -0.617  0.00  0.00    +0.054 C 
ATOM     26  C   UNL     1       0.384   0.580  -0.519  0.00  0.00    +0.113 C 
ATOM     27  N   UNL     1       1.705   1.224  -0.433  0.00  0.00    -0.296 N 
ATOM     28  C   UNL     1       2.521   0.931   0.750  0.00  0.00    +0.143 C 
ATOM     29  C   UNL     1       2.147   2.050  -1.403  0.00  0.00    +0.226 C 
ATOM     30  O   UNL     1       1.452   2.275  -2.371  0.00  0.00    -0.275 OA
ENDBRANCH  18  29
ENDBRANCH  17  18
ENDBRANCH   1  17
TORSDOF 3
