REMARK  Name = ZINC44844612
REMARK  5 active torsions:
REMARK  status: ('A' for Active; 'I' for Inactive)
REMARK    1  A    between atoms: C_1  and  N_2
REMARK    2  A    between atoms: C_4  and  C_7
REMARK    3  A    between atoms: C_9  and  C_12
REMARK    4  A    between atoms: C_12  and  O_14
REMARK    5  A    between atoms: O_14  and  C_15
REMARK                            x       y       z     vdW  Elec       q    Type
REMARK                         _______ _______ _______ _____ _____    ______ ____
ROOT
ATOM      1  O   UNL     1       0.082  -7.308  -0.541  0.00  0.00    -0.447 OA
ENDROOT
BRANCH   1   2
ATOM      2  C   UNL     1       0.097  -8.715  -0.294  0.00  0.00    +0.238 C 
ATOM      3  C   UNL     1      -1.312  -9.227  -0.120  0.00  0.00    +0.005 A 
ATOM      4  C   UNL     1      -2.405  -9.236  -0.962  0.00  0.00    +0.008 A 
ATOM      5  C   UNL     1      -3.603  -9.782  -0.536  0.00  0.00    +0.000 A 
ATOM      6  C   UNL     1      -3.707 -10.320   0.734  0.00  0.00    +0.001 A 
ATOM      7  C   UNL     1      -2.619 -10.316   1.583  0.00  0.00    +0.009 A 
ATOM      8  C   UNL     1      -1.407  -9.767   1.160  0.00  0.00    -0.010 A 
ATOM      9  C   UNL     1      -0.101  -9.631   1.851  0.00  0.00    -0.010 A 
ATOM     10  C   UNL     1       0.810  -9.007   1.003  0.00  0.00    +0.005 A 
ATOM     11  C   UNL     1       2.101  -8.768   1.424  0.00  0.00    +0.008 A 
ATOM     12  C   UNL     1       2.497  -9.149   2.694  0.00  0.00    +0.000 A 
ATOM     13  C   UNL     1       1.599  -9.770   3.543  0.00  0.00    +0.001 A 
ATOM     14  C   UNL     1       0.306 -10.012   3.131  0.00  0.00    +0.009 A 
ENDBRANCH   1   2
BRANCH   1  15
ATOM     15  C   UNL     1       0.076  -6.913  -1.830  0.00  0.00    +0.359 C 
ATOM     16  O   UNL     1       0.083  -7.741  -2.720  0.00  0.00    -0.243 OA
BRANCH  15  19
ATOM     17  C   UNL     1       0.039  -3.287  -1.538  0.00  0.00    +0.112 A 
ATOM     18  N   UNL     1       0.052  -4.562  -1.192  0.00  0.00    -0.232 NA
ATOM     19  C   UNL     1       0.060  -5.479  -2.160  0.00  0.00    +0.155 A 
ATOM     20  C   UNL     1       0.054  -5.066  -3.465  0.00  0.00    +0.082 A 
ATOM     21  S   UNL     1       0.031  -3.390  -3.318  0.00  0.00    -0.075 S 
BRANCH  17  25
ATOM     22  C   UNL     1      -0.018   1.461   0.010  0.00  0.00    +0.172 C 
ATOM     23  N   UNL     1       0.002  -0.004   0.002  0.00  0.00    -0.274 N 
ATOM     24  C   UNL     1       0.008  -0.787  -1.094  0.00  0.00    +0.118 A 
ATOM     25  C   UNL     1       0.027  -2.087  -0.673  0.00  0.00    +0.045 A 
ATOM     26  C   UNL     1       0.034  -2.075   0.738  0.00  0.00    +0.145 A 
ATOM     27  N   UNL     1       0.025  -0.830   1.132  0.00  0.00    -0.179 NA
ENDBRANCH  17  25
ENDBRANCH  15  19
ENDBRANCH   1  15
TORSDOF 4
