REMARK  Name = ZINC62259400
REMARK  10 active torsions:
REMARK  status: ('A' for Active; 'I' for Inactive)
REMARK    1  A    between atoms: C_1  and  C_2
REMARK    2  A    between atoms: C_2  and  N_3
REMARK    3  A    between atoms: N_3  and  C_4
REMARK    4  A    between atoms: N_3  and  C_11
REMARK    5  A    between atoms: C_4  and  C_5
REMARK    6  A    between atoms: C_14  and  C_17
REMARK    7  A    between atoms: C_17  and  N_18
REMARK    8  A    between atoms: N_18  and  C_19
REMARK    9  A    between atoms: C_22  and  C_25
REMARK   10  A    between atoms: N_27  and  C_28
REMARK                            x       y       z     vdW  Elec       q    Type
REMARK                         _______ _______ _______ _____ _____    ______ ____
ROOT
ATOM      1  C   UNL     1      -2.016  -0.759   1.227  0.00  0.00    +0.030 A 
ATOM      2  C   UNL     1      -3.317  -1.246   1.238  0.00  0.00    +0.023 A 
ATOM      3  C   UNL     1      -3.950  -1.490   2.441  0.00  0.00    +0.003 A 
ATOM      4  C   UNL     1      -3.291  -1.252   3.633  0.00  0.00    -0.064 A 
ATOM      5  C   UNL     1      -1.996  -0.767   3.625  0.00  0.00    +0.003 A 
ATOM      6  C   UNL     1      -1.354  -0.526   2.426  0.00  0.00    +0.023 A 
ENDROOT
BRANCH   1   7
ATOM      7  N   UNL     1      -1.372  -0.511   0.012  0.00  0.00    -0.326 N 
BRANCH   7   9
ATOM      8  C   UNL     1      -0.019   1.526   0.010  0.00  0.00    +0.024 C 
ATOM      9  C   UNL     1       0.002  -0.004   0.002  0.00  0.00    +0.102 C 
ENDBRANCH   7   9
BRANCH   7  10
ATOM     10  C   UNL     1      -2.072  -0.758  -1.251  0.00  0.00    +0.140 C 
BRANCH  10  11
ATOM     11  C   UNL     1      -1.820  -2.175  -1.696  0.00  0.00    -0.030 A 
ATOM     12  C   UNL     1      -0.734  -2.464  -2.502  0.00  0.00    +0.005 A 
ATOM     13  C   UNL     1      -0.503  -3.765  -2.910  0.00  0.00    +0.000 A 
ATOM     14  C   UNL     1      -1.357  -4.776  -2.512  0.00  0.00    +0.000 A 
ATOM     15  C   UNL     1      -2.442  -4.487  -1.706  0.00  0.00    +0.000 A 
ATOM     16  C   UNL     1      -2.671  -3.188  -1.294  0.00  0.00    +0.005 A 
ENDBRANCH  10  11
ENDBRANCH   7  10
ENDBRANCH   1   7
BRANCH   4  17
ATOM     17  C   UNL     1      -3.986  -1.519   4.943  0.00  0.00    -0.046 C 
BRANCH  17  18
ATOM     18  N   UNL     1      -3.727  -2.903   5.361  0.00  0.00    +0.384 N 
ATOM     19  H   UNL     1      -4.077  -3.538   4.659  0.00  0.00    -0.085 HD
ATOM     20  H   UNL     1      -2.733  -3.041   5.473  0.00  0.00    -0.085 HD
BRANCH  18  21
ATOM     21  C   UNL     1      -4.404  -3.164   6.638  0.00  0.00    -0.071 C 
ATOM     22  C   UNL     1      -3.786  -2.289   7.731  0.00  0.00    -0.015 C 
ATOM     23  C   UNL     1      -4.491  -2.561   9.061  0.00  0.00    +0.011 C 
ATOM     24  C   UNL     1      -4.326  -4.035   9.434  0.00  0.00    +0.075 C 
ATOM     25  C   UNL     1      -4.944  -4.910   8.342  0.00  0.00    +0.011 C 
ATOM     26  C   UNL     1      -4.239  -4.639   7.011  0.00  0.00    -0.015 C 
BRANCH  24  27
ATOM     27  C   UNL     1      -2.860  -4.359   9.568  0.00  0.00    +0.216 C 
ATOM     28  O   UNL     1      -2.029  -3.495   9.383  0.00  0.00    -0.276 OA
ATOM     29  N   UNL     1      -2.473  -5.608   9.893  0.00  0.00    -0.318 N 
ATOM     30  C   UNL     1      -1.048  -5.923  10.022  0.00  0.00    +0.128 C 
ATOM     31  H   UNL     1      -3.138  -6.299  10.041  0.00  0.00    +0.148 HD
ENDBRANCH  24  27
ENDBRANCH  18  21
ENDBRANCH  17  18
ENDBRANCH   4  17
TORSDOF 8
