REMARK  Name = ZINC08825831
REMARK  10 active torsions:
REMARK  status: ('A' for Active; 'I' for Inactive)
REMARK    1  A    between atoms: C_1  and  C_2
REMARK    2  A    between atoms: C_5  and  N_8
REMARK    3  A    between atoms: C_12  and  S_14
REMARK    4  A    between atoms: S_14  and  C_15
REMARK    5  A    between atoms: C_15  and  C_16
REMARK    6  A    between atoms: N_18  and  C_19
REMARK    7  A    between atoms: C_19  and  C_20
REMARK    8  A    between atoms: C_20  and  C_21
REMARK    9  A    between atoms: C_24  and  S_27
REMARK   10  A    between atoms: S_27  and  N_30
REMARK                            x       y       z     vdW  Elec       q    Type
REMARK                         _______ _______ _______ _____ _____    ______ ____
ROOT
ATOM      1  C   UNL     1       0.026   1.415   1.085  0.00  0.00    +0.223 C 
ATOM      2  O   UNL     1      -1.024   1.992   1.271  0.00  0.00    -0.275 OA
ATOM      3  N   UNL     1       1.184   2.105   1.092  0.00  0.00    -0.314 N 
ATOM      4  H   UNL     1       2.024   1.645   0.939  0.00  0.00    +0.149 HD
ENDROOT
BRANCH   1   5
ATOM      5  C   UNL     1       0.037  -0.072   0.841  0.00  0.00    +0.172 C 
BRANCH   5   6
ATOM      6  S   UNL     1      -1.663  -0.705   0.894  0.00  0.00    -0.088 S 
BRANCH   6  11
ATOM      7  N   UNL     1      -1.966  -6.424  -0.012  0.00  0.00    -0.292 N 
ATOM      8  C   UNL     1      -1.652  -5.083   0.178  0.00  0.00    +0.187 A 
ATOM      9  N   UNL     1      -0.474  -4.490   0.166  0.00  0.00    -0.125 NA
ATOM     10  N   UNL     1      -0.387  -3.134   0.380  0.00  0.00    -0.133 NA
ATOM     11  C   UNL     1      -1.483  -2.432   0.595  0.00  0.00    +0.160 A 
ATOM     12  S   UNL     1      -2.736  -3.702   0.510  0.00  0.00    -0.024 S 
ATOM     13  H   UNL     1      -2.893  -6.702  -0.062  0.00  0.00    +0.154 HD
BRANCH   7  18
ATOM     14  C   UNL     1       2.178 -10.265  -0.497  0.00  0.00    +0.044 C 
ATOM     15  C   UNL     1       1.077  -9.245  -0.368  0.00  0.00    -0.050 A 
ATOM     16  C   UNL     1       1.302  -8.072   0.330  0.00  0.00    +0.005 A 
ATOM     17  C   UNL     1       0.295  -7.134   0.450  0.00  0.00    +0.023 A 
ATOM     18  C   UNL     1      -0.945  -7.370  -0.132  0.00  0.00    +0.033 A 
ATOM     19  C   UNL     1      -1.169  -8.552  -0.828  0.00  0.00    +0.023 A 
ATOM     20  C   UNL     1      -0.156  -9.482  -0.948  0.00  0.00    +0.005 A 
ENDBRANCH   7  18
ENDBRANCH   6  11
ENDBRANCH   5   6
ENDBRANCH   1   5
BRANCH   3  21
ATOM     21  C   UNL     1       1.174   3.551   1.329  0.00  0.00    +0.109 C 
BRANCH  21  22
ATOM     22  C   UNL     1       2.607   4.085   1.284  0.00  0.00    +0.054 C 
BRANCH  22  23
ATOM     23  C   UNL     1       2.597   5.572   1.529  0.00  0.00    -0.046 A 
ATOM     24  C   UNL     1       2.489   6.447   0.464  0.00  0.00    +0.005 A 
ATOM     25  C   UNL     1       2.475   7.811   0.688  0.00  0.00    +0.029 A 
ATOM     26  C   UNL     1       2.578   8.300   1.977  0.00  0.00    +0.105 A 
ATOM     27  C   UNL     1       2.691   7.426   3.041  0.00  0.00    +0.029 A 
ATOM     28  C   UNL     1       2.700   6.061   2.817  0.00  0.00    +0.005 A 
BRANCH  26  29
ATOM     29  S   UNL     1       2.565  10.039   2.262  0.00  0.00    +0.056 S 
ATOM     30  O   UNL     1       1.901  10.628   1.152  0.00  0.00    -0.153 OA
ATOM     31  O   UNL     1       2.125  10.227   3.600  0.00  0.00    -0.153 OA
BRANCH  29  32
ATOM     32  N   UNL     1       4.136  10.557   2.204  0.00  0.00    -0.204 NA
ATOM     33  H   UNL     1       4.340  11.457   1.905  0.00  0.00    +0.144 HD
ATOM     34  H   UNL     1       4.854   9.960   2.468  0.00  0.00    +0.144 HD
ENDBRANCH  29  32
ENDBRANCH  26  29
ENDBRANCH  22  23
ENDBRANCH  21  22
ENDBRANCH   3  21
TORSDOF 9
