REMARK  Name = ZINC39951320
REMARK  7 active torsions:
REMARK  status: ('A' for Active; 'I' for Inactive)
REMARK    1  A    between atoms: C_1  and  C_2
REMARK    2  A    between atoms: C_2  and  C_3
REMARK    3  A    between atoms: C_3  and  C_4
REMARK    4  A    between atoms: C_9  and  C_27
REMARK    5  A    between atoms: C_10  and  O_12
REMARK    6  A    between atoms: C_27  and  C_28
REMARK    7  A    between atoms: C_28  and  C_29
REMARK                            x       y       z     vdW  Elec       q    Type
REMARK                         _______ _______ _______ _____ _____    ______ ____
ROOT
ATOM      1  C   UNL     1       0.342  -2.494  -1.004  0.00  0.00    +0.011 C 
ATOM      2  C   UNL     1      -1.094  -2.898  -1.147  0.00  0.00    +0.026 C 
ATOM      3  C   UNL     1      -1.379  -4.308  -0.751  0.00  0.00    +0.087 C 
ATOM      4  N   UNL     1      -0.340  -5.262  -1.059  0.00  0.00    -0.273 NA
ATOM      5  C   UNL     1       0.387  -5.096  -2.289  0.00  0.00    +0.097 C 
ATOM      6  C   UNL     1       1.616  -4.212  -2.254  0.00  0.00    +0.023 C 
ATOM      7  C   UNL     1       1.200  -2.757  -2.217  0.00  0.00    +0.131 C 
ATOM      8  C   UNL     1       2.449  -4.483  -0.995  0.00  0.00    +0.097 C 
ATOM      9  N   UNL     1       1.534  -4.361   0.153  0.00  0.00    -0.272 NA
ATOM     10  C   UNL     1       0.964  -3.019   0.279  0.00  0.00    +0.096 C 
ATOM     11  C   UNL     1       0.539  -5.428   0.110  0.00  0.00    +0.182 C 
ATOM     12  C   UNL     1      -0.263  -5.478   1.372  0.00  0.00    +0.019 A 
ATOM     13  C   UNL     1      -1.093  -4.550   1.964  0.00  0.00    +0.024 A 
ATOM     14  C   UNL     1      -1.697  -4.918   3.162  0.00  0.00    +0.018 A 
ATOM     15  C   UNL     1      -1.474  -6.157   3.729  0.00  0.00    +0.017 A 
ATOM     16  C   UNL     1      -0.642  -7.095   3.139  0.00  0.00    +0.025 A 
ATOM     17  C   UNL     1      -0.029  -6.738   1.936  0.00  0.00    +0.040 A 
ATOM     18  N   UNL     1       0.835  -7.469   1.140  0.00  0.00    -0.282 N 
ATOM     19  C   UNL     1       1.220  -6.779   0.046  0.00  0.00    +0.257 C 
ATOM     20  O   UNL     1       1.971  -7.168  -0.824  0.00  0.00    -0.272 OA
ATOM     21 BR   UNL     1      -2.849  -3.696   4.032  0.00  0.00    -0.050 Br
ATOM     22  H   UNL     1       1.130  -8.370   1.344  0.00  0.00    +0.155 HD
ENDROOT
BRANCH   7  23
ATOM     23  O   UNL     1       2.375  -1.946  -2.157  0.00  0.00    -0.391 OA
ATOM     24  H   UNL     1       2.196  -0.996  -2.135  0.00  0.00    +0.210 HD
ENDBRANCH   7  23
BRANCH   1  25
ATOM     25  C   UNL     1       0.321  -0.973  -0.847  0.00  0.00    +0.010 C 
BRANCH  25  27
ATOM     26  C   UNL     1      -0.382   1.173  -1.917  0.00  0.00    +0.004 C 
ATOM     27  C   UNL     1      -0.242  -0.336  -2.120  0.00  0.00    -0.003 C 
ENDBRANCH  25  27
ENDBRANCH   1  25
BRANCH   6  28
ATOM     28  C   UNL     1       2.469  -4.474  -3.496  0.00  0.00    +0.012 C 
BRANCH  28  29
ATOM     29  C   UNL     1       1.652  -4.164  -4.751  0.00  0.00    -0.003 C 
ATOM     30  C   UNL     1       2.462  -4.541  -5.994  0.00  0.00    +0.004 C 
ENDBRANCH  28  29
ENDBRANCH   6  28
TORSDOF 5
