REMARK  Name = ZINC16204383
REMARK  6 active torsions:
REMARK  status: ('A' for Active; 'I' for Inactive)
REMARK    1  A    between atoms: C_1  and  C_2
REMARK    2  A    between atoms: N_6  and  C_14
REMARK    3  A    between atoms: C_14  and  C_15
REMARK    4  A    between atoms: C_15  and  C_16
REMARK    5  A    between atoms: N_21  and  S_24
REMARK    6  A    between atoms: S_24  and  C_27
REMARK                            x       y       z     vdW  Elec       q    Type
REMARK                         _______ _______ _______ _____ _____    ______ ____
ROOT
ATOM      1  C   UNL     1       2.368   7.081  -2.177  0.00  0.00    +0.217 C 
ATOM      2  O   UNL     1       3.152   7.404  -1.310  0.00  0.00    -0.276 OA
ATOM      3  N   UNL     1       2.596   7.434  -3.458  0.00  0.00    -0.299 N 
ATOM      4  C   UNL     1       1.657   7.044  -4.520  0.00  0.00    +0.125 C 
ATOM      5  C   UNL     1       1.210   8.315  -5.263  0.00  0.00    +0.128 C 
ATOM      6  N   UNL     1       2.405   9.091  -5.623  0.00  0.00    -0.174 NA
ATOM      7  C   UNL     1       3.346   9.476  -4.562  0.00  0.00    +0.128 C 
ATOM      8  C   UNL     1       3.790   8.211  -3.818  0.00  0.00    +0.125 C 
ENDROOT
BRANCH   6   9
ATOM      9  S   UNL     1       2.685   9.525  -7.197  0.00  0.00    +0.061 S 
ATOM     10  O   UNL     1       1.422   9.527  -7.848  0.00  0.00    -0.153 OA
ATOM     11  O   UNL     1       3.524  10.671  -7.159  0.00  0.00    -0.153 OA
BRANCH   9  12
ATOM     12  C   UNL     1       3.629   8.233  -7.933  0.00  0.00    +0.106 A 
ATOM     13  C   UNL     1       5.011   8.277  -7.897  0.00  0.00    +0.029 A 
ATOM     14  C   UNL     1       5.743   7.259  -8.473  0.00  0.00    +0.006 A 
ATOM     15  C   UNL     1       5.105   6.197  -9.100  0.00  0.00    -0.044 A 
ATOM     16  C   UNL     1       3.729   6.155  -9.138  0.00  0.00    -0.042 A 
ATOM     17  C   UNL     1       2.993   7.178  -8.553  0.00  0.00    +0.032 A 
ATOM     18  C   UNL     1       2.970   5.030  -9.791  0.00  0.00    +0.035 C 
ATOM     19  C   UNL     1       3.880   4.245 -10.734  0.00  0.00    +0.005 C 
ATOM     20  C   UNL     1       5.152   3.860  -9.969  0.00  0.00    +0.005 C 
ATOM     21  C   UNL     1       5.966   5.128  -9.720  0.00  0.00    +0.035 C 
ENDBRANCH   9  12
ENDBRANCH   6   9
BRANCH   1  22
ATOM     22  C   UNL     1       1.139   6.285  -1.823  0.00  0.00    +0.115 C 
BRANCH  22  23
ATOM     23  C   UNL     1       1.121   6.019  -0.316  0.00  0.00    +0.123 C 
BRANCH  23  28
ATOM     24  C   UNL     1      -2.408   4.796   2.254  0.00  0.00    +0.062 C 
ATOM     25  C   UNL     1      -2.434   5.057   0.747  0.00  0.00    +0.256 C 
ATOM     26  C   UNL     1      -1.226   5.870   0.358  0.00  0.00    +0.260 C 
ATOM     27  O   UNL     1      -1.287   7.081   0.341  0.00  0.00    -0.271 OA
ATOM     28  N   UNL     1      -0.074   5.244   0.029  0.00  0.00    -0.265 N 
ATOM     29  C   UNL     1      -0.041   3.843   0.023  0.00  0.00    +0.078 A 
ATOM     30  C   UNL     1       1.166   3.164   0.008  0.00  0.00    +0.027 A 
ATOM     31  C   UNL     1       1.177   1.781   0.000  0.00  0.00    +0.002 A 
ATOM     32  C   UNL     1      -0.013   1.076   0.008  0.00  0.00    +0.004 A 
ATOM     33  C   UNL     1      -1.221   1.748   0.017  0.00  0.00    +0.047 A 
ATOM     34  C   UNL     1      -1.240   3.132   0.031  0.00  0.00    +0.143 A 
ATOM     35  O   UNL     1      -2.419   3.809   0.048  0.00  0.00    -0.478 OA
ENDBRANCH  23  28
ENDBRANCH  22  23
ENDBRANCH   1  22
TORSDOF 5
