REMARK  Name = ZINC23718538
REMARK  10 active torsions:
REMARK  status: ('A' for Active; 'I' for Inactive)
REMARK    1  A    between atoms: C_1  and  C_2
REMARK    2  A    between atoms: C_2  and  C_3
REMARK    3  A    between atoms: C_2  and  C_4
REMARK    4  A    between atoms: C_4  and  N_5
REMARK    5  A    between atoms: C_9  and  C_12
REMARK    6  A    between atoms: C_12  and  N_13
REMARK    7  A    between atoms: C_14  and  C_16
REMARK    8  A    between atoms: C_16  and  N_17
REMARK    9  A    between atoms: N_20  and  S_23
REMARK   10  A    between atoms: S_23  and  C_26
REMARK                            x       y       z     vdW  Elec       q    Type
REMARK                         _______ _______ _______ _____ _____    ______ ____
ROOT
ATOM      1  N   UNL     1       0.573  -0.438   4.094  0.00  0.00    +0.387 N 
ATOM      2  C   UNL     1      -0.613  -0.101   3.294  0.00  0.00    -0.061 C 
ATOM      3  C   UNL     1      -0.569  -0.873   1.971  0.00  0.00    +0.091 C 
ATOM      4  N   UNL     1       0.720  -0.605   1.316  0.00  0.00    -0.180 NA
ATOM      5  C   UNL     1       1.951  -0.795   2.098  0.00  0.00    +0.091 C 
ATOM      6  C   UNL     1       1.808  -0.020   3.418  0.00  0.00    -0.061 C 
ATOM      7  H   UNL     1       0.604  -1.533   4.200  0.00  0.00    -0.081 HD
ENDROOT
BRANCH   4   8
ATOM      8  S   UNL     1       0.784  -0.108  -0.263  0.00  0.00    +0.061 S 
ATOM      9  O   UNL     1      -0.418  -0.553  -0.877  0.00  0.00    -0.153 OA
ATOM     10  O   UNL     1       2.068  -0.470  -0.750  0.00  0.00    -0.153 OA
BRANCH   8  11
ATOM     11  C   UNL     1       0.725   1.653  -0.258  0.00  0.00    +0.106 A 
ATOM     12  C   UNL     1      -0.492   2.306  -0.323  0.00  0.00    +0.029 A 
ATOM     13  C   UNL     1      -0.530   3.685  -0.315  0.00  0.00    +0.006 A 
ATOM     14  C   UNL     1       0.645   4.423  -0.255  0.00  0.00    -0.044 A 
ATOM     15  C   UNL     1       1.856   3.773  -0.193  0.00  0.00    -0.042 A 
ATOM     16  C   UNL     1       1.892   2.384  -0.195  0.00  0.00    +0.032 A 
ATOM     17  C   UNL     1       3.169   4.508  -0.115  0.00  0.00    +0.035 C 
ATOM     18  C   UNL     1       2.996   5.962  -0.550  0.00  0.00    +0.005 C 
ATOM     19  C   UNL     1       1.825   6.566   0.234  0.00  0.00    +0.005 C 
ATOM     20  C   UNL     1       0.531   5.925  -0.264  0.00  0.00    +0.035 C 
ENDBRANCH   8  11
ENDBRANCH   4   8
BRANCH   1  21
ATOM     21  C   UNL     1       0.484   0.146   5.439  0.00  0.00    +0.019 C 
BRANCH  21  23
ATOM     22  N   UNL     1       1.699  -0.021   7.587  0.00  0.00    -0.314 N 
ATOM     23  C   UNL     1       1.583  -0.416   6.303  0.00  0.00    +0.197 C 
ATOM     24  O   UNL     1       2.363  -1.224   5.845  0.00  0.00    -0.278 OA
ATOM     25  H   UNL     1       0.992   0.712   8.003  0.00  0.00    +0.149 HD
BRANCH  22  26
ATOM     26  C   UNL     1       2.767  -0.567   8.428  0.00  0.00    +0.137 C 
BRANCH  26  31
ATOM     27  N   UNL     1       3.746   0.116  12.028  0.00  0.00    -0.297 NA
ATOM     28  C   UNL     1       3.899   1.573  11.902  0.00  0.00    +0.112 C 
ATOM     29  C   UNL     1       2.782   2.122  11.010  0.00  0.00    +0.175 C 
ATOM     30  O   UNL     1       2.822   1.462   9.742  0.00  0.00    -0.372 OA
ATOM     31  C   UNL     1       2.676   0.042   9.828  0.00  0.00    +0.149 C 
ATOM     32  C   UNL     1       3.792  -0.529  10.708  0.00  0.00    +0.117 C 
BRANCH  27  33
ATOM     33  C   UNL     1       4.767  -0.444  12.923  0.00  0.00    +0.087 C 
BRANCH  33  35
ATOM     34  C   UNL     1       5.544  -2.516  14.084  0.00  0.00    +0.008 C 
ATOM     35  C   UNL     1       4.438  -1.909  13.218  0.00  0.00    -0.003 C 
ATOM     36  C   UNL     1       3.104  -1.993  13.962  0.00  0.00    +0.008 C 
ENDBRANCH  33  35
ENDBRANCH  27  33
ENDBRANCH  26  31
ENDBRANCH  22  26
ENDBRANCH  21  23
ENDBRANCH   1  21
TORSDOF 8
