REMARK  Name = ZINC64789314
REMARK  8 active torsions:
REMARK  status: ('A' for Active; 'I' for Inactive)
REMARK    1  A    between atoms: C_1  and  C_2
REMARK    2  A    between atoms: C_2  and  C_3
REMARK    3  A    between atoms: C_6  and  C_28
REMARK    4  A    between atoms: N_17  and  C_20
REMARK    5  A    between atoms: C_20  and  C_21
REMARK    6  A    between atoms: C_31  and  C_34
REMARK    7  A    between atoms: C_34  and  C_35
REMARK    8  A    between atoms: C_34  and  C_36
REMARK                            x       y       z     vdW  Elec       q    Type
REMARK                         _______ _______ _______ _____ _____    ______ ____
ROOT
ATOM      1  C   UNL     1      -1.412  -0.526   0.013  0.00  0.00    +0.232 C 
ATOM      2  O   UNL     1      -2.344   0.250   0.026  0.00  0.00    -0.274 OA
ATOM      3  N   UNL     1      -1.640  -1.854   0.008  0.00  0.00    -0.215 N 
ATOM      4  C   UNL     1      -2.965  -2.489   0.011  0.00  0.00    +0.132 C 
ATOM      5  C   UNL     1      -2.668  -3.999   0.003  0.00  0.00    +0.082 C 
ATOM      6  C   UNL     1      -1.159  -4.084  -0.005  0.00  0.00    +0.041 C 
ATOM      7  N   UNL     1      -0.656  -2.841  -0.007  0.00  0.00    -0.264 N 
ATOM      8  C   UNL     1      -0.418  -5.251  -0.013  0.00  0.00    +0.118 C 
ATOM      9  C   UNL     1      -1.068  -6.574  -0.021  0.00  0.00    +0.258 C 
ATOM     10  N   UNL     1      -0.282  -7.670  -0.029  0.00  0.00    -0.235 N 
ATOM     11  H   UNL     1      -0.693  -8.549  -0.035  0.00  0.00    +0.159 HD
ATOM     12  C   UNL     1       1.055  -7.574  -0.030  0.00  0.00    +0.316 C 
ATOM     13  O   UNL     1       1.706  -8.600  -0.038  0.00  0.00    -0.252 OA
ATOM     14  N   UNL     1       1.712  -6.405  -0.023  0.00  0.00    -0.217 N 
ATOM     15  C   UNL     1       1.055  -5.227  -0.020  0.00  0.00    +0.261 C 
ATOM     16  O   UNL     1       1.663  -4.173  -0.018  0.00  0.00    -0.269 OA
ATOM     17  O   UNL     1      -2.280  -6.675  -0.020  0.00  0.00    -0.270 OA
ATOM     18  H   UNL     1       0.294  -2.648  -0.016  0.00  0.00    +0.170 HD
ENDROOT
BRANCH   4  19
ATOM     19  C   UNL     1      -3.728  -2.106   1.253  0.00  0.00    -0.025 A 
ATOM     20  C   UNL     1      -3.069  -1.996   2.463  0.00  0.00    +0.006 A 
ATOM     21  C   UNL     1      -3.769  -1.646   3.602  0.00  0.00    +0.004 A 
ATOM     22  C   UNL     1      -5.128  -1.405   3.532  0.00  0.00    -0.045 A 
ATOM     23  C   UNL     1      -5.788  -1.514   2.321  0.00  0.00    +0.004 A 
ATOM     24  C   UNL     1      -5.087  -1.860   1.181  0.00  0.00    +0.006 A 
BRANCH  22  25
ATOM     25  C   UNL     1      -5.892  -1.024   4.774  0.00  0.00    +0.013 C 
ATOM     26  C   UNL     1      -6.532   0.352   4.577  0.00  0.00    +0.012 C 
ATOM     27  C   UNL     1      -6.984  -2.061   5.040  0.00  0.00    +0.012 C 
ENDBRANCH  22  25
ENDBRANCH   4  19
BRANCH   1  29
ATOM     28  C   UNL     1      -0.019   1.526   0.010  0.00  0.00    +0.013 C 
ATOM     29  C   UNL     1       0.002  -0.004   0.002  0.00  0.00    +0.094 C 
ENDBRANCH   1  29
BRANCH  14  30
ATOM     30  C   UNL     1       3.177  -6.408  -0.024  0.00  0.00    +0.153 C 
BRANCH  30  31
ATOM     31  C   UNL     1       3.678  -6.399  -1.446  0.00  0.00    -0.030 A 
ATOM     32  C   UNL     1       3.900  -7.593  -2.107  0.00  0.00    +0.005 A 
ATOM     33  C   UNL     1       4.360  -7.585  -3.411  0.00  0.00    +0.000 A 
ATOM     34  C   UNL     1       4.597  -6.384  -4.053  0.00  0.00    +0.000 A 
ATOM     35  C   UNL     1       4.374  -5.191  -3.392  0.00  0.00    +0.000 A 
ATOM     36  C   UNL     1       3.910  -5.198  -2.089  0.00  0.00    +0.005 A 
ENDBRANCH  30  31
ENDBRANCH  14  30
TORSDOF 5
