REMARK  Name = ZINC18202671
REMARK  6 active torsions:
REMARK  status: ('A' for Active; 'I' for Inactive)
REMARK    1  A    between atoms: C_1  and  C_2
REMARK    2  A    between atoms: C_5  and  N_8
REMARK    3  A    between atoms: C_17  and  C_23
REMARK    4  A    between atoms: C_23  and  N_24
REMARK    5  A    between atoms: N_24  and  C_25
REMARK    6  A    between atoms: C_25  and  N_27
REMARK                            x       y       z     vdW  Elec       q    Type
REMARK                         _______ _______ _______ _____ _____    ______ ____
ROOT
ATOM      1  N   UNL     1       0.081  -4.184  -0.001  0.00  0.00    -0.210 N 
ATOM      2  C   UNL     1      -0.008  -4.903  -1.125  0.00  0.00    +0.233 C 
ATOM      3  O   UNL     1      -0.108  -4.444  -2.243  0.00  0.00    -0.274 OA
ATOM      4  C   UNL     1       0.035  -6.376  -0.788  0.00  0.00    +0.123 C 
ATOM      5  C   UNL     1      -1.390  -6.972  -1.010  0.00  0.00    +0.155 C 
ATOM      6  C   UNL     1      -1.274  -8.444  -0.606  0.00  0.00    +0.004 C 
ATOM      7  C   UNL     1      -1.177  -8.465   0.712  0.00  0.00    +0.008 C 
ATOM      8  C   UNL     1      -1.230  -7.007   1.175  0.00  0.00    +0.116 C 
ATOM      9  C   UNL     1       0.168  -6.382   0.767  0.00  0.00    +0.128 C 
ATOM     10  C   UNL     1       0.189  -4.912   1.117  0.00  0.00    +0.233 C 
ATOM     11  O   UNL     1       0.286  -4.461   2.238  0.00  0.00    -0.274 OA
ATOM     12  O   UNL     1      -2.111  -6.414   0.140  0.00  0.00    -0.359 OA
ENDROOT
BRANCH   1  17
ATOM     13  C   UNL     1       0.031   1.491   0.024  0.00  0.00    +0.044 C 
ATOM     14  C   UNL     1       0.045  -0.016   0.017  0.00  0.00    -0.050 A 
ATOM     15  C   UNL     1       1.099  -0.699   0.595  0.00  0.00    +0.005 A 
ATOM     16  C   UNL     1       1.113  -2.080   0.591  0.00  0.00    +0.024 A 
ATOM     17  C   UNL     1       0.069  -2.782   0.006  0.00  0.00    +0.044 A 
ATOM     18  C   UNL     1      -0.988  -2.094  -0.574  0.00  0.00    +0.024 A 
ATOM     19  C   UNL     1      -1.000  -0.713  -0.562  0.00  0.00    +0.005 A 
ENDBRANCH   1  17
BRANCH   8  20
ATOM     20  C   UNL     1      -1.644  -6.790   2.632  0.00  0.00    +0.143 C 
BRANCH  20  21
ATOM     21  N   UNL     1      -2.914  -7.474   2.886  0.00  0.00    -0.323 N 
ATOM     22  H   UNL     1      -3.351  -7.965   2.173  0.00  0.00    +0.148 HD
BRANCH  21  23
ATOM     23  C   UNL     1      -3.476  -7.420   4.110  0.00  0.00    +0.133 C 
ATOM     24  S   UNL     1      -2.778  -6.442   5.330  0.00  0.00    -0.019 S 
BRANCH  23  25
ATOM     25  N   UNL     1      -4.587  -8.135   4.374  0.00  0.00    -0.310 N 
ATOM     26  C   UNL     1      -5.283  -7.989   5.660  0.00  0.00    +0.125 C 
ATOM     27  C   UNL     1      -6.748  -7.628   5.386  0.00  0.00    +0.125 C 
ATOM     28  N   UNL     1      -7.286  -8.568   4.392  0.00  0.00    -0.314 N 
ATOM     29  C   UNL     1      -6.589  -8.715   3.106  0.00  0.00    +0.125 C 
ATOM     30  C   UNL     1      -5.127  -9.072   3.378  0.00  0.00    +0.125 C 
ATOM     31  C   UNL     1      -8.431  -9.306   4.664  0.00  0.00    +0.099 A 
ATOM     32  C   UNL     1      -9.010  -9.241   5.928  0.00  0.00    +0.042 A 
ATOM     33  C   UNL     1     -10.150  -9.981   6.185  0.00  0.00    +0.005 A 
ATOM     34  C   UNL     1     -10.675 -10.764   5.166  0.00  0.00    +0.018 A 
ATOM     35  C   UNL     1     -10.050 -10.781   3.936  0.00  0.00    +0.084 A 
ATOM     36  N   UNL     1      -8.966 -10.061   3.717  0.00  0.00    -0.350 N 
ATOM     37  H   UNL     1      -8.548 -10.089   2.842  0.00  0.00    +0.166 HD
ENDBRANCH  23  25
ENDBRANCH  21  23
ENDBRANCH  20  21
ENDBRANCH   8  20
TORSDOF 5
