REMARK  Name = ZINC26433421
REMARK  2 active torsions:
REMARK  status: ('A' for Active; 'I' for Inactive)
REMARK    1  A    between atoms: C_3  and  N_24
REMARK    2  A    between atoms: C_6  and  C_7
REMARK                            x       y       z     vdW  Elec       q    Type
REMARK                         _______ _______ _______ _____ _____    ______ ____
ROOT
ATOM      1  C   UNL     1      -0.013   1.076   0.008  0.00  0.00    +0.015 C 
ATOM      2  C   UNL     1       1.141   1.773   0.062  0.00  0.00    +0.001 C 
ATOM      3  C   UNL     1       1.171   3.286  -0.020  0.00  0.00    +0.045 C 
ATOM      4  C   UNL     1       1.856   3.859   1.223  0.00  0.00    +0.058 C 
ATOM      5  C   UNL     1       3.146   3.127   1.494  0.00  0.00    +0.028 A 
ATOM      6  C   UNL     1       3.420   1.860   1.034  0.00  0.00    +0.050 A 
ATOM      7  C   UNL     1       4.743   1.505   1.511  0.00  0.00    +0.013 A 
ATOM      8  C   UNL     1       5.534   0.365   1.367  0.00  0.00    +0.049 A 
ATOM      9  C   UNL     1       6.778   0.384   1.978  0.00  0.00    +0.124 A 
ATOM     10  C   UNL     1       7.220   1.482   2.699  0.00  0.00    +0.040 A 
ATOM     11  C   UNL     1       6.450   2.622   2.853  0.00  0.00    +0.029 A 
ATOM     12  C   UNL     1       5.195   2.628   2.249  0.00  0.00    +0.048 A 
ATOM     13  N   UNL     1       4.207   3.577   2.210  0.00  0.00    -0.357 N 
ATOM     14  H   UNL     1       4.183   4.581   2.659  0.00  0.00    +0.166 HD
ATOM     15  F   UNL     1       7.581  -0.696   1.867  0.00  0.00    -0.205 F 
ATOM     16  C   UNL     1       2.460   1.103   0.211  0.00  0.00    +0.192 C 
ATOM     17  O   UNL     1       2.725   0.030  -0.301  0.00  0.00    -0.287 OA
ENDROOT
BRANCH   1  23
ATOM     18  C   UNL     1      -2.466   1.373   0.295  0.00  0.00    +0.010 A 
ATOM     19  C   UNL     1      -3.641   2.026  -0.013  0.00  0.00    +0.033 A 
ATOM     20  C   UNL     1      -3.643   3.055  -0.938  0.00  0.00    +0.126 A 
ATOM     21  C   UNL     1      -2.467   3.442  -1.556  0.00  0.00    +0.033 A 
ATOM     22  C   UNL     1      -1.282   2.804  -1.254  0.00  0.00    +0.010 A 
ATOM     23  C   UNL     1      -1.272   1.762  -0.321  0.00  0.00    -0.025 A 
BRANCH  20  24
ATOM     24  N   UNL     1      -4.910   3.746  -1.268  0.00  0.00    +0.056 N 
ATOM     25  O   UNL     1      -4.915   4.652  -2.082  0.00  0.00    -0.126 OA
ATOM     26  O   UNL     1      -5.947   3.408  -0.726  0.00  0.00    -0.126 OA
ENDBRANCH  20  24
ENDBRANCH   1  23
TORSDOF 2
