REMARK  Name = ZINC08820628
REMARK  8 active torsions:
REMARK  status: ('A' for Active; 'I' for Inactive)
REMARK    1  A    between atoms: C_1  and  C_2
REMARK    2  A    between atoms: C_2  and  C_10
REMARK    3  A    between atoms: C_3  and  C_4
REMARK    4  A    between atoms: N_14  and  C_18
REMARK    5  A    between atoms: C_18  and  C_19
REMARK    6  A    between atoms: N_21  and  C_22
REMARK    7  A    between atoms: C_25  and  N_29
REMARK    8  A    between atoms: C_27  and  O_28
REMARK                            x       y       z     vdW  Elec       q    Type
REMARK                         _______ _______ _______ _____ _____    ______ ____
ROOT
ATOM      1  C   UNL     1      -3.172   1.214   3.816  0.00  0.00    +0.023 C 
ATOM      2  C   UNL     1      -2.176   1.703   3.021  0.00  0.00    +0.077 C 
ATOM      3  C   UNL     1      -1.401   1.029   1.963  0.00  0.00    +0.259 C 
ATOM      4  O   UNL     1      -1.595  -0.138   1.673  0.00  0.00    -0.269 OA
ATOM      5  N   UNL     1      -0.484   1.754   1.346  0.00  0.00    -0.246 N 
ATOM      6  C   UNL     1      -0.268   3.045   1.674  0.00  0.00    +0.121 C 
ATOM      7  S   UNL     1       0.866   4.138   1.002  0.00  0.00    -0.027 S 
ATOM      8  S   UNL     1      -1.454   3.337   2.976  0.00  0.00    -0.061 S 
ENDROOT
BRANCH   1  10
ATOM      9  C   UNL     1      -3.638   3.566   4.607  0.00  0.00    +0.044 C 
ATOM     10  C   UNL     1      -3.881   2.080   4.670  0.00  0.00    -0.049 C 
ATOM     11  C   UNL     1      -4.781   1.578   5.549  0.00  0.00    +0.011 C 
BRANCH  11  12
ATOM     12  C   UNL     1      -5.397   2.457   6.553  0.00  0.00    -0.025 A 
ATOM     13  C   UNL     1      -4.646   3.473   7.154  0.00  0.00    +0.008 A 
ATOM     14  C   UNL     1      -5.233   4.297   8.091  0.00  0.00    +0.001 A 
ATOM     15  C   UNL     1      -6.559   4.113   8.446  0.00  0.00    +0.000 A 
ATOM     16  C   UNL     1      -7.307   3.107   7.861  0.00  0.00    +0.001 A 
ATOM     17  C   UNL     1      -6.736   2.278   6.918  0.00  0.00    +0.008 A 
ENDBRANCH  11  12
ENDBRANCH   1  10
BRANCH   5  18
ATOM     18  C   UNL     1       0.320   1.141   0.285  0.00  0.00    +0.211 C 
BRANCH  18  19
ATOM     19  C   UNL     1      -0.370   1.331  -1.041  0.00  0.00    +0.235 C 
ATOM     20  O   UNL     1      -1.429   1.920  -1.095  0.00  0.00    -0.274 OA
ATOM     21  N   UNL     1       0.190   0.846  -2.167  0.00  0.00    -0.281 N 
ATOM     22  H   UNL     1       1.066   0.430  -2.134  0.00  0.00    +0.155 HD
BRANCH  21  23
ATOM     23  C   UNL     1      -0.494   0.941  -3.387  0.00  0.00    +0.076 A 
ATOM     24  C   UNL     1      -1.348   2.008  -3.623  0.00  0.00    +0.029 A 
ATOM     25  C   UNL     1      -2.022   2.100  -4.827  0.00  0.00    +0.035 A 
ATOM     26  C   UNL     1      -1.845   1.131  -5.797  0.00  0.00    +0.130 A 
ATOM     27  C   UNL     1      -0.995   0.065  -5.569  0.00  0.00    +0.080 A 
ATOM     28  C   UNL     1      -0.313  -0.032  -4.367  0.00  0.00    +0.140 A 
BRANCH  26  29
ATOM     29  N   UNL     1      -2.568   1.236  -7.085  0.00  0.00    +0.057 N 
ATOM     30  O   UNL     1      -3.317   2.174  -7.288  0.00  0.00    -0.126 OA
ATOM     31  O   UNL     1      -2.414   0.383  -7.941  0.00  0.00    -0.126 OA
ENDBRANCH  26  29
BRANCH  28  32
ATOM     32  O   UNL     1       0.528  -1.077  -4.143  0.00  0.00    -0.505 OA
ATOM     33  H   UNL     1       0.102  -1.845  -3.739  0.00  0.00    +0.292 HD
ENDBRANCH  28  32
ENDBRANCH  21  23
ENDBRANCH  18  19
ENDBRANCH   5  18
TORSDOF 7
