REMARK  Name = ZINC06190685
REMARK  17 active torsions:
REMARK  status: ('A' for Active; 'I' for Inactive)
REMARK    1  A    between atoms: C_1  and  C_2
REMARK    2  A    between atoms: C_2  and  C_3
REMARK    3  A    between atoms: C_2  and  C_4
REMARK    4  A    between atoms: C_4  and  C_6
REMARK    5  A    between atoms: C_4  and  N_16
REMARK    6  A    between atoms: C_6  and  O_8
REMARK    7  A    between atoms: O_8  and  C_9
REMARK    8  A    between atoms: C_9  and  C_10
REMARK    9  A    between atoms: C_17  and  C_19
REMARK   10  A    between atoms: C_19  and  C_21
REMARK   11  A    between atoms: C_19  and  N_32
REMARK   12  A    between atoms: C_21  and  C_22
REMARK   13  A    between atoms: C_33  and  O_35
REMARK   14  A    between atoms: O_35  and  C_36
REMARK   15  A    between atoms: C_36  and  C_37
REMARK   16  A    between atoms: C_36  and  C_38
REMARK   17  A    between atoms: C_36  and  C_39
REMARK                            x       y       z     vdW  Elec       q    Type
REMARK                         _______ _______ _______ _____ _____    ______ ____
ROOT
ATOM      1  C   UNL     1      -2.023   5.544   0.515  0.00  0.00    +0.166 C 
ENDROOT
BRANCH   1   3
ATOM      2  N   UNL     1      -0.860   3.478   1.220  0.00  0.00    -0.301 N 
ATOM      3  C   UNL     1      -1.894   4.043   0.566  0.00  0.00    +0.234 C 
ATOM      4  O   UNL     1      -2.721   3.345   0.019  0.00  0.00    -0.274 OA
ATOM      5  H   UNL     1      -0.199   4.037   1.657  0.00  0.00    +0.150 HD
BRANCH   2   6
ATOM      6  C   UNL     1      -0.735   2.019   1.269  0.00  0.00    +0.184 C 
BRANCH   6   8
ATOM      7  C   UNL     1       0.002  -0.004   0.002  0.00  0.00    +0.009 C 
ATOM      8  C   UNL     1      -0.019   1.526   0.010  0.00  0.00    +0.014 C 
ATOM      9  C   UNL     1       1.417   2.055  -0.000  0.00  0.00    +0.009 C 
ENDBRANCH   6   8
BRANCH   6  10
ATOM     10  C   UNL     1       0.060   1.625   2.487  0.00  0.00    +0.328 C 
ATOM     11  O   UNL     1       0.479   2.475   3.236  0.00  0.00    -0.249 OA
BRANCH  10  12
ATOM     12  O   UNL     1       0.303   0.329   2.739  0.00  0.00    -0.459 OA
BRANCH  12  13
ATOM     13  C   UNL     1       1.076   0.022   3.930  0.00  0.00    +0.267 C 
BRANCH  13  14
ATOM     14  C   UNL     1       1.247  -1.470   4.047  0.00  0.00    -0.010 A 
ATOM     15  C   UNL     1       0.318  -2.220   4.745  0.00  0.00    +0.007 A 
ATOM     16  C   UNL     1       0.471  -3.589   4.848  0.00  0.00    +0.000 A 
ATOM     17  C   UNL     1       1.560  -4.209   4.263  0.00  0.00    +0.000 A 
ATOM     18  C   UNL     1       2.492  -3.459   3.571  0.00  0.00    +0.000 A 
ATOM     19  C   UNL     1       2.335  -2.090   3.462  0.00  0.00    +0.007 A 
ENDBRANCH  13  14
ENDBRANCH  12  13
ENDBRANCH  10  12
ENDBRANCH   6  10
ENDBRANCH   2   6
ENDBRANCH   1   3
BRANCH   1  20
ATOM     20  N   UNL     1      -3.407   5.905   0.194  0.00  0.00    -0.269 N 
ATOM     21  C   UNL     1      -3.960   5.491  -0.963  0.00  0.00    +0.401 C 
ATOM     22  O   UNL     1      -3.312   4.819  -1.740  0.00  0.00    -0.226 OA
ATOM     23  H   UNL     1      -3.924   6.441   0.815  0.00  0.00    +0.153 HD
BRANCH  21  24
ATOM     24  O   UNL     1      -5.231   5.822  -1.258  0.00  0.00    -0.445 OA
BRANCH  24  25
ATOM     25  C   UNL     1      -5.762   5.342  -2.521  0.00  0.00    +0.107 C 
ATOM     26  C   UNL     1      -5.720   3.812  -2.543  0.00  0.00    +0.055 C 
ATOM     27  C   UNL     1      -7.208   5.814  -2.680  0.00  0.00    +0.055 C 
ATOM     28  C   UNL     1      -4.916   5.892  -3.671  0.00  0.00    +0.055 C 
ENDBRANCH  24  25
ENDBRANCH  21  24
ENDBRANCH   1  20
BRANCH   1  29
ATOM     29  C   UNL     1      -1.089   6.100  -0.561  0.00  0.00    +0.069 C 
BRANCH  29  30
ATOM     30  C   UNL     1      -1.126   7.606  -0.529  0.00  0.00    -0.020 A 
ATOM     31  C   UNL     1      -1.890   8.402  -1.294  0.00  0.00    +0.087 A 
ATOM     32  N   UNL     1      -1.655   9.714  -0.982  0.00  0.00    -0.360 N 
ATOM     33  H   UNL     1      -2.090  10.473  -1.401  0.00  0.00    +0.165 HD
ATOM     34  C   UNL     1      -0.704   9.796   0.010  0.00  0.00    +0.047 A 
ATOM     35  C   UNL     1      -0.330   8.479   0.337  0.00  0.00    +0.003 A 
ATOM     36  C   UNL     1       0.629   8.252   1.325  0.00  0.00    +0.010 A 
ATOM     37  C   UNL     1       1.203   9.312   1.970  0.00  0.00    +0.001 A 
ATOM     38  C   UNL     1       0.839  10.613   1.650  0.00  0.00    +0.002 A 
ATOM     39  C   UNL     1      -0.107  10.859   0.679  0.00  0.00    +0.026 A 
ENDBRANCH  29  30
ENDBRANCH   1  29
TORSDOF 12
