REMARK  Name = ZINC66695390
REMARK  3 active torsions:
REMARK  status: ('A' for Active; 'I' for Inactive)
REMARK    1  A    between atoms: C_8  and  C_10
REMARK    2  A    between atoms: C_11  and  C_12
REMARK    3  A    between atoms: C_18  and  C_21
REMARK                            x       y       z     vdW  Elec       q    Type
REMARK                         _______ _______ _______ _____ _____    ______ ____
ROOT
ATOM      1  C   UNL     1       4.641  -5.794  -0.072  0.00  0.00    +0.240 C 
ATOM      2  O   UNL     1       3.776  -6.643   0.029  0.00  0.00    -0.271 OA
ATOM      3  N   UNL     1       5.934  -6.159  -0.188  0.00  0.00    -0.293 N 
ATOM      4  C   UNL     1       7.008  -5.152  -0.190  0.00  0.00    +0.136 C 
ATOM      5  C   UNL     1       8.067  -5.574   0.835  0.00  0.00    +0.179 C 
ATOM      6  O   UNL     1       8.461  -6.924   0.577  0.00  0.00    -0.369 OA
ATOM      7  C   UNL     1       7.405  -7.878   0.715  0.00  0.00    +0.166 C 
ATOM      8  C   UNL     1       6.313  -7.575  -0.310  0.00  0.00    +0.144 C 
ENDROOT
BRANCH   7   9
ATOM      9  C   UNL     1       7.947  -9.265   0.483  0.00  0.00    -0.015 A 
ATOM     10  C   UNL     1       8.953  -9.467  -0.444  0.00  0.00    +0.006 A 
ATOM     11  C   UNL     1       9.451 -10.739  -0.658  0.00  0.00    +0.003 A 
ATOM     12  C   UNL     1       8.944 -11.809   0.053  0.00  0.00    +0.038 A 
ATOM     13  C   UNL     1       7.936 -11.608   0.982  0.00  0.00    +0.124 A 
ATOM     14  C   UNL     1       7.443 -10.333   1.200  0.00  0.00    +0.044 A 
ATOM     15  F   UNL     1       7.439 -12.654   1.677  0.00  0.00    -0.205 F 
ENDBRANCH   7   9
BRANCH   1  17
ATOM     16  C   UNL     1       2.979  -4.009  -0.052  0.00  0.00    +0.040 C 
ATOM     17  C   UNL     1       4.278  -4.373  -0.067  0.00  0.00    +0.070 C 
BRANCH  16  25
ATOM     18  C   UNL     1      -0.019   1.353  -0.012  0.00  0.00    +0.002 A 
ATOM     19  C   UNL     1       1.152   2.100  -0.024  0.00  0.00    +0.001 A 
ATOM     20  C   UNL     1       2.372   1.450  -0.038  0.00  0.00    +0.017 A 
ATOM     21  C   UNL     1       2.405   0.076  -0.041  0.00  0.00    +0.040 A 
ATOM     22  C   UNL     1       1.228  -0.715  -0.029  0.00  0.00    +0.079 A 
ATOM     23  C   UNL     1       0.000  -0.005  -0.014  0.00  0.00    +0.029 A 
ATOM     24  N   UNL     1       1.417  -2.038  -0.032  0.00  0.00    -0.240 NA
ATOM     25  C   UNL     1       2.616  -2.586  -0.046  0.00  0.00    +0.102 A 
ATOM     26  S   UNL     1       3.686  -1.154  -0.056  0.00  0.00    -0.068 S 
ENDBRANCH  16  25
ENDBRANCH   1  17
TORSDOF 3
