REMARK  Name = ZINC34923367
REMARK  13 active torsions:
REMARK  status: ('A' for Active; 'I' for Inactive)
REMARK    1  A    between atoms: C_1  and  C_2
REMARK    2  A    between atoms: C_5  and  C_8
REMARK    3  A    between atoms: C_10  and  C_31
REMARK    4  A    between atoms: C_11  and  C_30
REMARK    5  A    between atoms: C_15  and  C_18
REMARK    6  A    between atoms: C_19  and  N_21
REMARK    7  A    between atoms: N_21  and  C_22
REMARK    8  A    between atoms: C_22  and  C_23
REMARK    9  A    between atoms: C_23  and  N_24
REMARK   10  A    between atoms: C_31  and  O_33
REMARK   11  A    between atoms: O_33  and  C_34
REMARK   12  A    between atoms: C_34  and  C_35
REMARK   13  A    between atoms: C_34  and  C_36
REMARK                            x       y       z     vdW  Elec       q    Type
REMARK                         _______ _______ _______ _____ _____    ______ ____
ROOT
ATOM      1  C   UNL     1       0.051  -3.729   0.337  0.00  0.00    +0.150 C 
ATOM      2  C   UNL     1       1.387  -4.433   0.260  0.00  0.00    +0.082 C 
ATOM      3  C   UNL     1       1.611  -5.486   1.127  0.00  0.00    +0.053 C 
ATOM      4  N   UNL     1       0.678  -5.854   1.989  0.00  0.00    -0.230 NA
ATOM      5  C   UNL     1      -0.503  -5.285   2.107  0.00  0.00    +0.166 C 
ATOM      6  N   UNL     1      -0.920  -4.230   1.346  0.00  0.00    -0.267 N 
ATOM      7  C   UNL     1      -2.189  -3.744   1.591  0.00  0.00    +0.048 C 
ATOM      8  C   UNL     1      -2.915  -4.346   2.558  0.00  0.00    +0.072 C 
ATOM      9  S   UNL     1      -1.796  -5.609   3.127  0.00  0.00    -0.060 S 
ATOM     10  C   UNL     1       2.928  -6.219   1.088  0.00  0.00    +0.066 C 
ENDROOT
BRANCH   1  15
ATOM     11  C   UNL     1       1.040   1.856   1.442  0.00  0.00    +0.044 C 
ATOM     12  C   UNL     1       0.782   0.400   1.154  0.00  0.00    -0.050 A 
ATOM     13  C   UNL     1       0.451  -0.004  -0.127  0.00  0.00    +0.004 A 
ATOM     14  C   UNL     1       0.215  -1.340  -0.391  0.00  0.00    +0.006 A 
ATOM     15  C   UNL     1       0.310  -2.273   0.625  0.00  0.00    -0.022 A 
ATOM     16  C   UNL     1       0.642  -1.869   1.905  0.00  0.00    +0.006 A 
ATOM     17  C   UNL     1       0.883  -0.534   2.168  0.00  0.00    +0.004 A 
ENDBRANCH   1  15
BRANCH   7  18
ATOM     18  C   UNL     1      -2.731  -2.612   0.826  0.00  0.00    +0.091 C 
ATOM     19  C   UNL     1      -4.018  -2.246   0.985  0.00  0.00    +0.239 C 
ATOM     20  O   UNL     1      -4.780  -2.844   1.932  0.00  0.00    -0.271 OA
BRANCH  19  21
ATOM     21  N   UNL     1      -4.561  -1.259   0.180  0.00  0.00    -0.314 N 
ATOM     22  H   UNL     1      -4.040  -0.883  -0.546  0.00  0.00    +0.149 HD
BRANCH  21  23
ATOM     23  C   UNL     1      -5.925  -0.783   0.425  0.00  0.00    +0.086 C 
BRANCH  23  24
ATOM     24  C   UNL     1      -6.323   0.209  -0.670  0.00  0.00    -0.060 C 
BRANCH  24  25
ATOM     25  N   UNL     1      -7.651   0.762  -0.370  0.00  0.00    +0.381 N 
ATOM     26  C   UNL     1      -8.651  -0.310  -0.428  0.00  0.00    -0.079 C 
ATOM     27  C   UNL     1     -10.022   0.244  -0.037  0.00  0.00    -0.019 C 
ATOM     28  C   UNL     1     -10.412   1.360  -1.011  0.00  0.00    -0.004 C 
ATOM     29  C   UNL     1      -9.325   2.438  -0.998  0.00  0.00    -0.019 C 
ATOM     30  C   UNL     1      -7.979   1.802  -1.353  0.00  0.00    -0.079 C 
ATOM     31  H   UNL     1      -7.645   1.165   0.555  0.00  0.00    -0.082 HD
ENDBRANCH  24  25
ENDBRANCH  23  24
ENDBRANCH  21  23
ENDBRANCH  19  21
ENDBRANCH   7  18
BRANCH   2  32
ATOM     32  C   UNL     1       2.365  -4.032  -0.659  0.00  0.00    +0.339 C 
ATOM     33  O   UNL     1       3.475  -4.533  -0.625  0.00  0.00    -0.245 OA
BRANCH  32  34
ATOM     34  O   UNL     1       2.076  -3.089  -1.583  0.00  0.00    -0.459 OA
BRANCH  34  35
ATOM     35  C   UNL     1       3.121  -2.728  -2.489  0.00  0.00    +0.171 C 
ATOM     36  C   UNL     1       3.057  -3.627  -3.725  0.00  0.00    +0.052 C 
ATOM     37  C   UNL     1       2.948  -1.267  -2.911  0.00  0.00    +0.052 C 
ENDBRANCH  34  35
ENDBRANCH  32  34
ENDBRANCH   2  32
TORSDOF 9
