REMARK  Name = ZINC02919578
REMARK  4 active torsions:
REMARK  status: ('A' for Active; 'I' for Inactive)
REMARK    1  A    between atoms: C_1  and  C_2
REMARK    2  A    between atoms: C_5  and  C_9
REMARK    3  A    between atoms: C_7  and  C_8
REMARK    4  A    between atoms: C_12  and  C_20
REMARK                            x       y       z     vdW  Elec       q    Type
REMARK                         _______ _______ _______ _____ _____    ______ ____
ROOT
ATOM      1  C   UNL     1       0.059  -4.275  -0.021  0.00  0.00    +0.106 C 
ATOM      2  C   UNL     1       1.485  -4.770  -0.291  0.00  0.00    +0.059 C 
ATOM      3  C   UNL     1       1.520  -6.303  -0.246  0.00  0.00    +0.144 C 
ATOM      4  N   UNL     1       0.436  -6.822  -1.076  0.00  0.00    -0.206 N 
ATOM      5  C   UNL     1      -0.646  -6.101  -1.464  0.00  0.00    +0.236 A 
ATOM      6  N   UNL     1      -1.393  -6.883  -2.191  0.00  0.00    -0.092 NA
ATOM      7  N   UNL     1      -0.856  -8.051  -2.287  0.00  0.00    -0.021 NA
ATOM      8  N   UNL     1       0.260  -8.089  -1.632  0.00  0.00    -0.042 NA
ATOM      9  N   UNL     1      -0.828  -4.776  -1.090  0.00  0.00    -0.305 N 
ATOM     10  H   UNL     1      -1.497  -4.212  -1.507  0.00  0.00    +0.150 HD
ENDROOT
BRANCH   1  15
ATOM     11  C   UNL     1      -0.018   1.503   0.010  0.00  0.00    +0.044 C 
ATOM     12  C   UNL     1       0.002  -0.004   0.002  0.00  0.00    -0.048 A 
ATOM     13  C   UNL     1       0.006  -0.689  -1.199  0.00  0.00    +0.004 A 
ATOM     14  C   UNL     1       0.025  -2.071  -1.207  0.00  0.00    +0.006 A 
ATOM     15  C   UNL     1       0.040  -2.768  -0.013  0.00  0.00    -0.027 A 
ATOM     16  C   UNL     1       0.037  -2.084   1.188  0.00  0.00    +0.009 A 
ATOM     17  C   UNL     1       0.023  -0.702   1.195  0.00  0.00    -0.047 A 
ATOM     18  C   UNL     1       0.025   0.045   2.504  0.00  0.00    +0.044 C 
ENDBRANCH   1  15
BRANCH   3  19
ATOM     19  C   UNL     1       2.844  -6.794  -0.773  0.00  0.00    -0.023 A 
ATOM     20  C   UNL     1       3.230  -6.486  -2.064  0.00  0.00    +0.007 A 
ATOM     21  C   UNL     1       4.444  -6.935  -2.548  0.00  0.00    +0.020 A 
ATOM     22  C   UNL     1       5.272  -7.694  -1.741  0.00  0.00    +0.041 A 
ATOM     23  C   UNL     1       4.885  -8.003  -0.449  0.00  0.00    +0.020 A 
ATOM     24  C   UNL     1       3.673  -7.548   0.036  0.00  0.00    +0.007 A 
ATOM     25 CL   UNL     1       6.797  -8.261  -2.348  0.00  0.00    -0.084 Cl
ENDBRANCH   3  19
TORSDOF 2
