REMARK  Name = ZINC15781025
REMARK  7 active torsions:
REMARK  status: ('A' for Active; 'I' for Inactive)
REMARK    1  A    between atoms: C_1  and  C_2
REMARK    2  A    between atoms: C_5  and  C_8
REMARK    3  A    between atoms: C_8  and  C_10
REMARK    4  A    between atoms: C_8  and  N_20
REMARK    5  A    between atoms: C_10  and  C_12
REMARK    6  A    between atoms: C_10  and  O_19
REMARK    7  A    between atoms: C_15  and  C_18
REMARK                            x       y       z     vdW  Elec       q    Type
REMARK                         _______ _______ _______ _____ _____    ______ ____
ROOT
ATOM      1  C   UNL     1       0.012  -0.016   0.002  0.00  0.00    +0.172 C 
ENDROOT
BRANCH   1   2
ATOM      2  N   UNL     1      -0.784  -0.508  -1.125  0.00  0.00    -0.234 N 
ATOM      3  C   UNL     1      -0.344  -1.299  -2.160  0.00  0.00    +0.090 A 
ATOM      4  C   UNL     1       0.882  -1.867  -2.489  0.00  0.00    +0.029 A 
ATOM      5  C   UNL     1       0.998  -2.625  -3.620  0.00  0.00    +0.002 A 
ATOM      6  C   UNL     1      -0.099  -2.835  -4.446  0.00  0.00    +0.002 A 
ATOM      7  C   UNL     1      -1.312  -2.290  -4.145  0.00  0.00    +0.032 A 
ATOM      8  C   UNL     1      -1.458  -1.508  -2.991  0.00  0.00    +0.113 A 
ATOM      9  N   UNL     1      -2.504  -0.855  -2.446  0.00  0.00    -0.129 NA
ATOM     10  N   UNL     1      -2.147  -0.269  -1.358  0.00  0.00    -0.064 NA
ENDBRANCH   1   2
BRANCH   1  15
ATOM     11  C   UNL     1      -0.014   5.763   0.004  0.00  0.00    +0.044 C 
ATOM     12  C   UNL     1      -0.007   4.255   0.003  0.00  0.00    -0.050 A 
ATOM     13  C   UNL     1       1.182   3.570  -0.161  0.00  0.00    +0.004 A 
ATOM     14  C   UNL     1       1.188   2.187  -0.161  0.00  0.00    +0.006 A 
ATOM     15  C   UNL     1       0.005   1.491   0.002  0.00  0.00    -0.020 A 
ATOM     16  C   UNL     1      -1.184   2.177   0.160  0.00  0.00    +0.006 A 
ATOM     17  C   UNL     1      -1.190   3.559   0.166  0.00  0.00    +0.004 A 
ENDBRANCH   1  15
BRANCH   1  18
ATOM     18  C   UNL     1      -0.588  -0.529   1.312  0.00  0.00    +0.173 C 
BRANCH  18  19
ATOM     19  C   UNL     1      -0.469  -2.031   1.366  0.00  0.00    -0.017 A 
ATOM     20  C   UNL     1       0.699  -2.615   1.819  0.00  0.00    +0.006 A 
ATOM     21  C   UNL     1       0.807  -3.993   1.873  0.00  0.00    +0.004 A 
ATOM     22  C   UNL     1      -0.249  -4.785   1.463  0.00  0.00    -0.050 A 
ATOM     23  C   UNL     1      -1.415  -4.200   1.004  0.00  0.00    +0.004 A 
ATOM     24  C   UNL     1      -1.524  -2.823   0.955  0.00  0.00    +0.006 A 
ATOM     25  C   UNL     1      -0.130  -6.286   1.516  0.00  0.00    +0.044 C 
ENDBRANCH  18  19
BRANCH  18  26
ATOM     26  O   UNL     1       0.116   0.044   2.416  0.00  0.00    -0.385 OA
ATOM     27  H   UNL     1       1.073  -0.094   2.386  0.00  0.00    +0.210 HD
ENDBRANCH  18  26
ENDBRANCH   1  18
TORSDOF 5
