REMARK  Name = ZINC36770516
REMARK  4 active torsions:
REMARK  status: ('A' for Active; 'I' for Inactive)
REMARK    1  A    between atoms: C_1  and  C_2
REMARK    2  A    between atoms: C_2  and  C_3
REMARK    3  A    between atoms: C_10  and  C_12
REMARK    4  A    between atoms: C_15  and  C_24
REMARK                            x       y       z     vdW  Elec       q    Type
REMARK                         _______ _______ _______ _____ _____    ______ ____
ROOT
ATOM      1  C   UNL     1      -4.758  -3.843  -0.476  0.00  0.00    +0.109 C 
ATOM      2  C   UNL     1      -5.235  -4.836  -1.535  0.00  0.00    +0.039 C 
ATOM      3  C   UNL     1      -6.576  -5.433  -1.087  0.00  0.00    +0.068 C 
ATOM      4  N   UNL     1      -6.343  -6.178   0.157  0.00  0.00    -0.341 N 
ATOM      5  C   UNL     1      -5.556  -5.596   1.157  0.00  0.00    +0.031 A 
ATOM      6  C   UNL     1      -4.781  -4.478   0.890  0.00  0.00    -0.015 A 
ATOM      7  C   UNL     1      -4.008  -3.926   1.898  0.00  0.00    +0.006 A 
ATOM      8  C   UNL     1      -4.010  -4.484   3.162  0.00  0.00    +0.000 A 
ATOM      9  C   UNL     1      -4.784  -5.598   3.429  0.00  0.00    +0.002 A 
ATOM     10  C   UNL     1      -5.557  -6.154   2.430  0.00  0.00    +0.023 A 
ATOM     11  C   UNL     1      -7.585  -4.310  -0.839  0.00  0.00    +0.028 C 
ATOM     12  H   UNL     1      -6.728  -7.059   0.284  0.00  0.00    +0.146 HD
ENDROOT
BRANCH   1  19
ATOM     13  C   UNL     1      -1.609  -1.518  -3.246  0.00  0.00    +0.135 C 
ATOM     14  C   UNL     1      -1.780  -1.779  -1.746  0.00  0.00    +0.139 C 
ATOM     15  N   UNL     1      -3.142  -2.286  -1.515  0.00  0.00    -0.296 N 
ATOM     16  C   UNL     1      -4.267  -1.531  -2.089  0.00  0.00    +0.136 C 
ATOM     17  C   UNL     1      -3.975  -1.282  -3.573  0.00  0.00    +0.179 C 
ATOM     18  O   UNL     1      -2.680  -0.691  -3.706  0.00  0.00    -0.373 OA
ATOM     19  C   UNL     1      -3.352  -3.408  -0.799  0.00  0.00    +0.223 C 
ATOM     20  O   UNL     1      -2.410  -4.068  -0.415  0.00  0.00    -0.275 OA
BRANCH  13  22
ATOM     21  C   UNL     1      -0.049  -0.659  -4.999  0.00  0.00    +0.006 C 
ATOM     22  C   UNL     1      -0.275  -0.810  -3.494  0.00  0.00    +0.030 C 
ENDBRANCH  13  22
ENDBRANCH   1  19
TORSDOF 2
