REMARK  Name = ZINC55052828
REMARK  7 active torsions:
REMARK  status: ('A' for Active; 'I' for Inactive)
REMARK    1  A    between atoms: C_1  and  C_2
REMARK    2  A    between atoms: C_4  and  C_26
REMARK    3  A    between atoms: N_5  and  C_25
REMARK    4  A    between atoms: C_8  and  C_9
REMARK    5  A    between atoms: N_11  and  C_12
REMARK    6  A    between atoms: C_13  and  C_21
REMARK    7  A    between atoms: N_23  and  C_24
REMARK                            x       y       z     vdW  Elec       q    Type
REMARK                         _______ _______ _______ _____ _____    ______ ____
ROOT
ATOM      1  C   UNL     1       0.243  -0.012   2.478  0.00  0.00    +0.254 C 
ATOM      2  O   UNL     1       0.145   1.200   2.518  0.00  0.00    -0.270 OA
ATOM      3  N   UNL     1       0.465  -0.708   3.611  0.00  0.00    -0.275 N 
ATOM      4  H   UNL     1       0.621  -1.664   3.570  0.00  0.00    +0.156 HD
ENDROOT
BRANCH   1  12
ATOM      5  C   UNL     1       0.025   1.502   0.005  0.00  0.00    +0.045 C 
ATOM      6  C   UNL     1       0.014  -0.005   0.001  0.00  0.00    -0.031 A 
ATOM      7  C   UNL     1      -0.096  -0.709  -1.198  0.00  0.00    +0.025 A 
ATOM      8  C   UNL     1      -0.105  -2.067  -1.193  0.00  0.00    +0.019 A 
ATOM      9  N   UNL     1      -0.010  -2.766  -0.036  0.00  0.00    -0.315 N 
ATOM     10  C   UNL     1       0.098  -2.136   1.149  0.00  0.00    +0.264 A 
ATOM     11  O   UNL     1       0.183  -2.782   2.179  0.00  0.00    -0.267 OA
ATOM     12  C   UNL     1       0.119  -0.718   1.194  0.00  0.00    +0.104 A 
ATOM     13  C   UNL     1      -0.024  -4.230  -0.076  0.00  0.00    +0.152 C 
ATOM     14  C   UNL     1      -0.224  -2.811  -2.498  0.00  0.00    +0.063 C 
ENDBRANCH   1  12
BRANCH   3  15
ATOM     15  C   UNL     1       0.471  -0.057   4.834  0.00  0.00    +0.085 A 
ATOM     16  C   UNL     1       0.685  -0.604   6.090  0.00  0.00    +0.069 A 
ATOM     17  C   UNL     1       0.638   0.301   7.225  0.00  0.00    -0.023 A 
ATOM     18  C   UNL     1       0.386   1.587   6.896  0.00  0.00    -0.004 A 
ATOM     19  S   UNL     1       0.227   1.577   5.135  0.00  0.00    -0.077 S 
ATOM     20  C   UNL     1       0.274   2.749   7.834  0.00  0.00    +0.043 C 
ATOM     21  C   UNL     1       0.115   2.204   9.261  0.00  0.00    +0.005 C 
ATOM     22  C   UNL     1       1.176   1.126   9.501  0.00  0.00    +0.005 C 
ATOM     23  C   UNL     1       0.850  -0.118   8.672  0.00  0.00    +0.037 C 
BRANCH  16  24
ATOM     24  C   UNL     1       0.947  -2.035   6.264  0.00  0.00    +0.246 C 
ATOM     25  O   UNL     1       2.090  -2.452   6.238  0.00  0.00    -0.270 OA
ATOM     26  N   UNL     1      -0.078  -2.890   6.454  0.00  0.00    -0.314 N 
ATOM     27  C   UNL     1       0.184  -4.321   6.629  0.00  0.00    +0.128 C 
ATOM     28  H   UNL     1      -0.989  -2.558   6.475  0.00  0.00    +0.149 HD
ENDBRANCH  16  24
ENDBRANCH   3  15
TORSDOF 3
