REMARK  Name = ZINC64801713
REMARK  10 active torsions:
REMARK  status: ('A' for Active; 'I' for Inactive)
REMARK    1  A    between atoms: C_1  and  C_2
REMARK    2  A    between atoms: C_2  and  N_3
REMARK    3  A    between atoms: C_6  and  C_29
REMARK    4  A    between atoms: C_8  and  N_10
REMARK    5  A    between atoms: N_10  and  C_11
REMARK    6  A    between atoms: C_14  and  N_17
REMARK    7  A    between atoms: N_17  and  S_18
REMARK    8  A    between atoms: S_18  and  C_21
REMARK    9  A    between atoms: C_24  and  C_28
REMARK   10  A    between atoms: C_25  and  C_27
REMARK                            x       y       z     vdW  Elec       q    Type
REMARK                         _______ _______ _______ _____ _____    ______ ____
ROOT
ATOM      1  C   UNL     1       2.608  -5.516   3.669  0.00  0.00    +0.032 A 
ATOM      2  C   UNL     1       2.114  -6.562   2.902  0.00  0.00    +0.025 A 
ATOM      3  C   UNL     1       2.162  -7.855   3.385  0.00  0.00    +0.026 A 
ATOM      4  C   UNL     1       2.704  -8.108   4.638  0.00  0.00    +0.048 A 
ATOM      5  C   UNL     1       3.199  -7.061   5.405  0.00  0.00    +0.026 A 
ATOM      6  C   UNL     1       3.155  -5.769   4.920  0.00  0.00    +0.025 A 
ENDROOT
BRANCH   1   7
ATOM      7  N   UNL     1       2.559  -4.204   3.179  0.00  0.00    -0.299 N 
ATOM      8  H   UNL     1       3.260  -3.574   3.410  0.00  0.00    +0.154 HD
BRANCH   7  14
ATOM      9  N   UNL     1      -1.567  -5.122   1.141  0.00  0.00    -0.315 N 
ATOM     10  C   UNL     1      -0.516  -4.248   1.358  0.00  0.00    +0.195 A 
ATOM     11  N   UNL     1      -0.539  -3.055   0.781  0.00  0.00    -0.332 N 
ATOM     12  C   UNL     1       0.449  -2.191   0.965  0.00  0.00    +0.019 A 
ATOM     13  C   UNL     1       1.515  -2.544   1.770  0.00  0.00    +0.064 A 
ATOM     14  C   UNL     1       1.511  -3.808   2.364  0.00  0.00    +0.128 A 
ATOM     15  N   UNL     1       0.485  -4.623   2.140  0.00  0.00    -0.201 NA
ATOM     16  C   UNL     1       0.410  -0.838   0.302  0.00  0.00    +0.063 C 
ATOM     17  H   UNL     1      -1.564  -5.997   1.560  0.00  0.00    +0.149 HD
ATOM     18  H   UNL     1      -1.289  -2.811   0.216  0.00  0.00    +0.168 HD
BRANCH   9  20
ATOM     19  C   UNL     1      -3.701  -5.866   0.207  0.00  0.00    +0.024 C 
ATOM     20  C   UNL     1      -2.683  -4.727   0.278  0.00  0.00    +0.101 C 
ENDBRANCH   9  20
ENDBRANCH   7  14
ENDBRANCH   1   7
BRANCH   4  21
ATOM     21  N   UNL     1       2.753  -9.418   5.128  0.00  0.00    -0.216 N 
ATOM     22  H   UNL     1       1.979  -9.997   5.042  0.00  0.00    +0.174 HD
BRANCH  21  23
ATOM     23  S   UNL     1       4.130  -9.980   5.854  0.00  0.00    +0.072 S 
ATOM     24  O   UNL     1       4.472  -9.038   6.861  0.00  0.00    -0.150 OA
ATOM     25  O   UNL     1       3.907 -11.354   6.141  0.00  0.00    -0.150 OA
BRANCH  23  26
ATOM     26  C   UNL     1       5.416  -9.920   4.651  0.00  0.00    +0.109 A 
ATOM     27  C   UNL     1       5.574 -10.961   3.755  0.00  0.00    +0.029 A 
ATOM     28  C   UNL     1       6.582 -10.913   2.811  0.00  0.00    +0.005 A 
ATOM     29  C   UNL     1       7.433  -9.824   2.762  0.00  0.00    -0.047 A 
ATOM     30  C   UNL     1       7.274  -8.783   3.657  0.00  0.00    -0.046 A 
ATOM     31  C   UNL     1       6.263  -8.829   4.598  0.00  0.00    +0.032 A 
ATOM     32  C   UNL     1       8.201  -7.596   3.604  0.00  0.00    +0.044 C 
ATOM     33  C   UNL     1       8.533  -9.773   1.733  0.00  0.00    +0.044 C 
ENDBRANCH  23  26
ENDBRANCH  21  23
ENDBRANCH   4  21
TORSDOF 6
