REMARK  Name = ZINC35747698
REMARK  14 active torsions:
REMARK  status: ('A' for Active; 'I' for Inactive)
REMARK    1  A    between atoms: C_1  and  C_2
REMARK    2  A    between atoms: C_2  and  C_3
REMARK    3  A    between atoms: C_3  and  N_4
REMARK    4  A    between atoms: N_4  and  C_5
REMARK    5  A    between atoms: N_4  and  C_25
REMARK    6  A    between atoms: C_5  and  C_6
REMARK    7  A    between atoms: C_12  and  C_17
REMARK    8  A    between atoms: C_20  and  C_24
REMARK    9  A    between atoms: C_22  and  C_23
REMARK   10  A    between atoms: C_25  and  C_26
REMARK   11  A    between atoms: C_26  and  C_28
REMARK   12  A    between atoms: C_26  and  O_37
REMARK   13  A    between atoms: C_28  and  O_29
REMARK   14  A    between atoms: O_29  and  C_30
REMARK                            x       y       z     vdW  Elec       q    Type
REMARK                         _______ _______ _______ _____ _____    ______ ____
ROOT
ATOM      1  C   UNL     1      -2.749  -2.558  -0.391  0.00  0.00    -0.003 C 
ENDROOT
BRANCH   1   2
ATOM      2  C   UNL     1      -3.245  -2.043  -1.718  0.00  0.00    +0.094 A 
ATOM      3  N   UNL     1      -4.464  -2.433  -2.171  0.00  0.00    -0.312 N 
ATOM      4  H   UNL     1      -5.000  -3.038  -1.635  0.00  0.00    +0.170 HD
ATOM      5  C   UNL     1      -4.944  -1.996  -3.350  0.00  0.00    +0.260 A 
ATOM      6  O   UNL     1      -6.041  -2.354  -3.743  0.00  0.00    -0.267 OA
ATOM      7  C   UNL     1      -4.147  -1.103  -4.136  0.00  0.00    +0.080 A 
ATOM      8  C   UNL     1      -4.442  -0.498  -5.429  0.00  0.00    +0.004 A 
ATOM      9  C   UNL     1      -3.523   0.327  -5.987  0.00  0.00    +0.056 A 
ATOM     10  S   UNL     1      -2.198   0.336  -4.795  0.00  0.00    -0.076 S 
ATOM     11  C   UNL     1      -2.902  -0.756  -3.586  0.00  0.00    +0.116 A 
ATOM     12  N   UNL     1      -2.497  -1.226  -2.409  0.00  0.00    -0.229 NA
BRANCH   8  13
ATOM     13  C   UNL     1      -5.722  -0.780  -6.120  0.00  0.00    -0.014 A 
ATOM     14  C   UNL     1      -5.726  -1.468  -7.333  0.00  0.00    +0.009 A 
ATOM     15  C   UNL     1      -6.921  -1.729  -7.971  0.00  0.00    +0.004 A 
ATOM     16  C   UNL     1      -8.114  -1.308  -7.411  0.00  0.00    -0.050 A 
ATOM     17  C   UNL     1      -8.117  -0.625  -6.208  0.00  0.00    +0.007 A 
ATOM     18  C   UNL     1      -6.928  -0.363  -5.558  0.00  0.00    -0.042 A 
ATOM     19  C   UNL     1      -6.933   0.376  -4.245  0.00  0.00    +0.044 C 
ATOM     20  C   UNL     1      -9.416  -1.595  -8.114  0.00  0.00    +0.044 C 
ENDBRANCH   8  13
ENDBRANCH   1   2
BRANCH   1  21
ATOM     21  N   UNL     1      -1.420  -1.997  -0.114  0.00  0.00    +0.386 N 
ATOM     22  H   UNL     1      -0.800  -2.204  -0.883  0.00  0.00    -0.081 HD
BRANCH  21  23
ATOM     23  C   UNL     1      -1.528  -0.542   0.050  0.00  0.00    -0.078 C 
BRANCH  23  25
ATOM     24  C   UNL     1      -0.231   1.587   0.227  0.00  0.00    +0.002 C 
ATOM     25  C   UNL     1      -0.128   0.061   0.190  0.00  0.00    -0.022 C 
ENDBRANCH  23  25
ENDBRANCH  21  23
BRANCH  21  26
ATOM     26  C   UNL     1      -0.885  -2.591   1.119  0.00  0.00    -0.043 C 
BRANCH  26  27
ATOM     27  C   UNL     1      -0.634  -4.084   0.899  0.00  0.00    +0.135 C 
BRANCH  27  28
ATOM     28  O   UNL     1       0.312  -4.257  -0.158  0.00  0.00    -0.390 OA
ATOM     29  H   UNL     1       1.193  -3.911   0.042  0.00  0.00    +0.210 HD
ENDBRANCH  27  28
BRANCH  27  30
ATOM     30  C   UNL     1      -0.082  -4.703   2.184  0.00  0.00    +0.258 C 
BRANCH  30  31
ATOM     31  O   UNL     1       0.044  -6.117   2.016  0.00  0.00    -0.489 OA
BRANCH  31  32
ATOM     32  C   UNL     1       0.524  -6.823   3.073  0.00  0.00    +0.121 A 
ATOM     33  C   UNL     1       0.862  -6.170   4.250  0.00  0.00    +0.047 A 
ATOM     34  C   UNL     1       1.350  -6.890   5.323  0.00  0.00    +0.023 A 
ATOM     35  C   UNL     1       1.503  -8.262   5.225  0.00  0.00    +0.041 A 
ATOM     36  C   UNL     1       1.166  -8.915   4.053  0.00  0.00    +0.023 A 
ATOM     37  C   UNL     1       0.672  -8.200   2.979  0.00  0.00    +0.047 A 
ATOM     38 CL   UNL     1       2.117  -9.164   6.575  0.00  0.00    -0.084 Cl
ENDBRANCH  31  32
ENDBRANCH  30  31
ENDBRANCH  27  30
ENDBRANCH  26  27
ENDBRANCH  21  26
ENDBRANCH   1  21
TORSDOF 11
