REMARK  Name = ZINC20466849
REMARK  12 active torsions:
REMARK  status: ('A' for Active; 'I' for Inactive)
REMARK    1  A    between atoms: C_1  and  C_2
REMARK    2  A    between atoms: C_4  and  N_28
REMARK    3  A    between atoms: C_8  and  C_27
REMARK    4  A    between atoms: C_11  and  O_26
REMARK    5  A    between atoms: C_13  and  C_17
REMARK    6  A    between atoms: C_17  and  C_19
REMARK    7  A    between atoms: C_17  and  C_20
REMARK    8  A    between atoms: N_22  and  C_23
REMARK    9  A    between atoms: C_23  and  C_24
REMARK   10  A    between atoms: C_23  and  C_25
REMARK   11  A    between atoms: C_29  and  C_31
REMARK   12  A    between atoms: C_31  and  C_32
REMARK                            x       y       z     vdW  Elec       q    Type
REMARK                         _______ _______ _______ _____ _____    ______ ____
ROOT
ATOM      1  C   UNL     1       6.384  -4.403  -2.479  0.00  0.00    +0.010 C 
ATOM      2  C   UNL     1       7.176  -3.201  -2.998  0.00  0.00    +0.012 C 
ATOM      3  C   UNL     1       6.260  -1.979  -3.071  0.00  0.00    +0.076 C 
ATOM      4  C   UNL     1       7.053  -0.777  -3.589  0.00  0.00    +0.023 C 
ATOM      5  C   UNL     1       7.598  -1.090  -4.984  0.00  0.00    +0.009 C 
ATOM      6  C   UNL     1       8.515  -2.312  -4.911  0.00  0.00    -0.027 C 
ATOM      7  C   UNL     1       7.722  -3.514  -4.393  0.00  0.00    +0.028 C 
ATOM      8  C   UNL     1       8.639  -4.737  -4.320  0.00  0.00    +0.122 C 
ATOM      9  C   UNL     1       9.184  -5.049  -5.715  0.00  0.00    +0.029 C 
ATOM     10  C   UNL     1       9.977  -3.848  -6.233  0.00  0.00    +0.007 C 
ATOM     11  C   UNL     1       9.060  -2.625  -6.306  0.00  0.00    +0.007 C 
ATOM     12  C   UNL     1       9.679  -2.021  -3.962  0.00  0.00    +0.011 C 
ENDROOT
BRANCH   3  13
ATOM     13  N   UNL     1       5.737  -1.679  -1.735  0.00  0.00    -0.312 N 
ATOM     14  C   UNL     1       4.572  -1.016  -1.600  0.00  0.00    +0.218 C 
ATOM     15  O   UNL     1       3.955  -0.667  -2.585  0.00  0.00    -0.275 OA
ATOM     16  H   UNL     1       6.296  -1.996  -0.842  0.00  0.00    +0.149 HD
BRANCH  14  17
ATOM     17  C   UNL     1       4.035  -0.708  -0.226  0.00  0.00    +0.130 C 
BRANCH  17  18
ATOM     18  C   UNL     1       2.729   0.034  -0.352  0.00  0.00    -0.039 A 
ATOM     19  C   UNL     1       1.539  -0.666  -0.408  0.00  0.00    +0.004 A 
ATOM     20  C   UNL     1       0.341   0.015  -0.524  0.00  0.00    +0.000 A 
ATOM     21  C   UNL     1       0.334   1.396  -0.582  0.00  0.00    +0.000 A 
ATOM     22  C   UNL     1       1.525   2.096  -0.525  0.00  0.00    +0.000 A 
ATOM     23  C   UNL     1       2.723   1.415  -0.411  0.00  0.00    +0.004 A 
ENDBRANCH  17  18
ENDBRANCH  14  17
ENDBRANCH   3  13
BRANCH   9  24
ATOM     24  C   UNL     1       8.020  -5.340  -6.664  0.00  0.00    +0.077 C 
ATOM     25  C   UNL     1       7.177  -6.486  -6.101  0.00  0.00    +0.017 C 
BRANCH  24  26
ATOM     26  C   UNL     1       8.560  -5.731  -8.016  0.00  0.00    +0.216 C 
ATOM     27  O   UNL     1       9.758  -5.772  -8.201  0.00  0.00    -0.276 OA
ATOM     28  N   UNL     1       7.712  -6.034  -9.018  0.00  0.00    -0.313 N 
ATOM     29  H   UNL     1       6.625  -5.997  -8.850  0.00  0.00    +0.149 HD
BRANCH  28  30
ATOM     30  C   UNL     1       8.236  -6.414 -10.332  0.00  0.00    +0.067 C 
ATOM     31  C   UNL     1       7.205  -7.275 -11.064  0.00  0.00    +0.027 C 
ATOM     32  C   UNL     1       8.521  -5.153 -11.151  0.00  0.00    +0.027 C 
ENDBRANCH  28  30
ENDBRANCH  24  26
ENDBRANCH   9  24
BRANCH   8  33
ATOM     33  O   UNL     1       7.898  -5.859  -3.835  0.00  0.00    -0.391 OA
ATOM     34  H   UNL     1       8.393  -6.834  -3.715  0.00  0.00    +0.210 HD
ENDBRANCH   8  33
TORSDOF 7
