REMARK  Name = ZINC40993093
REMARK  7 active torsions:
REMARK  status: ('A' for Active; 'I' for Inactive)
REMARK    1  A    between atoms: C_1  and  C_2
REMARK    2  A    between atoms: C_2  and  C_3
REMARK    3  A    between atoms: C_6  and  O_10
REMARK    4  A    between atoms: O_10  and  C_11
REMARK    5  A    between atoms: C_11  and  C_12
REMARK    6  A    between atoms: C_18  and  C_25
REMARK    7  A    between atoms: C_19  and  C_24
REMARK                            x       y       z     vdW  Elec       q    Type
REMARK                         _______ _______ _______ _____ _____    ______ ____
ROOT
ATOM      1  C   UNL     1       4.348  -3.208   5.823  0.00  0.00    +0.256 C 
ATOM      2  O   UNL     1       3.665  -3.543   6.767  0.00  0.00    -0.272 OA
ATOM      3  N   UNL     1       5.691  -3.203   5.931  0.00  0.00    -0.262 N 
ATOM      4  C   UNL     1       6.292  -3.581   7.121  0.00  0.00    +0.166 A 
ATOM      5  N   UNL     1       7.570  -3.636   7.417  0.00  0.00    -0.224 NA
ATOM      6  C   UNL     1       8.018  -4.027   8.630  0.00  0.00    +0.083 A 
ATOM      7  C   UNL     1       9.356  -4.129   9.075  0.00  0.00    -0.021 A 
ATOM      8  C   UNL     1       9.640  -4.547  10.349  0.00  0.00    -0.045 A 
ATOM      9  C   UNL     1       8.634  -4.883  11.243  0.00  0.00    +0.005 A 
ATOM     10  C   UNL     1       7.314  -4.794  10.842  0.00  0.00    +0.017 A 
ATOM     11  C   UNL     1       7.019  -4.377   9.568  0.00  0.00    +0.041 A 
ATOM     12  S   UNL     1       5.524  -4.112   8.645  0.00  0.00    -0.052 S 
ATOM     13  C   UNL     1      11.079  -4.645  10.788  0.00  0.00    +0.044 C 
ATOM     14  C   UNL     1      10.482  -3.775   8.138  0.00  0.00    +0.046 C 
ATOM     15  H   UNL     1       6.238  -2.934   5.176  0.00  0.00    +0.157 HD
ENDROOT
BRANCH   1  16
ATOM     16  C   UNL     1       3.695  -2.796   4.529  0.00  0.00    +0.325 C 
BRANCH  16  17
ATOM     17  O   UNL     1       2.275  -2.884   4.663  0.00  0.00    -0.482 OA
BRANCH  17  21
ATOM     18  C   UNL     1       0.014  -1.856   1.368  0.00  0.00    -0.046 A 
ATOM     19  C   UNL     1       1.394  -1.792   1.306  0.00  0.00    +0.007 A 
ATOM     20  C   UNL     1       2.153  -2.136   2.408  0.00  0.00    +0.047 A 
ATOM     21  C   UNL     1       1.530  -2.545   3.578  0.00  0.00    +0.135 A 
ATOM     22  C   UNL     1       0.145  -2.608   3.638  0.00  0.00    +0.060 A 
ATOM     23  C   UNL     1      -0.610  -2.258   2.534  0.00  0.00    +0.022 A 
ATOM     24 BR   UNL     1      -0.709  -3.166   5.231  0.00  0.00    -0.047 Br
BRANCH  18  26
ATOM     25  C   UNL     1      -1.127   0.016   0.209  0.00  0.00    +0.009 C 
ATOM     26  C   UNL     1      -0.811  -1.480   0.164  0.00  0.00    +0.032 C 
ENDBRANCH  18  26
ENDBRANCH  17  21
ENDBRANCH  16  17
ENDBRANCH   1  16
TORSDOF 4
