REMARK  Name = ZINC01113819
REMARK  7 active torsions:
REMARK  status: ('A' for Active; 'I' for Inactive)
REMARK    1  A    between atoms: C_1  and  O_2
REMARK    2  A    between atoms: O_2  and  C_3
REMARK    3  A    between atoms: C_6  and  C_9
REMARK    4  A    between atoms: C_16  and  N_32
REMARK    5  A    between atoms: C_17  and  C_30
REMARK    6  A    between atoms: C_18  and  C_20
REMARK    7  A    between atoms: C_25  and  C_26
REMARK                            x       y       z     vdW  Elec       q    Type
REMARK                         _______ _______ _______ _____ _____    ______ ____
ROOT
ATOM      1  C   UNL     1       3.203  -2.644   3.954  0.00  0.00    +0.100 A 
ATOM      2  C   UNL     1       2.555  -3.626   4.708  0.00  0.00    +0.054 A 
ATOM      3  C   UNL     1       3.374  -3.974   5.743  0.00  0.00    +0.223 A 
ATOM      4  N   UNL     1       4.500  -3.237   5.640  0.00  0.00    -0.246 N 
ATOM      5  H   UNL     1       5.261  -3.273   6.240  0.00  0.00    +0.192 HD
ATOM      6  N   UNL     1       4.377  -2.413   4.511  0.00  0.00    -0.171 NA
ATOM      7  O   UNL     1       3.032  -4.907   6.666  0.00  0.00    -0.423 OA
ATOM      8  C   UNL     1       1.743  -5.300   6.709  0.00  0.00    +0.200 C 
ATOM      9  C   UNL     1       0.841  -5.028   5.739  0.00  0.00    +0.098 C 
ATOM     10  C   UNL     1       1.199  -4.250   4.498  0.00  0.00    +0.102 C 
ENDROOT
BRANCH   1  14
ATOM     11  C   UNL     1       1.674  -0.750   0.465  0.00  0.00    +0.120 A 
ATOM     12  C   UNL     1       2.201   0.017   1.495  0.00  0.00    +0.046 A 
ATOM     13  C   UNL     1       2.697  -0.594   2.627  0.00  0.00    +0.013 A 
ATOM     14  C   UNL     1       2.670  -1.983   2.737  0.00  0.00    +0.003 A 
ATOM     15  C   UNL     1       2.140  -2.750   1.701  0.00  0.00    +0.013 A 
ATOM     16  C   UNL     1       1.640  -2.133   0.573  0.00  0.00    +0.046 A 
BRANCH  11  18
ATOM     17  C   UNL     1       1.252   1.282  -0.695  0.00  0.00    +0.277 C 
ATOM     18  O   UNL     1       1.186  -0.144  -0.649  0.00  0.00    -0.495 OA
ENDBRANCH  11  18
ENDBRANCH   1  14
BRANCH  10  19
ATOM     19  C   UNL     1       1.246  -5.178   3.312  0.00  0.00    -0.023 A 
ATOM     20  C   UNL     1       2.234  -6.142   3.226  0.00  0.00    +0.005 A 
ATOM     21  C   UNL     1       2.276  -6.993   2.139  0.00  0.00    +0.000 A 
ATOM     22  C   UNL     1       1.331  -6.882   1.136  0.00  0.00    +0.001 A 
ATOM     23  C   UNL     1       0.343  -5.919   1.222  0.00  0.00    +0.012 A 
ATOM     24  C   UNL     1       0.298  -5.070   2.312  0.00  0.00    +0.059 A 
BRANCH  24  25
ATOM     25  C   UNL     1      -0.783  -4.024   2.408  0.00  0.00    +0.418 C 
ATOM     26  F   UNL     1      -1.545  -4.032   1.235  0.00  0.00    -0.166 F 
ATOM     27  F   UNL     1      -1.608  -4.304   3.502  0.00  0.00    -0.166 F 
ATOM     28  F   UNL     1      -0.198  -2.764   2.575  0.00  0.00    -0.166 F 
ENDBRANCH  24  25
ENDBRANCH  10  19
BRANCH   8  29
ATOM     29  N   UNL     1       1.322  -6.019   7.800  0.00  0.00    -0.328 N 
ATOM     30  H   UNL     1       1.946  -6.229   8.512  0.00  0.00    +0.145 HD
ATOM     31  H   UNL     1       0.400  -6.315   7.859  0.00  0.00    +0.145 HD
ENDBRANCH   8  29
BRANCH   9  32
ATOM     32  C   UNL     1      -0.503  -5.495   5.896  0.00  0.00    +0.101 C 
ATOM     33  N   UNL     1      -1.570  -5.867   6.021  0.00  0.00    -0.191 NA
ENDBRANCH   9  32
TORSDOF 6
