REMARK  Name = ZINC54426075
REMARK  2 active torsions:
REMARK  status: ('A' for Active; 'I' for Inactive)
REMARK    1  A    between atoms: C_4  and  C_7
REMARK    2  A    between atoms: C_9  and  C_12
REMARK                            x       y       z     vdW  Elec       q    Type
REMARK                         _______ _______ _______ _____ _____    ______ ____
ROOT
ATOM      1  C   UNL     1       5.240  -4.178  -0.083  0.00  0.00    +0.216 C 
ATOM      2  N   UNL     1       6.392  -4.449  -0.961  0.00  0.00    -0.292 N 
ATOM      3  C   UNL     1       7.666  -4.273  -0.489  0.00  0.00    +0.183 C 
ATOM      4  N   UNL     1       7.954  -4.441   0.790  0.00  0.00    -0.183 NA
ATOM      5  C   UNL     1       6.947  -4.733   1.645  0.00  0.00    +0.236 A 
ATOM      6  N   UNL     1       5.617  -4.628   1.262  0.00  0.00    -0.285 N 
ATOM      7  C   UNL     1       4.851  -5.000   2.326  0.00  0.00    +0.072 A 
ATOM      8  C   UNL     1       3.478  -5.107   2.513  0.00  0.00    +0.028 A 
ATOM      9  C   UNL     1       3.040  -5.528   3.759  0.00  0.00    +0.002 A 
ATOM     10  C   UNL     1       3.921  -5.831   4.782  0.00  0.00    +0.002 A 
ATOM     11  C   UNL     1       5.291  -5.733   4.623  0.00  0.00    +0.030 A 
ATOM     12  C   UNL     1       5.758  -5.311   3.372  0.00  0.00    +0.091 A 
ATOM     13  N   UNL     1       7.010  -5.119   2.897  0.00  0.00    -0.210 NA
ATOM     14  N   UNL     1       8.660  -3.917  -1.359  0.00  0.00    -0.331 N 
ATOM     15  H   UNL     1       6.249  -4.751  -1.872  0.00  0.00    +0.151 HD
ATOM     16  H   UNL     1       8.460  -3.791  -2.300  0.00  0.00    +0.145 HD
ATOM     17  H   UNL     1       9.566  -3.790  -1.035  0.00  0.00    +0.145 HD
ENDROOT
BRANCH   1  20
ATOM     18  C   UNL     1       3.699  -0.689  -0.038  0.00  0.00    -0.010 A 
ATOM     19  C   UNL     1       3.739  -2.080  -0.051  0.00  0.00    +0.023 A 
ATOM     20  C   UNL     1       4.939  -2.701  -0.067  0.00  0.00    +0.031 A 
ATOM     21  S   UNL     1       6.077  -1.326  -0.064  0.00  0.00    -0.097 S 
ATOM     22  C   UNL     1       4.880  -0.002  -0.047  0.00  0.00    +0.054 A 
BRANCH  18  26
ATOM     23  C   UNL     1      -0.017   1.379   0.010  0.00  0.00    +0.000 A 
ATOM     24  C   UNL     1       1.169   2.092   0.002  0.00  0.00    +0.001 A 
ATOM     25  C   UNL     1       2.377   1.426  -0.013  0.00  0.00    +0.008 A 
ATOM     26  C   UNL     1       2.402   0.033  -0.021  0.00  0.00    -0.017 A 
ATOM     27  C   UNL     1       1.205  -0.680  -0.013  0.00  0.00    +0.008 A 
ATOM     28  C   UNL     1       0.002  -0.004   0.002  0.00  0.00    +0.001 A 
ENDBRANCH  18  26
ENDBRANCH   1  20
TORSDOF 2
