REMARK  Name = ZINC36214189
REMARK  14 active torsions:
REMARK  status: ('A' for Active; 'I' for Inactive)
REMARK    1  A    between atoms: C_1  and  C_2
REMARK    2  A    between atoms: C_7  and  C_8
REMARK    3  A    between atoms: N_10  and  C_11
REMARK    4  A    between atoms: C_11  and  C_13
REMARK    5  A    between atoms: C_11  and  C_26
REMARK    6  A    between atoms: N_21  and  C_22
REMARK    7  A    between atoms: C_22  and  C_23
REMARK    8  A    between atoms: C_22  and  C_24
REMARK    9  A    between atoms: C_22  and  C_25
REMARK   10  A    between atoms: N_28  and  C_29
REMARK   11  A    between atoms: C_29  and  C_31
REMARK   12  A    between atoms: C_29  and  C_32
REMARK   13  A    between atoms: C_32  and  C_33
REMARK   14  A    between atoms: C_32  and  C_34
REMARK                            x       y       z     vdW  Elec       q    Type
REMARK                         _______ _______ _______ _____ _____    ______ ____
ROOT
ATOM      1  C   UNL     1       0.869  -0.536   5.044  0.00  0.00    +0.162 C 
ENDROOT
BRANCH   1   2
ATOM      2  C   UNL     1       0.960  -1.646   6.093  0.00  0.00    +0.021 C 
ATOM      3  C   UNL     1      -0.409  -2.309   6.255  0.00  0.00    +0.025 C 
ATOM      4  C   UNL     1      -0.322  -3.397   7.330  0.00  0.00    +0.109 C 
ATOM      5  N   UNL     1       0.760  -4.325   6.977  0.00  0.00    -0.286 N 
ATOM      6  C   UNL     1       2.099  -3.782   6.711  0.00  0.00    +0.109 C 
ATOM      7  C   UNL     1       1.984  -2.690   5.642  0.00  0.00    +0.025 C 
ATOM      8  C   UNL     1       0.529  -5.651   6.898  0.00  0.00    +0.303 C 
ATOM      9  O   UNL     1      -0.602  -6.079   7.025  0.00  0.00    -0.253 OA
ATOM     10  N   UNL     1       1.551  -6.502   6.680  0.00  0.00    -0.294 N 
ATOM     11  H   UNL     1       2.462  -6.168   6.652  0.00  0.00    +0.151 HD
BRANCH  10  12
ATOM     12  C   UNL     1       1.287  -7.929   6.483  0.00  0.00    +0.028 C 
ATOM     13  C   UNL     1       0.382  -8.117   5.263  0.00  0.00    +0.031 C 
ATOM     14  C   UNL     1       2.608  -8.666   6.256  0.00  0.00    +0.031 C 
ATOM     15  C   UNL     1       0.594  -8.495   7.724  0.00  0.00    +0.031 C 
ENDBRANCH  10  12
ENDBRANCH   1   2
BRANCH   1  18
ATOM     16  C   UNL     1      -0.127  -0.355   2.828  0.00  0.00    +0.245 C 
ATOM     17  O   UNL     1      -0.376   0.810   3.067  0.00  0.00    -0.270 OA
ATOM     18  N   UNL     1       0.494  -1.115   3.752  0.00  0.00    -0.300 N 
ATOM     19  H   UNL     1       0.692  -2.045   3.561  0.00  0.00    +0.150 HD
BRANCH  16  26
ATOM     20  C   UNL     1      -1.705   1.200   0.967  0.00  0.00    +0.044 C 
ATOM     21  C   UNL     1      -1.266  -0.199   0.618  0.00  0.00    -0.038 A 
ATOM     22  C   UNL     1      -1.611  -0.748  -0.600  0.00  0.00    +0.004 A 
ATOM     23  C   UNL     1      -1.208  -2.032  -0.922  0.00  0.00    +0.000 A 
ATOM     24  C   UNL     1      -0.458  -2.773  -0.027  0.00  0.00    +0.001 A 
ATOM     25  C   UNL     1      -0.107  -2.236   1.194  0.00  0.00    +0.013 A 
ATOM     26  C   UNL     1      -0.505  -0.939   1.523  0.00  0.00    +0.040 A 
ENDBRANCH  16  26
ENDBRANCH   1  18
BRANCH   1  27
ATOM     27  C   UNL     1       2.205   0.149   4.920  0.00  0.00    +0.234 C 
ATOM     28  O   UNL     1       2.954  -0.144   4.012  0.00  0.00    -0.274 OA
ATOM     29  N   UNL     1       2.569   1.087   5.817  0.00  0.00    -0.311 N 
ATOM     30  H   UNL     1       2.003   1.270   6.583  0.00  0.00    +0.149 HD
BRANCH  29  31
ATOM     31  C   UNL     1       3.818   1.830   5.634  0.00  0.00    +0.072 C 
ATOM     32  C   UNL     1       4.980   1.028   6.223  0.00  0.00    +0.028 C 
BRANCH  31  33
ATOM     33  C   UNL     1       3.717   3.180   6.348  0.00  0.00    +0.003 C 
ATOM     34  C   UNL     1       5.021   3.956   6.157  0.00  0.00    +0.009 C 
ATOM     35  C   UNL     1       2.555   3.982   5.760  0.00  0.00    +0.009 C 
ENDBRANCH  31  33
ENDBRANCH  29  31
ENDBRANCH   1  27
TORSDOF 7
