REMARK  Name = ZINC00754201
REMARK  8 active torsions:
REMARK  status: ('A' for Active; 'I' for Inactive)
REMARK    1  A    between atoms: C_1  and  C_2
REMARK    2  A    between atoms: C_2  and  O_3
REMARK    3  A    between atoms: O_3  and  C_4
REMARK    4  A    between atoms: C_4  and  C_6
REMARK    5  A    between atoms: C_10  and  N_11
REMARK    6  A    between atoms: C_12  and  C_14
REMARK    7  A    between atoms: C_14  and  N_52
REMARK    8  A    between atoms: C_15  and  N_52
REMARK                            x       y       z     vdW  Elec       q    Type
REMARK                         _______ _______ _______ _____ _____    ______ ____
ROOT
ATOM      1  C   UNL     1       2.197   4.456   0.011  0.00  0.00    +0.091 A 
ATOM      2  C   UNL     1       1.902   5.879   0.015  0.00  0.00    -0.021 A 
ATOM      3  C   UNL     1       0.589   6.195   0.030  0.00  0.00    -0.004 A 
ATOM      4  S   UNL     1      -0.251   4.636   0.030  0.00  0.00    -0.077 S 
ATOM      5  C   UNL     1       1.121   3.578   0.011  0.00  0.00    +0.086 A 
ATOM      6  C   UNL     1      -0.010   7.567   0.045  0.00  0.00    +0.043 C 
ATOM      7  C   UNL     1       1.090   8.571   0.418  0.00  0.00    +0.005 C 
ATOM      8  C   UNL     1       2.331   8.283  -0.433  0.00  0.00    +0.005 C 
ATOM      9  C   UNL     1       2.970   6.966   0.010  0.00  0.00    +0.037 C 
ENDROOT
BRANCH   5  10
ATOM     10  N   UNL     1       1.139   2.192   0.003  0.00  0.00    -0.281 N 
ATOM     11  C   UNL     1      -0.018   1.503   0.010  0.00  0.00    +0.201 C 
ATOM     12  O   UNL     1      -1.077   2.095   0.018  0.00  0.00    -0.278 OA
ATOM     13  H   UNL     1       1.986   1.719  -0.008  0.00  0.00    +0.155 HD
BRANCH  11  14
ATOM     14  C   UNL     1       0.002  -0.004   0.002  0.00  0.00    +0.016 C 
BRANCH  14  15
ATOM     15  N   UNL     1      -1.385  -0.506   0.013  0.00  0.00    +0.387 N 
ATOM     16  H   UNL     1      -1.877  -0.160  -0.819  0.00  0.00    -0.085 HD
ATOM     17  H   UNL     1      -1.861  -0.169   0.857  0.00  0.00    -0.085 HD
BRANCH  15  18
ATOM     18  C   UNL     1      -1.395  -1.981   0.005  0.00  0.00    -0.071 C 
ATOM     19  C   UNL     1      -1.290  -2.485  -1.436  0.00  0.00    -0.016 C 
ATOM     20  C   UNL     1      -1.310  -4.015  -1.444  0.00  0.00    -0.002 C 
ATOM     21  C   UNL     1      -2.618  -4.511  -0.825  0.00  0.00    -0.000 C 
ATOM     22  C   UNL     1      -2.724  -4.007   0.616  0.00  0.00    -0.002 C 
ATOM     23  C   UNL     1      -2.703  -2.478   0.624  0.00  0.00    -0.016 C 
ENDBRANCH  15  18
ENDBRANCH  14  15
ENDBRANCH  11  14
ENDBRANCH   5  10
BRANCH   1  24
ATOM     24  C   UNL     1       3.577   3.966   0.003  0.00  0.00    +0.342 C 
ATOM     25  O   UNL     1       4.146   3.768  -1.054  0.00  0.00    -0.245 OA
BRANCH  24  26
ATOM     26  O   UNL     1       4.217   3.734   1.167  0.00  0.00    -0.461 OA
BRANCH  26  28
ATOM     27  C   UNL     1       6.140   3.046   2.493  0.00  0.00    +0.048 C 
ATOM     28  C   UNL     1       5.583   3.249   1.083  0.00  0.00    +0.229 C 
ENDBRANCH  26  28
ENDBRANCH  24  26
ENDBRANCH   1  24
TORSDOF 7
