REMARK  Name = ZINC67143047
REMARK  6 active torsions:
REMARK  status: ('A' for Active; 'I' for Inactive)
REMARK    1  A    between atoms: C_1  and  C_2
REMARK    2  A    between atoms: C_12  and  C_14
REMARK    3  A    between atoms: C_14  and  C_15
REMARK    4  A    between atoms: C_15  and  C_16
REMARK    5  A    between atoms: C_16  and  C_17
REMARK    6  A    between atoms: C_17  and  C_18
REMARK                            x       y       z     vdW  Elec       q    Type
REMARK                         _______ _______ _______ _____ _____    ______ ____
ROOT
ATOM      1  C   UNL     1      -0.655  -4.077  -2.406  0.00  0.00    +0.096 C 
ENDROOT
BRANCH   1  13
ATOM      2  C   UNL     1       1.161  -7.069   4.715  0.00  0.00    +0.044 C 
ATOM      3  C   UNL     1       0.863  -6.295   3.456  0.00  0.00    -0.050 A 
ATOM      4  C   UNL     1       0.319  -6.942   2.361  0.00  0.00    +0.005 A 
ATOM      5  C   UNL     1       0.048  -6.234   1.208  0.00  0.00    +0.024 A 
ATOM      6  C   UNL     1       0.320  -4.872   1.148  0.00  0.00    +0.039 A 
ATOM      7  C   UNL     1       0.861  -4.223   2.246  0.00  0.00    -0.026 A 
ATOM      8  C   UNL     1       1.128  -4.941   3.401  0.00  0.00    +0.008 A 
ATOM      9  C   UNL     1       1.159  -2.747   2.221  0.00  0.00    +0.038 C 
ATOM     10  C   UNL     1       1.280  -2.250   0.781  0.00  0.00    +0.024 C 
ATOM     11  C   UNL     1       0.043  -2.703  -0.006  0.00  0.00    +0.114 C 
ATOM     12  N   UNL     1       0.041  -4.172  -0.034  0.00  0.00    -0.271 N 
ATOM     13  C   UNL     1      -0.223  -4.835  -1.177  0.00  0.00    +0.220 C 
ATOM     14  O   UNL     1      -0.113  -6.042  -1.217  0.00  0.00    -0.275 OA
ENDBRANCH   1  13
BRANCH   1  15
ATOM     15  C   UNL     1      -1.019  -5.066  -3.514  0.00  0.00    +0.009 C 
BRANCH  15  16
ATOM     16  C   UNL     1      -1.458  -4.297  -4.762  0.00  0.00    +0.002 C 
BRANCH  16  17
ATOM     17  C   UNL     1      -1.822  -5.286  -5.870  0.00  0.00    +0.016 C 
BRANCH  17  18
ATOM     18  C   UNL     1      -2.260  -4.516  -7.117  0.00  0.00    +0.069 C 
ATOM     19  C   UNL     1      -2.660  -5.457  -8.225  0.00  0.00    +0.108 C 
ATOM     20  C   UNL     1      -2.443  -4.736  -9.592  0.00  0.00    +0.105 C 
ATOM     21  C   UNL     1      -0.960  -4.374  -9.627  0.00  0.00    +0.093 C 
ATOM     22  S   UNL     1      -0.826  -3.647  -7.906  0.00  0.00    -0.154 S 
ATOM     23  N   UNL     1      -2.997  -5.738 -10.475  0.00  0.00    -0.294 N 
ATOM     24  C   UNL     1      -4.004  -6.331  -9.766  0.00  0.00    +0.300 C 
ATOM     25  O   UNL     1      -4.851  -7.045 -10.268  0.00  0.00    -0.253 OA
ATOM     26  N   UNL     1      -3.960  -6.021  -8.441  0.00  0.00    -0.294 N 
ATOM     27  H   UNL     1      -2.714  -5.944 -11.379  0.00  0.00    +0.151 HD
ATOM     28  H   UNL     1      -4.660  -6.161  -7.785  0.00  0.00    +0.151 HD
ENDBRANCH  17  18
ENDBRANCH  16  17
ENDBRANCH  15  16
ENDBRANCH   1  15
TORSDOF 5
