REMARK  Name = ZINC20764969
REMARK  4 active torsions:
REMARK  status: ('A' for Active; 'I' for Inactive)
REMARK    1  A    between atoms: C_3  and  C_8
REMARK    2  A    between atoms: C_11  and  C_25
REMARK    3  A    between atoms: C_14  and  C_16
REMARK    4  A    between atoms: C_30  and  O_31
REMARK                            x       y       z     vdW  Elec       q    Type
REMARK                         _______ _______ _______ _____ _____    ______ ____
ROOT
ATOM      1  C   UNL     1       1.224   3.548  -0.001  0.00  0.00    +0.081 C 
ATOM      2  N   UNL     1      -0.033   4.177   0.422  0.00  0.00    +0.401 N 
ATOM      3  C   UNL     1      -1.160   3.639  -0.359  0.00  0.00    -0.028 C 
ATOM      4  C   UNL     1      -1.349   2.168   0.020  0.00  0.00    +0.044 C 
ATOM      5  C   UNL     1      -0.018   1.470   0.010  0.00  0.00    +0.040 C 
ATOM      6  N   UNL     1       1.100   2.096   0.003  0.00  0.00    -0.299 NA
ATOM      7  H   UNL     1      -0.204   3.972   1.490  0.00  0.00    -0.081 HD
ATOM      8  H   UNL     1       0.029   5.264   0.263  0.00  0.00    -0.081 HD
ENDROOT
BRANCH   5   9
ATOM      9  C   UNL     1       0.002  -0.004   0.002  0.00  0.00    -0.001 A 
ATOM     10  C   UNL     1      -1.197  -0.721   0.010  0.00  0.00    +0.013 A 
ATOM     11  C   UNL     1      -1.176  -2.099   0.002  0.00  0.00    +0.050 A 
ATOM     12  C   UNL     1       0.034  -2.779  -0.013  0.00  0.00    +0.166 A 
ATOM     13  C   UNL     1       1.235  -2.070  -0.021  0.00  0.00    +0.167 A 
ATOM     14  C   UNL     1       1.220  -0.688  -0.019  0.00  0.00    +0.059 A 
ATOM     15  O   UNL     1       2.268  -2.962  -0.035  0.00  0.00    -0.453 OA
ATOM     16  C   UNL     1       1.696  -4.218   0.377  0.00  0.00    +0.466 C 
ATOM     17  O   UNL     1       0.317  -4.114  -0.023  0.00  0.00    -0.453 OA
ENDBRANCH   5   9
BRANCH   1  20
ATOM     18  C   UNL     1       2.609   3.620  -3.513  0.00  0.00    +0.002 A 
ATOM     19  C   UNL     1       2.295   3.194  -2.236  0.00  0.00    +0.004 A 
ATOM     20  C   UNL     1       1.566   4.013  -1.393  0.00  0.00    -0.039 A 
ATOM     21  C   UNL     1       1.147   5.256  -1.829  0.00  0.00    +0.023 A 
ATOM     22  C   UNL     1       1.466   5.685  -3.105  0.00  0.00    +0.041 A 
ATOM     23  C   UNL     1       2.195   4.864  -3.948  0.00  0.00    +0.020 A 
ATOM     24 CL   UNL     1       0.946   7.248  -3.651  0.00  0.00    -0.084 Cl
ENDBRANCH   1  20
BRANCH   3  25
ATOM     25  C   UNL     1      -2.413   4.414  -0.043  0.00  0.00    -0.018 A 
ATOM     26  C   UNL     1      -2.497   5.147   1.125  0.00  0.00    +0.025 A 
ATOM     27  C   UNL     1      -3.645   5.863   1.412  0.00  0.00    +0.041 A 
ATOM     28  C   UNL     1      -4.716   5.838   0.536  0.00  0.00    +0.023 A 
ATOM     29  C   UNL     1      -4.638   5.101  -0.630  0.00  0.00    +0.047 A 
ATOM     30  C   UNL     1      -3.485   4.387  -0.922  0.00  0.00    +0.119 A 
ATOM     31 CL   UNL     1      -3.745   6.790   2.877  0.00  0.00    -0.084 Cl
BRANCH  30  32
ATOM     32  O   UNL     1      -3.407   3.663  -2.070  0.00  0.00    -0.507 OA
ATOM     33  H   UNL     1      -4.258   3.642  -2.766  0.00  0.00    +0.292 HD
ENDBRANCH  30  32
ENDBRANCH   3  25
TORSDOF 4
