REMARK  Name = ZINC09720513
REMARK  9 active torsions:
REMARK  status: ('A' for Active; 'I' for Inactive)
REMARK    1  A    between atoms: C_6  and  N_11
REMARK    2  A    between atoms: N_11  and  C_12
REMARK    3  A    between atoms: C_12  and  C_13
REMARK    4  A    between atoms: N_15  and  N_16
REMARK    5  A    between atoms: C_17  and  C_18
REMARK    6  A    between atoms: C_20  and  N_25
REMARK    7  A    between atoms: C_23  and  O_24
REMARK    8  A    between atoms: N_26  and  C_27
REMARK    9  A    between atoms: C_30  and  N_33
REMARK                            x       y       z     vdW  Elec       q    Type
REMARK                         _______ _______ _______ _____ _____    ______ ____
ROOT
ATOM      1  N   UNL     1       7.964  -6.369  -0.105  0.00  0.00    -0.188 NA
ATOM      2  C   UNL     1       8.224  -7.641  -0.114  0.00  0.00    +0.142 C 
ENDROOT
BRANCH   2   3
ATOM      3  C   UNL     1       9.623  -8.106  -0.129  0.00  0.00    +0.038 A 
ATOM      4  C   UNL     1       9.905  -9.470  -0.144  0.00  0.00    +0.042 A 
ATOM      5  C   UNL     1      11.232  -9.902  -0.159  0.00  0.00    +0.087 A 
ATOM      6  C   UNL     1      12.272  -8.965  -0.159  0.00  0.00    +0.033 A 
ATOM      7  C   UNL     1      11.991  -7.617  -0.143  0.00  0.00    +0.048 A 
ATOM      8  C   UNL     1      10.674  -7.177  -0.134  0.00  0.00    +0.126 A 
BRANCH   8   9
ATOM      9  O   UNL     1      10.404  -5.847  -0.125  0.00  0.00    -0.506 OA
ATOM     10  H   UNL     1      10.334  -5.466   0.761  0.00  0.00    +0.292 HD
ENDBRANCH   8   9
BRANCH   5  11
ATOM     11  N   UNL     1      11.515 -11.238  -0.174  0.00  0.00    -0.149 NA
ATOM     12  N   UNL     1      12.742 -11.637  -0.188  0.00  0.00    -0.149 NA
BRANCH  12  13
ATOM     13  C   UNL     1      13.026 -12.974  -0.202  0.00  0.00    +0.086 A 
ATOM     14  C   UNL     1      11.990 -13.912  -0.208  0.00  0.00    +0.032 A 
ATOM     15  C   UNL     1      12.284 -15.259  -0.224  0.00  0.00    +0.035 A 
ATOM     16  C   UNL     1      13.601 -15.683  -0.233  0.00  0.00    +0.126 A 
ATOM     17  C   UNL     1      14.633 -14.760  -0.227  0.00  0.00    +0.035 A 
ATOM     18  C   UNL     1      14.354 -13.409  -0.217  0.00  0.00    +0.032 A 
BRANCH  16  19
ATOM     19  N   UNL     1      13.909 -17.131  -0.248  0.00  0.00    +0.056 N 
ATOM     20  O   UNL     1      13.010 -17.940  -0.253  0.00  0.00    -0.126 OA
ATOM     21  O   UNL     1      15.059 -17.505  -0.256  0.00  0.00    -0.126 OA
ENDBRANCH  16  19
ENDBRANCH  12  13
ENDBRANCH   5  11
ENDBRANCH   2   3
BRANCH   1  24
ATOM     22  C   UNL     1       6.364  -4.607  -0.081  0.00  0.00    +0.249 C 
ATOM     23  O   UNL     1       7.271  -3.801  -0.085  0.00  0.00    -0.272 OA
ATOM     24  N   UNL     1       6.634  -5.927  -0.090  0.00  0.00    -0.206 N 
ATOM     25  H   UNL     1       5.909  -6.571  -0.087  0.00  0.00    +0.177 HD
BRANCH  22  26
ATOM     26  C   UNL     1       4.934  -4.131  -0.065  0.00  0.00    +0.199 C 
BRANCH  26  27
ATOM     27  N   UNL     1       4.907  -2.666  -0.058  0.00  0.00    -0.335 N 
ATOM     28  H   UNL     1       5.738  -2.166  -0.063  0.00  0.00    +0.147 HD
BRANCH  27  34
ATOM     29  C   UNL     1      -0.016   1.357   0.009  0.00  0.00    +0.001 A 
ATOM     30  C   UNL     1       1.168   2.091   0.002  0.00  0.00    +0.001 A 
ATOM     31  C   UNL     1       2.378   1.468  -0.013  0.00  0.00    +0.008 A 
ATOM     32  C   UNL     1       2.437   0.063  -0.021  0.00  0.00    -0.016 A 
ATOM     33  C   UNL     1       3.668  -0.613  -0.036  0.00  0.00    +0.031 A 
ATOM     34  C   UNL     1       3.685  -1.990  -0.043  0.00  0.00    +0.028 A 
ATOM     35  C   UNL     1       2.490  -2.720  -0.036  0.00  0.00    +0.023 A 
ATOM     36  C   UNL     1       1.287  -2.088  -0.022  0.00  0.00    +0.010 A 
ATOM     37  C   UNL     1       1.232  -0.683  -0.013  0.00  0.00    -0.018 A 
ATOM     38  C   UNL     1       0.002  -0.004   0.002  0.00  0.00    +0.008 A 
ENDBRANCH  27  34
ENDBRANCH  26  27
ENDBRANCH  22  26
ENDBRANCH   1  24
TORSDOF 9
