REMARK  Name = ZINC36061477
REMARK  15 active torsions:
REMARK  status: ('A' for Active; 'I' for Inactive)
REMARK    1  A    between atoms: C_1  and  C_2
REMARK    2  A    between atoms: C_3  and  C_35
REMARK    3  A    between atoms: C_4  and  C_19
REMARK    4  A    between atoms: C_7  and  C_12
REMARK    5  A    between atoms: C_13  and  N_15
REMARK    6  A    between atoms: N_15  and  C_16
REMARK    7  A    between atoms: C_16  and  C_17
REMARK    8  A    between atoms: C_16  and  C_18
REMARK    9  A    between atoms: C_22  and  O_27
REMARK   10  A    between atoms: C_23  and  O_25
REMARK   11  A    between atoms: O_25  and  C_26
REMARK   12  A    between atoms: O_27  and  C_28
REMARK   13  A    between atoms: C_28  and  C_29
REMARK   14  A    between atoms: C_35  and  O_37
REMARK   15  A    between atoms: O_37  and  C_38
REMARK                            x       y       z     vdW  Elec       q    Type
REMARK                         _______ _______ _______ _____ _____    ______ ____
ROOT
ATOM      1  C   UNL     1      -0.346   1.765  -0.209  0.00  0.00    +0.066 C 
ATOM      2  C   UNL     1      -0.252   0.274  -0.008  0.00  0.00    +0.053 C 
ATOM      3  C   UNL     1      -1.400  -0.494  -0.029  0.00  0.00    +0.082 C 
ATOM      4  C   UNL     1      -1.254  -1.985   0.178  0.00  0.00    +0.150 C 
ATOM      5  N   UNL     1       0.122  -2.508   0.389  0.00  0.00    -0.267 N 
ATOM      6  C   UNL     1       0.489  -3.823   0.595  0.00  0.00    +0.048 C 
ATOM      7  C   UNL     1       1.803  -4.087   0.766  0.00  0.00    +0.072 C 
ATOM      8  S   UNL     1       2.526  -2.464   0.634  0.00  0.00    -0.060 S 
ATOM      9  C   UNL     1       1.124  -1.579   0.374  0.00  0.00    +0.166 C 
ATOM     10  N   UNL     1       0.929  -0.290   0.183  0.00  0.00    -0.230 NA
ENDROOT
BRANCH   4  11
ATOM     11  C   UNL     1      -1.834  -2.680  -1.028  0.00  0.00    -0.018 A 
ATOM     12  C   UNL     1      -1.147  -2.667  -2.228  0.00  0.00    +0.009 A 
ATOM     13  C   UNL     1      -1.674  -3.302  -3.336  0.00  0.00    +0.050 A 
ATOM     14  C   UNL     1      -2.893  -3.954  -3.247  0.00  0.00    +0.162 A 
ATOM     15  C   UNL     1      -3.585  -3.967  -2.039  0.00  0.00    +0.162 A 
ATOM     16  C   UNL     1      -3.048  -3.333  -0.930  0.00  0.00    +0.055 A 
BRANCH  15  17
ATOM     17  O   UNL     1      -4.782  -4.606  -1.946  0.00  0.00    -0.491 OA
ATOM     18  C   UNL     1      -5.484  -4.490  -0.708  0.00  0.00    +0.277 C 
ENDBRANCH  15  17
BRANCH  14  19
ATOM     19  O   UNL     1      -3.413  -4.579  -4.337  0.00  0.00    -0.484 OA
BRANCH  19  20
ATOM     20  C   UNL     1      -2.649  -4.524  -5.543  0.00  0.00    +0.264 C 
BRANCH  20  21
ATOM     21  C   UNL     1      -3.377  -5.266  -6.634  0.00  0.00    -0.010 A 
ATOM     22  C   UNL     1      -3.153  -6.617  -6.820  0.00  0.00    +0.007 A 
ATOM     23  C   UNL     1      -3.821  -7.297  -7.821  0.00  0.00    +0.000 A 
ATOM     24  C   UNL     1      -4.714  -6.626  -8.635  0.00  0.00    +0.000 A 
ATOM     25  C   UNL     1      -4.939  -5.275  -8.448  0.00  0.00    +0.000 A 
ATOM     26  C   UNL     1      -4.274  -4.596  -7.445  0.00  0.00    +0.007 A 
ENDBRANCH  20  21
ENDBRANCH  19  20
ENDBRANCH  14  19
ENDBRANCH   4  11
BRANCH   6  27
ATOM     27  C   UNL     1      -0.514  -4.897   0.628  0.00  0.00    +0.091 C 
ATOM     28  C   UNL     1      -0.152  -6.146   0.978  0.00  0.00    +0.239 C 
ATOM     29  O   UNL     1       1.105  -6.387   1.424  0.00  0.00    -0.271 OA
BRANCH  28  30
ATOM     30  N   UNL     1      -1.063  -7.184   0.881  0.00  0.00    -0.309 N 
ATOM     31  H   UNL     1      -1.983  -7.000   0.634  0.00  0.00    +0.149 HD
BRANCH  30  32
ATOM     32  C   UNL     1      -0.639  -8.559   1.152  0.00  0.00    +0.067 C 
ATOM     33  C   UNL     1      -0.779  -8.851   2.648  0.00  0.00    +0.027 C 
ATOM     34  C   UNL     1      -1.516  -9.530   0.359  0.00  0.00    +0.027 C 
ENDBRANCH  30  32
ENDBRANCH  28  30
ENDBRANCH   6  27
BRANCH   3  35
ATOM     35  C   UNL     1      -2.657   0.088  -0.235  0.00  0.00    +0.339 C 
ATOM     36  O   UNL     1      -2.751   1.292  -0.399  0.00  0.00    -0.245 OA
BRANCH  35  37
ATOM     37  O   UNL     1      -3.765  -0.685  -0.251  0.00  0.00    -0.465 OA
ATOM     38  C   UNL     1      -5.014  -0.024  -0.466  0.00  0.00    +0.280 C 
ENDBRANCH  35  37
ENDBRANCH   3  35
TORSDOF 10
