REMARK  Name = ZINC21725914
REMARK  3 active torsions:
REMARK  status: ('A' for Active; 'I' for Inactive)
REMARK    1  A    between atoms: C_4  and  O_27
REMARK    2  A    between atoms: C_5  and  C_7
REMARK    3  A    between atoms: O_27  and  C_28
REMARK                            x       y       z     vdW  Elec       q    Type
REMARK                         _______ _______ _______ _____ _____    ______ ____
ROOT
ATOM      1  C   UNL     1       6.265   0.302  -0.277  0.00  0.00    +0.066 C 
ATOM      2  C   UNL     1       7.093  -0.823  -0.906  0.00  0.00    +0.109 C 
ATOM      3  C   UNL     1       8.441  -0.333  -1.347  0.00  0.00    +0.219 C 
ATOM      4  O   UNL     1       8.925  -0.785  -2.364  0.00  0.00    -0.275 OA
ATOM      5  N   UNL     1       9.135   0.593  -0.651  0.00  0.00    -0.270 N 
ATOM      6  C   UNL     1       8.508   1.201   0.435  0.00  0.00    +0.134 A 
ATOM      7  C   UNL     1       7.159   1.090   0.646  0.00  0.00    +0.020 A 
ATOM      8  C   UNL     1       6.844   1.803   1.793  0.00  0.00    +0.141 A 
ATOM      9  N   UNL     1       7.949   2.327   2.269  0.00  0.00    -0.171 NA
ATOM     10  N   UNL     1       9.014   1.961   1.431  0.00  0.00    -0.194 N 
ATOM     11  C   UNL     1      10.348   2.317   1.595  0.00  0.00    +0.196 A 
ATOM     12  N   UNL     1      10.895   3.049   2.537  0.00  0.00    -0.221 NA
ATOM     13  C   UNL     1      12.217   3.316   2.574  0.00  0.00    +0.081 A 
ATOM     14  C   UNL     1      12.927   4.084   3.526  0.00  0.00    +0.029 A 
ATOM     15  C   UNL     1      14.282   4.258   3.415  0.00  0.00    +0.002 A 
ATOM     16  C   UNL     1      15.003   3.693   2.373  0.00  0.00    +0.001 A 
ATOM     17  C   UNL     1      14.341   2.936   1.424  0.00  0.00    +0.017 A 
ATOM     18  C   UNL     1      12.984   2.756   1.527  0.00  0.00    +0.041 A 
ATOM     19  S   UNL     1      11.756   1.887   0.581  0.00  0.00    -0.048 S 
ATOM     20  H   UNL     1      10.164   0.848  -0.947  0.00  0.00    +0.156 HD
ENDROOT
BRANCH   1  25
ATOM     21  C   UNL     1       6.113   2.686  -3.201  0.00  0.00    +0.001 A 
ATOM     22  C   UNL     1       4.750   2.866  -3.344  0.00  0.00    +0.004 A 
ATOM     23  C   UNL     1       3.873   2.215  -2.498  0.00  0.00    +0.046 A 
ATOM     24  C   UNL     1       4.362   1.379  -1.504  0.00  0.00    +0.125 A 
ATOM     25  C   UNL     1       5.731   1.204  -1.359  0.00  0.00    +0.002 A 
ATOM     26  C   UNL     1       6.603   1.854  -2.211  0.00  0.00    +0.008 A 
BRANCH  24  27
ATOM     27  O   UNL     1       3.502   0.737  -0.671  0.00  0.00    -0.489 OA
BRANCH  27  28
ATOM     28  C   UNL     1       2.107   0.872  -0.949  0.00  0.00    +0.173 C 
ATOM     29  C   UNL     1       1.527   2.112  -0.224  0.00  0.00    +0.044 C 
ATOM     30  C   UNL     1       0.020   1.772  -0.117  0.00  0.00    +0.004 C 
ATOM     31  C   UNL     1      -0.006   0.257   0.174  0.00  0.00    +0.004 C 
ATOM     32  C   UNL     1       1.321  -0.315  -0.355  0.00  0.00    +0.044 C 
ENDBRANCH  27  28
ENDBRANCH  24  27
ENDBRANCH   1  25
TORSDOF 3
