REMARK  Name = ZINC39452528
REMARK  5 active torsions:
REMARK  status: ('A' for Active; 'I' for Inactive)
REMARK    1  A    between atoms: C_1  and  C_2
REMARK    2  A    between atoms: C_2  and  O_3
REMARK    3  A    between atoms: O_3  and  C_4
REMARK    4  A    between atoms: C_23  and  C_26
REMARK    5  A    between atoms: C_26  and  C_27
REMARK                            x       y       z     vdW  Elec       q    Type
REMARK                         _______ _______ _______ _____ _____    ______ ____
ROOT
ATOM      1  C   UNL     1       0.802  -1.822   1.306  0.00  0.00    +0.130 A 
ATOM      2  C   UNL     1       0.266  -2.672   0.362  0.00  0.00    +0.046 A 
ATOM      3  C   UNL     1       0.365  -4.052   0.493  0.00  0.00    +0.006 A 
ATOM      4  C   UNL     1       0.994  -4.630   1.554  0.00  0.00    +0.028 A 
ATOM      5  C   UNL     1       1.565  -3.824   2.554  0.00  0.00    +0.075 A 
ATOM      6  C   UNL     1       1.469  -2.368   2.421  0.00  0.00    +0.043 A 
ATOM      7  C   UNL     1       2.039  -1.557   3.411  0.00  0.00    +0.029 A 
ATOM      8  C   UNL     1       2.678  -2.183   4.473  0.00  0.00    +0.070 A 
ATOM      9  C   UNL     1       2.741  -3.601   4.534  0.00  0.00    +0.100 A 
ATOM     10  N   UNL     1       2.189  -4.357   3.604  0.00  0.00    -0.244 NA
ATOM     11  C   UNL     1       3.436  -4.211   5.681  0.00  0.00    +0.084 A 
ATOM     12  C   UNL     1       3.994  -3.407   6.655  0.00  0.00    +0.144 A 
ATOM     13  N   UNL     1       3.917  -2.021   6.569  0.00  0.00    -0.136 N 
ATOM     14  C   UNL     1       3.300  -1.399   5.550  0.00  0.00    +0.289 A 
ATOM     15  O   UNL     1       3.257  -0.182   5.518  0.00  0.00    -0.265 OA
ATOM     16  F   UNL     1       4.460  -1.303   7.508  0.00  0.00    -0.090 F 
ATOM     17  C   UNL     1       4.652  -3.995   7.760  0.00  0.00    +0.186 C 
ATOM     18  O   UNL     1       5.185  -3.286   8.589  0.00  0.00    -0.290 OA
ATOM     19  C   UNL     1       4.699  -5.493   7.918  0.00  0.00    +0.103 C 
ATOM     20  C   UNL     1       4.665  -6.150   6.534  0.00  0.00    +0.082 C 
ATOM     21  N   UNL     1       3.533  -5.586   5.783  0.00  0.00    -0.337 N 
ATOM     22  H   UNL     1       2.871  -6.163   5.371  0.00  0.00    +0.146 HD
ENDROOT
BRANCH   1  23
ATOM     23  O   UNL     1       0.693  -0.477   1.160  0.00  0.00    -0.492 OA
BRANCH  23  25
ATOM     24  C   UNL     1      -0.019   1.526   0.010  0.00  0.00    +0.048 C 
ATOM     25  C   UNL     1       0.002  -0.004   0.002  0.00  0.00    +0.226 C 
ENDBRANCH  23  25
ENDBRANCH   1  23
BRANCH  20  26
ATOM     26  C   UNL     1       5.972  -5.861   5.792  0.00  0.00    +0.057 C 
BRANCH  26  27
ATOM     27  C   UNL     1       5.984  -6.610   4.485  0.00  0.00    -0.046 A 
ATOM     28  C   UNL     1       6.499  -7.892   4.427  0.00  0.00    +0.004 A 
ATOM     29  C   UNL     1       6.510  -8.579   3.228  0.00  0.00    +0.000 A 
ATOM     30  C   UNL     1       6.006  -7.984   2.086  0.00  0.00    +0.000 A 
ATOM     31  C   UNL     1       5.491  -6.703   2.144  0.00  0.00    +0.000 A 
ATOM     32  C   UNL     1       5.476  -6.018   3.344  0.00  0.00    +0.004 A 
ENDBRANCH  26  27
ENDBRANCH  20  26
TORSDOF 4
