REMARK  Name = ZINC02277871
REMARK  14 active torsions:
REMARK  status: ('A' for Active; 'I' for Inactive)
REMARK    1  A    between atoms: C_1  and  C_2
REMARK    2  A    between atoms: C_2  and  C_3
REMARK    3  A    between atoms: C_3  and  C_8
REMARK    4  A    between atoms: C_8  and  C_9
REMARK    5  A    between atoms: C_8  and  C_18
REMARK    6  A    between atoms: C_8  and  O_24
REMARK    7  A    between atoms: C_10  and  C_11
REMARK    8  A    between atoms: C_11  and  N_58
REMARK    9  A    between atoms: C_12  and  C_13
REMARK   10  A    between atoms: C_12  and  N_58
REMARK   11  A    between atoms: C_13  and  O_14
REMARK   12  A    between atoms: C_15  and  C_16
REMARK   13  A    between atoms: C_15  and  C_17
REMARK   14  A    between atoms: C_15  and  N_58
REMARK                            x       y       z     vdW  Elec       q    Type
REMARK                         _______ _______ _______ _____ _____    ______ ____
ROOT
ATOM      1  C   UNL     1      -0.747   1.554   2.007  0.00  0.00    +0.157 C 
ENDROOT
BRANCH   1   2
ATOM      2  C   UNL     1      -0.800   0.048   2.029  0.00  0.00    -0.004 A 
ATOM      3  C   UNL     1      -0.501  -0.671   0.887  0.00  0.00    +0.007 A 
ATOM      4  C   UNL     1      -0.545  -2.053   0.910  0.00  0.00    +0.000 A 
ATOM      5  C   UNL     1      -0.897  -2.714   2.071  0.00  0.00    +0.000 A 
ATOM      6  C   UNL     1      -1.201  -1.995   3.212  0.00  0.00    +0.000 A 
ATOM      7  C   UNL     1      -1.153  -0.613   3.191  0.00  0.00    +0.007 A 
ENDBRANCH   1   2
BRANCH   1   8
ATOM      8  C   UNL     1      -1.776   2.086   1.007  0.00  0.00    +0.015 C 
ATOM      9  C   UNL     1      -1.776   3.624   1.019  0.00  0.00    +0.011 C 
ATOM     10  C   UNL     1      -1.394   4.075  -0.407  0.00  0.00    +0.001 C 
ATOM     11  C   UNL     1      -1.778   2.872  -1.303  0.00  0.00    +0.001 C 
ATOM     12  C   UNL     1      -1.393   1.655  -0.424  0.00  0.00    +0.011 C 
BRANCH   8  14
ATOM     13  C   UNL     1      -4.162   1.981   0.274  0.00  0.00    +0.004 C 
ATOM     14  C   UNL     1      -3.168   1.558   1.357  0.00  0.00    +0.008 C 
ENDBRANCH   8  14
ENDBRANCH   1   8
BRANCH   1  15
ATOM     15  C   UNL     1       0.600   1.992   1.605  0.00  0.00    -0.064 C 
ATOM     16  C   UNL     1       1.674   2.341   1.284  0.00  0.00    -0.118 C 
BRANCH  16  17
ATOM     17  C   UNL     1       3.021   2.779   0.881  0.00  0.00    +0.013 C 
BRANCH  17  18
ATOM     18  N   UNL     1       3.048   4.256   0.847  0.00  0.00    +0.390 N 
ATOM     19  H   UNL     1       2.187   4.595   0.402  0.00  0.00    -0.080 HD
BRANCH  18  20
ATOM     20  C   UNL     1       4.210   4.721   0.061  0.00  0.00    -0.074 C 
ATOM     21  C   UNL     1       5.485   4.006   0.514  0.00  0.00    -0.013 C 
ATOM     22  C   UNL     1       3.956   4.421  -1.418  0.00  0.00    -0.013 C 
ENDBRANCH  18  20
BRANCH  18  23
ATOM     23  C   UNL     1       3.122   4.792   2.222  0.00  0.00    -0.049 C 
BRANCH  23  24
ATOM     24  C   UNL     1       2.924   6.308   2.172  0.00  0.00    +0.137 C 
BRANCH  24  25
ATOM     25  O   UNL     1       1.609   6.602   1.695  0.00  0.00    -0.397 OA
ATOM     26  H   UNL     1       1.413   7.547   1.637  0.00  0.00    +0.209 HD
ENDBRANCH  24  25
ENDBRANCH  23  24
ENDBRANCH  18  23
ENDBRANCH  17  18
ENDBRANCH  16  17
ENDBRANCH   1  15
BRANCH   1  27
ATOM     27  O   UNL     1      -1.043   2.061   3.309  0.00  0.00    -0.372 OA
ATOM     28  H   UNL     1      -0.430   1.764   3.996  0.00  0.00    +0.212 HD
ENDBRANCH   1  27
TORSDOF 11
