REMARK  Name = ZINC63437183
REMARK  15 active torsions:
REMARK  status: ('A' for Active; 'I' for Inactive)
REMARK    1  A    between atoms: C_1  and  C_2
REMARK    2  A    between atoms: C_2  and  O_3
REMARK    3  A    between atoms: O_3  and  C_4
REMARK    4  A    between atoms: C_4  and  C_5
REMARK    5  A    between atoms: C_5  and  C_6
REMARK    6  A    between atoms: C_6  and  N_7
REMARK    7  A    between atoms: C_8  and  C_10
REMARK    8  A    between atoms: C_10  and  C_12
REMARK    9  A    between atoms: C_10  and  N_20
REMARK   10  A    between atoms: C_15  and  O_18
REMARK   11  A    between atoms: O_18  and  C_19
REMARK   12  A    between atoms: N_20  and  C_21
REMARK   13  A    between atoms: C_21  and  C_22
REMARK   14  A    between atoms: C_27  and  C_29
REMARK   15  A    between atoms: C_29  and  C_30
REMARK                            x       y       z     vdW  Elec       q    Type
REMARK                         _______ _______ _______ _____ _____    ______ ____
ROOT
ATOM      1  N   UNL     1       3.287  -7.281   5.050  0.00  0.00    -0.281 N 
ATOM      2  C   UNL     1       4.105  -8.104   5.735  0.00  0.00    +0.221 C 
ATOM      3  O   UNL     1       4.662  -7.710   6.738  0.00  0.00    -0.275 OA
ENDROOT
BRANCH   1   4
ATOM      4  C   UNL     1       3.069  -5.910   5.518  0.00  0.00    +0.192 C 
BRANCH   4   5
ATOM      5  C   UNL     1       4.383  -5.172   5.542  0.00  0.00    -0.018 A 
ATOM      6  C   UNL     1       5.414  -5.573   4.713  0.00  0.00    +0.009 A 
ATOM      7  C   UNL     1       6.620  -4.899   4.734  0.00  0.00    +0.046 A 
ATOM      8  C   UNL     1       6.795  -3.819   5.587  0.00  0.00    +0.120 A 
ATOM      9  C   UNL     1       5.758  -3.418   6.417  0.00  0.00    +0.046 A 
ATOM     10  C   UNL     1       4.553  -4.093   6.389  0.00  0.00    +0.009 A 
BRANCH   8  11
ATOM     11  O   UNL     1       7.980  -3.154   5.609  0.00  0.00    -0.495 OA
ATOM     12  C   UNL     1       8.089  -2.052   6.512  0.00  0.00    +0.277 C 
ENDBRANCH   8  11
ENDBRANCH   4   5
BRANCH   4  14
ATOM     13  N   UNL     1       1.008  -4.614   5.077  0.00  0.00    -0.313 N 
ATOM     14  C   UNL     1       2.115  -5.207   4.587  0.00  0.00    +0.238 C 
ATOM     15  O   UNL     1       2.343  -5.174   3.396  0.00  0.00    -0.273 OA
ATOM     16  H   UNL     1       0.826  -4.640   6.029  0.00  0.00    +0.149 HD
BRANCH  13  17
ATOM     17  C   UNL     1       0.081  -3.931   4.172  0.00  0.00    +0.106 C 
BRANCH  17  18
ATOM     18  C   UNL     1      -1.082  -3.349   4.977  0.00  0.00    +0.047 C 
BRANCH  18  19
ATOM     19  C   UNL     1      -2.051  -2.635   4.032  0.00  0.00    +0.161 C 
BRANCH  19  20
ATOM     20  O   UNL     1      -3.137  -2.092   4.784  0.00  0.00    -0.380 OA
BRANCH  20  22
ATOM     21  C   UNL     1      -5.216  -0.864   4.896  0.00  0.00    +0.034 C 
ATOM     22  C   UNL     1      -4.105  -1.401   3.991  0.00  0.00    +0.156 C 
ENDBRANCH  20  22
ENDBRANCH  19  20
ENDBRANCH  18  19
ENDBRANCH  17  18
ENDBRANCH  13  17
ENDBRANCH   4  14
ENDBRANCH   1   4
BRANCH   1  23
ATOM     23  C   UNL     1       2.615  -7.757   3.839  0.00  0.00    +0.151 C 
BRANCH  23  24
ATOM     24  C   UNL     1       3.554  -7.642   2.666  0.00  0.00    +0.007 A 
ATOM     25  C   UNL     1       4.391  -8.574   2.148  0.00  0.00    +0.013 A 
ATOM     26  C   UNL     1       5.169  -8.242   1.054  0.00  0.00    +0.008 A 
ATOM     27  C   UNL     1       5.072  -6.995   0.532  0.00  0.00    +0.045 A 
ATOM     28  S   UNL     1       3.847  -6.245   1.593  0.00  0.00    -0.100 S 
ENDBRANCH  23  24
ENDBRANCH   1  23
BRANCH   2  29
ATOM     29  C   UNL     1       4.330  -9.515   5.253  0.00  0.00    +0.129 C 
BRANCH  29  30
ATOM     30  C   UNL     1       5.279 -10.219   6.188  0.00  0.00    -0.033 C 
ATOM     31  C   UNL     1       4.952 -11.017   7.230  0.00  0.00    -0.001 A 
ATOM     32  C   UNL     1       3.663 -11.450   7.785  0.00  0.00    +0.010 A 
ATOM     33  C   UNL     1       3.655 -12.270   8.860  0.00  0.00    +0.001 A 
ATOM     34  C   UNL     1       4.842 -12.715   9.457  0.00  0.00    +0.002 A 
ATOM     35  C   UNL     1       6.063 -12.361   9.005  0.00  0.00    +0.026 A 
ATOM     36  C   UNL     1       6.191 -11.502   7.878  0.00  0.00    +0.043 A 
ATOM     37  N   UNL     1       7.244 -11.022   7.261  0.00  0.00    -0.380 N 
ATOM     38  C   UNL     1       6.790 -10.183   6.146  0.00  0.00    +0.145 C 
ATOM     39  H   UNL     1       8.168 -11.197   7.499  0.00  0.00    +0.160 HD
ENDBRANCH  29  30
ENDBRANCH   2  29
TORSDOF 13
