REMARK  Name = ZINC62703256
REMARK  6 active torsions:
REMARK  status: ('A' for Active; 'I' for Inactive)
REMARK    1  A    between atoms: C_3  and  O_10
REMARK    2  A    between atoms: C_6  and  C_7
REMARK    3  A    between atoms: C_7  and  O_8
REMARK    4  A    between atoms: O_10  and  C_11
REMARK    5  A    between atoms: C_11  and  C_12
REMARK    6  A    between atoms: C_15  and  N_19
REMARK                            x       y       z     vdW  Elec       q    Type
REMARK                         _______ _______ _______ _____ _____    ______ ____
ROOT
ATOM      1  O   UNL     1       3.548   2.105  -0.021  0.00  0.00    -0.486 OA
ENDROOT
BRANCH   1   4
ATOM      2  C   UNL     1      -0.017   1.378   0.010  0.00  0.00    +0.009 A 
ATOM      3  C   UNL     1       1.170   2.087   0.002  0.00  0.00    +0.047 A 
ATOM      4  C   UNL     1       2.380   1.410  -0.013  0.00  0.00    +0.135 A 
ATOM      5  C   UNL     1       2.397   0.022  -0.021  0.00  0.00    +0.060 A 
ATOM      6  C   UNL     1       1.208  -0.682  -0.013  0.00  0.00    +0.024 A 
ATOM      7  C   UNL     1       0.002  -0.004   0.002  0.00  0.00    -0.021 A 
ATOM      8 BR   UNL     1       4.045  -0.905  -0.042  0.00  0.00    -0.047 Br
BRANCH   7   9
ATOM      9  C   UNL     1      -1.293  -0.774   0.011  0.00  0.00    +0.191 C 
BRANCH   9  10
ATOM     10  O   UNL     1      -1.716  -1.010  -1.334  0.00  0.00    -0.390 OA
ATOM     11  H   UNL     1      -2.546  -1.502  -1.405  0.00  0.00    +0.210 HD
ENDBRANCH   9  10
ENDBRANCH   7   9
ENDBRANCH   1   4
BRANCH   1  12
ATOM     12  C   UNL     1       3.455   3.531  -0.013  0.00  0.00    +0.266 C 
BRANCH  12  13
ATOM     13  C   UNL     1       4.840   4.125  -0.023  0.00  0.00    +0.008 A 
ATOM     14  C   UNL     1       5.947   3.298  -0.044  0.00  0.00    +0.010 A 
ATOM     15  C   UNL     1       7.217   3.842  -0.053  0.00  0.00    +0.033 A 
ATOM     16  C   UNL     1       7.381   5.215  -0.042  0.00  0.00    +0.128 A 
ATOM     17  C   UNL     1       6.276   6.044  -0.021  0.00  0.00    +0.053 A 
ATOM     18  C   UNL     1       5.003   5.499  -0.018  0.00  0.00    +0.050 A 
ATOM     19 CL   UNL     1       3.614   6.539   0.000  0.00  0.00    -0.083 Cl
BRANCH  16  20
ATOM     20  N   UNL     1       8.742   5.798  -0.050  0.00  0.00    +0.056 N 
ATOM     21  O   UNL     1       9.710   5.073  -0.068  0.00  0.00    -0.126 OA
ATOM     22  O   UNL     1       8.886   6.998  -0.040  0.00  0.00    -0.126 OA
ENDBRANCH  16  20
ENDBRANCH  12  13
ENDBRANCH   1  12
TORSDOF 6
