REMARK  Name = ZINC39877717
REMARK  7 active torsions:
REMARK  status: ('A' for Active; 'I' for Inactive)
REMARK    1  A    between atoms: C_1  and  C_2
REMARK    2  A    between atoms: C_7  and  C_8
REMARK    3  A    between atoms: C_14  and  C_26
REMARK    4  A    between atoms: N_16  and  C_19
REMARK    5  A    between atoms: C_29  and  O_34
REMARK    6  A    between atoms: C_30  and  O_32
REMARK    7  A    between atoms: O_32  and  C_33
REMARK                            x       y       z     vdW  Elec       q    Type
REMARK                         _______ _______ _______ _____ _____    ______ ____
ROOT
ATOM      1  C   UNL     1      -0.018   1.503   0.010  0.00  0.00    +0.044 C 
ATOM      2  C   UNL     1       0.002  -0.004   0.002  0.00  0.00    -0.047 A 
ATOM      3  C   UNL     1       0.006  -0.685  -1.195  0.00  0.00    +0.019 A 
ATOM      4  C   UNL     1       0.024  -2.080  -1.194  0.00  0.00    +0.065 A 
ATOM      5  C   UNL     1       0.034  -2.793   0.015  0.00  0.00    +0.140 A 
ATOM      6  C   UNL     1       0.033  -2.080   1.214  0.00  0.00    +0.050 A 
ATOM      7  C   UNL     1       0.023  -0.703   1.200  0.00  0.00    -0.044 A 
ATOM      8  C   UNL     1       0.029   0.053   2.503  0.00  0.00    +0.044 C 
ATOM      9  O   UNL     1       0.038  -4.145   0.057  0.00  0.00    -0.450 OA
ATOM     10  C   UNL     1       0.274  -4.846  -1.070  0.00  0.00    +0.199 A 
ATOM     11  C   UNL     1       0.281  -4.268  -2.309  0.00  0.00    +0.072 A 
ATOM     12  C   UNL     1       0.037  -2.832  -2.474  0.00  0.00    +0.199 A 
ATOM     13  O   UNL     1      -0.140  -2.306  -3.559  0.00  0.00    -0.287 OA
ATOM     14  C   UNL     1       0.567  -5.340  -3.309  0.00  0.00    +0.150 C 
ATOM     15  N   UNL     1       0.730  -6.580  -2.533  0.00  0.00    -0.253 N 
ATOM     16  C   UNL     1       0.558  -6.282  -1.229  0.00  0.00    +0.287 C 
ATOM     17  O   UNL     1       0.628  -7.082  -0.317  0.00  0.00    -0.266 OA
ENDROOT
BRANCH  15  18
ATOM     18  C   UNL     1       1.013  -7.845  -3.055  0.00  0.00    +0.039 A 
ATOM     19  C   UNL     1       1.172  -8.012  -4.426  0.00  0.00    +0.023 A 
ATOM     20  C   UNL     1       1.452  -9.263  -4.939  0.00  0.00    +0.003 A 
ATOM     21  C   UNL     1       1.573 -10.349  -4.092  0.00  0.00    +0.015 A 
ATOM     22  C   UNL     1       1.415 -10.187  -2.727  0.00  0.00    +0.020 A 
ATOM     23  C   UNL     1       1.142  -8.936  -2.206  0.00  0.00    +0.038 A 
ATOM     24 BR   UNL     1       1.582 -11.675  -1.573  0.00  0.00    -0.050 Br
ENDBRANCH  15  18
BRANCH  14  25
ATOM     25  C   UNL     1      -0.585  -5.474  -4.271  0.00  0.00    -0.018 A 
ATOM     26  C   UNL     1      -1.728  -6.150  -3.888  0.00  0.00    +0.009 A 
ATOM     27  C   UNL     1      -2.788  -6.277  -4.766  0.00  0.00    +0.049 A 
ATOM     28  C   UNL     1      -2.706  -5.724  -6.035  0.00  0.00    +0.158 A 
ATOM     29  C   UNL     1      -1.555  -5.043  -6.420  0.00  0.00    +0.162 A 
ATOM     30  C   UNL     1      -0.498  -4.916  -5.533  0.00  0.00    +0.055 A 
BRANCH  29  31
ATOM     31  O   UNL     1      -1.470  -4.499  -7.664  0.00  0.00    -0.491 OA
ATOM     32  C   UNL     1      -0.259  -3.815  -7.991  0.00  0.00    +0.277 C 
ENDBRANCH  29  31
BRANCH  28  33
ATOM     33  O   UNL     1      -3.747  -5.848  -6.901  0.00  0.00    -0.503 OA
ATOM     34  H   UNL     1      -4.392  -5.129  -6.845  0.00  0.00    +0.292 HD
ENDBRANCH  28  33
ENDBRANCH  14  25
TORSDOF 4
