REMARK  Name = ZINC21232337
REMARK  10 active torsions:
REMARK  status: ('A' for Active; 'I' for Inactive)
REMARK    1  A    between atoms: C_1  and  C_2
REMARK    2  A    between atoms: C_2  and  O_3
REMARK    3  A    between atoms: O_3  and  C_4
REMARK    4  A    between atoms: C_7  and  C_12
REMARK    5  A    between atoms: C_9  and  O_10
REMARK    6  A    between atoms: O_10  and  C_11
REMARK    7  A    between atoms: C_17  and  C_23
REMARK    8  A    between atoms: C_25  and  O_31
REMARK    9  A    between atoms: C_26  and  O_30
REMARK   10  A    between atoms: O_31  and  C_32
REMARK                            x       y       z     vdW  Elec       q    Type
REMARK                         _______ _______ _______ _____ _____    ______ ____
ROOT
ATOM      1  C   UNL     1      -0.019   1.528   0.010  0.00  0.00    +0.032 C 
ATOM      2  C   UNL     1       1.425   2.036  -0.001  0.00  0.00    +0.059 C 
ATOM      3  C   UNL     1       2.162   1.492   1.197  0.00  0.00    +0.018 C 
ATOM      4  C   UNL     1       1.839   0.291   1.722  0.00  0.00    +0.020 C 
ATOM      5  C   UNL     1       2.600  -0.240   2.913  0.00  0.00    +0.063 C 
ATOM      6  C   UNL     1       4.063   0.197   2.818  0.00  0.00    +0.109 C 
ATOM      7  C   UNL     1       4.118   1.673   2.516  0.00  0.00    +0.218 C 
ATOM      8  O   UNL     1       5.016   2.350   2.970  0.00  0.00    -0.275 OA
ATOM      9  N   UNL     1       3.174   2.239   1.745  0.00  0.00    -0.289 N 
ATOM     10  C   UNL     1       0.803  -0.488   1.181  0.00  0.00    +0.162 C 
ATOM     11  O   UNL     1       0.548  -1.570   1.673  0.00  0.00    -0.292 OA
ATOM     12  C   UNL     1       0.002  -0.004   0.002  0.00  0.00    +0.088 C 
ATOM     13  H   UNL     1       3.222   3.322   1.555  0.00  0.00    +0.155 HD
ENDROOT
BRANCH   5  14
ATOM     14  C   UNL     1       1.995   0.306   4.181  0.00  0.00    -0.034 A 
ATOM     15  C   UNL     1       1.478  -0.560   5.127  0.00  0.00    +0.053 A 
ATOM     16  C   UNL     1       0.925  -0.060   6.295  0.00  0.00    +0.163 A 
ATOM     17  C   UNL     1       0.882   1.314   6.509  0.00  0.00    +0.177 A 
ATOM     18  C   UNL     1       1.397   2.177   5.554  0.00  0.00    +0.086 A 
ATOM     19  C   UNL     1       1.952   1.671   4.392  0.00  0.00    +0.028 A 
ATOM     20 CL   UNL     1       1.346   3.893   5.816  0.00  0.00    -0.080 Cl
BRANCH  17  21
ATOM     21  O   UNL     1       0.337   1.810   7.652  0.00  0.00    -0.502 OA
ATOM     22  H   UNL     1       0.303   2.896   7.820  0.00  0.00    +0.292 HD
ENDBRANCH  17  21
BRANCH  16  23
ATOM     23  O   UNL     1       0.422  -0.911   7.229  0.00  0.00    -0.491 OA
ATOM     24  C   UNL     1       0.500  -2.309   6.943  0.00  0.00    +0.277 C 
ENDBRANCH  16  23
ENDBRANCH   5  14
BRANCH   1  28
ATOM     25  C   UNL     1      -2.066   2.951  -3.464  0.00  0.00    +0.162 A 
ATOM     26  C   UNL     1      -0.930   2.170  -3.598  0.00  0.00    +0.050 A 
ATOM     27  C   UNL     1      -0.270   1.711  -2.472  0.00  0.00    +0.008 A 
ATOM     28  C   UNL     1      -0.741   2.031  -1.213  0.00  0.00    -0.040 A 
ATOM     29  C   UNL     1      -1.877   2.806  -1.073  0.00  0.00    +0.053 A 
ATOM     30  C   UNL     1      -2.540   3.273  -2.196  0.00  0.00    +0.162 A 
BRANCH  30  31
ATOM     31  O   UNL     1      -3.655   4.040  -2.060  0.00  0.00    -0.491 OA
ATOM     32  C   UNL     1      -4.084   4.330  -0.728  0.00  0.00    +0.277 C 
ENDBRANCH  30  31
BRANCH  25  33
ATOM     33  O   UNL     1      -2.717   3.402  -4.570  0.00  0.00    -0.489 OA
BRANCH  33  35
ATOM     34  C   UNL     1      -3.033   3.627  -6.955  0.00  0.00    +0.048 C 
ATOM     35  C   UNL     1      -2.173   3.032  -5.838  0.00  0.00    +0.226 C 
ENDBRANCH  33  35
ENDBRANCH  25  33
ENDBRANCH   1  28
TORSDOF 7
