REMARK  Name = ZINC38648777
REMARK  5 active torsions:
REMARK  status: ('A' for Active; 'I' for Inactive)
REMARK    1  A    between atoms: C_3  and  O_32
REMARK    2  A    between atoms: C_6  and  C_7
REMARK    3  A    between atoms: N_22  and  C_23
REMARK    4  A    between atoms: O_32  and  C_33
REMARK    5  A    between atoms: C_33  and  C_34
REMARK                            x       y       z     vdW  Elec       q    Type
REMARK                         _______ _______ _______ _____ _____    ______ ____
ROOT
ATOM      1  C   UNL     1      -1.293  -0.774   0.011  0.00  0.00    +0.145 C 
ATOM      2  C   UNL     1      -1.595  -1.290  -1.358  0.00  0.00    +0.072 A 
ATOM      3  C   UNL     1      -1.831  -0.589  -2.624  0.00  0.00    +0.199 A 
ATOM      4  O   UNL     1      -1.637   0.605  -2.773  0.00  0.00    -0.287 OA
ATOM      5  C   UNL     1      -2.329  -1.473  -3.709  0.00  0.00    +0.066 A 
ATOM      6  C   UNL     1      -2.788  -0.928  -4.908  0.00  0.00    +0.035 A 
ATOM      7  C   UNL     1      -3.251  -1.763  -5.902  0.00  0.00    +0.042 A 
ATOM      8  C   UNL     1      -3.259  -3.139  -5.707  0.00  0.00    +0.023 A 
ATOM      9  C   UNL     1      -2.807  -3.687  -4.528  0.00  0.00    +0.048 A 
ATOM     10  C   UNL     1      -2.331  -2.863  -3.508  0.00  0.00    +0.140 A 
ATOM     11  O   UNL     1      -1.883  -3.428  -2.364  0.00  0.00    -0.450 OA
ATOM     12  C   UNL     1      -1.637  -2.653  -1.289  0.00  0.00    +0.199 A 
ATOM     13  C   UNL     1      -1.375  -3.054   0.104  0.00  0.00    +0.283 C 
ATOM     14  O   UNL     1      -1.345  -4.201   0.504  0.00  0.00    -0.267 OA
ATOM     15  N   UNL     1      -1.172  -1.962   0.872  0.00  0.00    -0.279 N 
ATOM     16 CL   UNL     1      -3.824  -1.096  -7.398  0.00  0.00    -0.084 Cl
ENDROOT
BRANCH  15  17
ATOM     17  C   UNL     1      -0.882  -1.958   2.308  0.00  0.00    +0.100 C 
ATOM     18  C   UNL     1       0.399  -2.764   2.580  0.00  0.00    +0.047 C 
ATOM     19  C   UNL     1       0.538  -3.036   4.098  0.00  0.00    +0.168 C 
ATOM     20  S   UNL     1      -1.211  -3.047   4.668  0.00  0.00    -0.029 S 
ATOM     21  O   UNL     1      -1.565  -4.370   5.046  0.00  0.00    -0.174 OA
ATOM     22  O   UNL     1      -1.404  -1.981   5.587  0.00  0.00    -0.174 OA
ATOM     23  C   UNL     1      -2.051  -2.632   3.081  0.00  0.00    +0.188 C 
ENDBRANCH  15  17
BRANCH   1  29
ATOM     24  C   UNL     1      -0.017   1.378   0.010  0.00  0.00    +0.009 A 
ATOM     25  C   UNL     1       1.169   2.087   0.002  0.00  0.00    +0.046 A 
ATOM     26  C   UNL     1       2.380   1.409  -0.013  0.00  0.00    +0.121 A 
ATOM     27  C   UNL     1       2.396   0.022  -0.021  0.00  0.00    +0.046 A 
ATOM     28  C   UNL     1       1.207  -0.681  -0.013  0.00  0.00    +0.009 A 
ATOM     29  C   UNL     1       0.002  -0.004   0.002  0.00  0.00    -0.022 A 
BRANCH  26  30
ATOM     30  O   UNL     1       3.548   2.104  -0.021  0.00  0.00    -0.483 OA
BRANCH  30  31
ATOM     31  C   UNL     1       4.756   1.341  -0.036  0.00  0.00    +0.324 C 
BRANCH  31  32
ATOM     32  C   UNL     1       5.940   2.274  -0.043  0.00  0.00    +0.248 C 
ATOM     33  O   UNL     1       5.766   3.474  -0.036  0.00  0.00    -0.272 OA
ATOM     34  N   UNL     1       7.192   1.774  -0.058  0.00  0.00    -0.327 N 
ATOM     35  H   UNL     1       7.331   0.814  -0.064  0.00  0.00    +0.145 HD
ATOM     36  H   UNL     1       7.953   2.375  -0.062  0.00  0.00    +0.145 HD
ENDBRANCH  31  32
ENDBRANCH  30  31
ENDBRANCH  26  30
ENDBRANCH   1  29
TORSDOF 5
