REMARK  Name = ZINC32641106
REMARK  7 active torsions:
REMARK  status: ('A' for Active; 'I' for Inactive)
REMARK    1  A    between atoms: C_1  and  C_2
REMARK    2  A    between atoms: C_5  and  N_8
REMARK    3  A    between atoms: C_19  and  S_20
REMARK    4  A    between atoms: S_20  and  C_21
REMARK    5  A    between atoms: C_21  and  C_22
REMARK    6  A    between atoms: C_25  and  C_29
REMARK    7  A    between atoms: C_26  and  C_28
REMARK                            x       y       z     vdW  Elec       q    Type
REMARK                         _______ _______ _______ _____ _____    ______ ____
ROOT
ATOM      1  N   UNL     1      -5.344  -0.726   2.458  0.00  0.00    -0.273 N 
ATOM      2  C   UNL     1      -5.986  -1.869   1.819  0.00  0.00    +0.128 C 
ATOM      3  C   UNL     1      -7.356  -2.353   2.302  0.00  0.00    +0.191 C 
ATOM      4  S   UNL     1      -7.958  -3.121   0.725  0.00  0.00    -0.027 S 
ATOM      5  O   UNL     1      -7.573  -4.489   0.698  0.00  0.00    -0.174 OA
ATOM      6  O   UNL     1      -9.322  -2.773   0.530  0.00  0.00    -0.174 OA
ATOM      7  C   UNL     1      -6.913  -2.174  -0.477  0.00  0.00    +0.194 C 
ATOM      8  C   UNL     1      -6.242  -1.182   0.436  0.00  0.00    +0.151 C 
ATOM      9  N   UNL     1      -5.001  -0.497   0.232  0.00  0.00    -0.256 NA
ATOM     10  C   UNL     1      -4.519  -0.226   1.439  0.00  0.00    +0.157 C 
ENDROOT
BRANCH   1  15
ATOM     11  C   UNL     1      -6.013   1.216   7.745  0.00  0.00    +0.044 C 
ATOM     12  C   UNL     1      -5.835   0.700   6.341  0.00  0.00    -0.050 A 
ATOM     13  C   UNL     1      -4.964   1.339   5.476  0.00  0.00    +0.005 A 
ATOM     14  C   UNL     1      -4.799   0.868   4.188  0.00  0.00    +0.024 A 
ATOM     15  C   UNL     1      -5.508  -0.247   3.762  0.00  0.00    +0.036 A 
ATOM     16  C   UNL     1      -6.386  -0.883   4.631  0.00  0.00    +0.024 A 
ATOM     17  C   UNL     1      -6.542  -0.411   5.919  0.00  0.00    +0.005 A 
ENDBRANCH   1  15
BRANCH  10  18
ATOM     18  S   UNL     1      -3.024   0.661   1.726  0.00  0.00    -0.086 S 
BRANCH  18  19
ATOM     19  C   UNL     1      -2.514   0.980   0.019  0.00  0.00    +0.112 C 
BRANCH  19  20
ATOM     20  C   UNL     1      -1.219   1.751   0.017  0.00  0.00    -0.037 A 
ATOM     21  C   UNL     1      -0.013   1.076   0.008  0.00  0.00    +0.005 A 
ATOM     22  C   UNL     1       1.175   1.783   0.000  0.00  0.00    +0.004 A 
ATOM     23  C   UNL     1       1.156   3.166   0.008  0.00  0.00    -0.048 A 
ATOM     24  C   UNL     1      -0.050   3.840   0.022  0.00  0.00    -0.047 A 
ATOM     25  C   UNL     1      -1.238   3.133   0.029  0.00  0.00    +0.008 A 
ATOM     26  C   UNL     1      -0.070   5.347   0.030  0.00  0.00    +0.044 C 
ATOM     27  C   UNL     1       2.451   3.937   0.000  0.00  0.00    +0.044 C 
ENDBRANCH  19  20
ENDBRANCH  18  19
ENDBRANCH  10  18
TORSDOF 4
