REMARK  Name = ZINC39521186
REMARK  6 active torsions:
REMARK  status: ('A' for Active; 'I' for Inactive)
REMARK    1  A    between atoms: C_1  and  S_2
REMARK    2  A    between atoms: S_2  and  C_3
REMARK    3  A    between atoms: C_13  and  C_23
REMARK    4  A    between atoms: N_15  and  C_16
REMARK    5  A    between atoms: C_21  and  O_22
REMARK    6  A    between atoms: C_28  and  O_29
REMARK                            x       y       z     vdW  Elec       q    Type
REMARK                         _______ _______ _______ _____ _____    ______ ____
ROOT
ATOM      1  C   UNL     1      -1.918  -0.744   0.287  0.00  0.00    +0.048 C 
ATOM      2  C   UNL     1      -2.626  -0.128   1.496  0.00  0.00    +0.014 C 
ATOM      3  C   UNL     1      -4.137  -0.323   1.357  0.00  0.00    +0.003 C 
ATOM      4  C   UNL     1      -4.453  -1.819   1.290  0.00  0.00    +0.026 C 
ATOM      5  C   UNL     1      -3.744  -2.436   0.084  0.00  0.00    +0.037 C 
ATOM      6  C   UNL     1      -2.234  -2.240   0.220  0.00  0.00    +0.040 C 
ATOM      7  C   UNL     1      -4.064  -3.931   0.010  0.00  0.00    +0.026 C 
ATOM      8  C   UNL     1      -5.558  -4.116  -0.267  0.00  0.00    +0.004 C 
ATOM      9  C   UNL     1      -5.912  -3.475  -1.611  0.00  0.00    +0.027 C 
ATOM     10  C   UNL     1      -5.614  -1.974  -1.552  0.00  0.00    +0.108 C 
ATOM     11  N   UNL     1      -4.215  -1.786  -1.145  0.00  0.00    -0.314 N 
ENDROOT
BRANCH  11  12
ATOM     12  C   UNL     1      -3.347  -1.002  -1.914  0.00  0.00    +0.073 A 
ATOM     13  C   UNL     1      -2.260  -1.586  -2.549  0.00  0.00    +0.027 A 
ATOM     14  C   UNL     1      -1.405  -0.810  -3.309  0.00  0.00    +0.002 A 
ATOM     15  C   UNL     1      -1.630   0.548  -3.438  0.00  0.00    +0.004 A 
ATOM     16  C   UNL     1      -2.711   1.137  -2.808  0.00  0.00    +0.047 A 
ATOM     17  C   UNL     1      -3.575   0.366  -2.049  0.00  0.00    +0.138 A 
BRANCH  17  18
ATOM     18  O   UNL     1      -4.642   0.943  -1.433  0.00  0.00    -0.505 OA
ATOM     19  H   UNL     1      -4.428   1.363  -0.589  0.00  0.00    +0.292 HD
ENDBRANCH  17  18
ENDBRANCH  11  12
BRANCH  10  20
ATOM     20  C   UNL     1      -5.835  -1.361  -2.911  0.00  0.00    +0.014 A 
ATOM     21  C   UNL     1      -4.968  -1.649  -3.948  0.00  0.00    +0.009 A 
ATOM     22  C   UNL     1      -5.170  -1.087  -5.195  0.00  0.00    +0.001 A 
ATOM     23  C   UNL     1      -6.239  -0.235  -5.408  0.00  0.00    +0.004 A 
ATOM     24  C   UNL     1      -7.108   0.055  -4.374  0.00  0.00    +0.046 A 
ATOM     25  C   UNL     1      -6.911  -0.512  -3.123  0.00  0.00    +0.122 A 
BRANCH  25  26
ATOM     26  O   UNL     1      -7.768  -0.233  -2.106  0.00  0.00    -0.506 OA
ATOM     27  H   UNL     1      -7.516   0.540  -1.581  0.00  0.00    +0.292 HD
ENDBRANCH  25  26
ENDBRANCH  10  20
BRANCH   1  29
ATOM     28  C   UNL     1       0.092   1.288   0.365  0.00  0.00    +0.084 C 
ATOM     29  S   UNL     1      -0.127  -0.511   0.452  0.00  0.00    -0.161 S 
ENDBRANCH   1  29
TORSDOF 5
