REMARK  Name = ZINC20206360
REMARK  6 active torsions:
REMARK  status: ('A' for Active; 'I' for Inactive)
REMARK    1  A    between atoms: C_1  and  C_2
REMARK    2  A    between atoms: C_4  and  C_15
REMARK    3  A    between atoms: C_5  and  C_14
REMARK    4  A    between atoms: N_6  and  C_7
REMARK    5  A    between atoms: C_26  and  S_27
REMARK    6  A    between atoms: S_27  and  C_30
REMARK                            x       y       z     vdW  Elec       q    Type
REMARK                         _______ _______ _______ _____ _____    ______ ____
ROOT
ATOM      1  C   UNL     1       0.096  -3.236  -1.055  0.00  0.00    +0.026 C 
ATOM      2  C   UNL     1      -0.514  -3.295  -2.291  0.00  0.00    +0.078 C 
ATOM      3  C   UNL     1      -0.506  -4.538  -3.114  0.00  0.00    +0.117 C 
ATOM      4  N   UNL     1      -0.518  -5.740  -2.602  0.00  0.00    -0.386 N 
ATOM      5  N   UNL     1      -0.483  -4.285  -4.500  0.00  0.00    -0.203 N 
ATOM      6  C   UNL     1      -0.950  -3.069  -4.953  0.00  0.00    +0.183 C 
ATOM      7  N   UNL     1      -1.334  -2.053  -4.214  0.00  0.00    -0.152 NA
ATOM      8  C   UNL     1      -1.220  -2.128  -2.872  0.00  0.00    +0.273 C 
ATOM      9  O   UNL     1      -1.683  -1.257  -2.153  0.00  0.00    -0.268 OA
ATOM     10  S   UNL     1      -0.878  -3.226  -6.611  0.00  0.00    +0.049 S 
ATOM     11  N   UNL     1      -0.176  -4.745  -6.710  0.00  0.00    -0.174 NA
ATOM     12  C   UNL     1      -0.054  -5.121  -5.475  0.00  0.00    +0.257 C 
ATOM     13  H   UNL     1      -0.435  -5.859  -1.643  0.00  0.00    +0.157 HD
ATOM     14  H   UNL     1      -0.611  -6.513  -3.181  0.00  0.00    +0.157 HD
ENDROOT
BRANCH   1  18
ATOM     15  C   UNL     1       0.796   1.718  -0.108  0.00  0.00    +0.064 C 
ATOM     16  C   UNL     1       0.537   0.241   0.037  0.00  0.00    +0.022 A 
ATOM     17  C   UNL     1       0.511  -0.647  -0.970  0.00  0.00    +0.031 A 
ATOM     18  C   UNL     1       0.225  -1.955  -0.364  0.00  0.00    -0.003 A 
ATOM     19  C   UNL     1       0.102  -1.724   0.996  0.00  0.00    +0.028 A 
ATOM     20  N   UNL     1       0.297  -0.409   1.216  0.00  0.00    -0.316 N 
ATOM     21  C   UNL     1      -0.192  -2.764   2.047  0.00  0.00    +0.064 C 
BRANCH  20  22
ATOM     22  C   UNL     1       0.256   0.206   2.475  0.00  0.00    +0.065 A 
ATOM     23  C   UNL     1      -0.944   0.700   2.970  0.00  0.00    +0.027 A 
ATOM     24  C   UNL     1      -0.981   1.305   4.210  0.00  0.00    +0.002 A 
ATOM     25  C   UNL     1       0.175   1.421   4.960  0.00  0.00    +0.002 A 
ATOM     26  C   UNL     1       1.372   0.931   4.471  0.00  0.00    +0.022 A 
ATOM     27  C   UNL     1       1.415   0.319   3.233  0.00  0.00    +0.065 A 
ATOM     28 CL   UNL     1       2.917  -0.302   2.622  0.00  0.00    -0.081 Cl
ENDBRANCH  20  22
ENDBRANCH   1  18
BRANCH  12  29
ATOM     29  S   UNL     1       0.656  -6.683  -5.074  0.00  0.00    +0.026 S 
ATOM     30  O   UNL     1       1.423  -7.037  -6.216  0.00  0.00    -0.167 OA
ATOM     31  O   UNL     1       1.283  -6.484  -3.814  0.00  0.00    -0.167 OA
ATOM     32  C   UNL     1      -0.758  -7.806  -4.898  0.00  0.00    +0.203 C 
ENDBRANCH  12  29
TORSDOF 3
