REMARK  Name = ZINC02256201
REMARK  14 active torsions:
REMARK  status: ('A' for Active; 'I' for Inactive)
REMARK    1  A    between atoms: C_1  and  C_2
REMARK    2  A    between atoms: N_8  and  C_9
REMARK    3  A    between atoms: C_9  and  C_10
REMARK    4  A    between atoms: C_10  and  C_11
REMARK    5  A    between atoms: C_14  and  O_19
REMARK    6  A    between atoms: C_15  and  O_17
REMARK    7  A    between atoms: O_17  and  C_18
REMARK    8  A    between atoms: O_19  and  C_20
REMARK    9  A    between atoms: C_21  and  C_29
REMARK   10  A    between atoms: C_23  and  C_27
REMARK   11  A    between atoms: C_24  and  N_26
REMARK   12  A    between atoms: C_32  and  C_35
REMARK   13  A    between atoms: C_35  and  C_36
REMARK   14  A    between atoms: C_35  and  C_37
REMARK                            x       y       z     vdW  Elec       q    Type
REMARK                         _______ _______ _______ _____ _____    ______ ____
ROOT
ATOM      1  C   UNL     1      -5.974  -5.402   4.657  0.00  0.00    +0.064 C 
ATOM      2  C   UNL     1      -5.885  -4.490   3.460  0.00  0.00    +0.022 A 
ATOM      3  C   UNL     1      -6.572  -3.328   3.456  0.00  0.00    +0.068 A 
ATOM      4  C   UNL     1      -6.491  -2.471   2.339  0.00  0.00    +0.141 A 
ATOM      5  C   UNL     1      -5.706  -2.842   1.268  0.00  0.00    +0.072 A 
ATOM      6  C   UNL     1      -5.012  -4.058   1.317  0.00  0.00    +0.259 A 
ATOM      7  O   UNL     1      -4.313  -4.399   0.375  0.00  0.00    -0.267 OA
ATOM      8  N   UNL     1      -5.113  -4.849   2.401  0.00  0.00    -0.312 N 
ATOM      9  C   UNL     1      -5.591  -1.958   0.056  0.00  0.00    +0.103 C 
ATOM     10  C   UNL     1      -6.697  -0.940   0.051  0.00  0.00    +0.098 C 
ATOM     11  C   UNL     1      -7.414  -0.677   1.169  0.00  0.00    +0.199 C 
ATOM     12  O   UNL     1      -7.176  -1.308   2.332  0.00  0.00    -0.441 OA
ENDROOT
BRANCH   9  13
ATOM     13  C   UNL     1      -4.260  -1.250   0.079  0.00  0.00    -0.034 A 
ATOM     14  C   UNL     1      -3.356  -1.445  -0.948  0.00  0.00    +0.005 A 
ATOM     15  C   UNL     1      -2.135  -0.797  -0.927  0.00  0.00    +0.004 A 
ATOM     16  C   UNL     1      -1.819   0.047   0.121  0.00  0.00    -0.045 A 
ATOM     17  C   UNL     1      -2.721   0.238   1.151  0.00  0.00    +0.004 A 
ATOM     18  C   UNL     1      -3.944  -0.407   1.127  0.00  0.00    +0.005 A 
BRANCH  16  19
ATOM     19  C   UNL     1      -0.488   0.754   0.145  0.00  0.00    +0.013 C 
ATOM     20  C   UNL     1      -0.715   2.267   0.155  0.00  0.00    +0.012 C 
ATOM     21  C   UNL     1       0.284   0.345   1.401  0.00  0.00    +0.012 C 
ENDBRANCH  16  19
ENDBRANCH   9  13
BRANCH  11  22
ATOM     22  N   UNL     1      -8.414   0.262   1.113  0.00  0.00    -0.328 N 
ATOM     23  H   UNL     1      -8.597   0.727   0.281  0.00  0.00    +0.145 HD
ATOM     24  H   UNL     1      -8.937   0.462   1.905  0.00  0.00    +0.145 HD
ENDBRANCH  11  22
BRANCH  10  25
ATOM     25  C   UNL     1      -6.997  -0.235  -1.159  0.00  0.00    +0.101 C 
ATOM     26  N   UNL     1      -7.236   0.324  -2.119  0.00  0.00    -0.191 NA
ENDBRANCH  10  25
BRANCH   8  27
ATOM     27  C   UNL     1      -4.381  -6.117   2.439  0.00  0.00    +0.130 C 
BRANCH  27  28
ATOM     28  C   UNL     1      -2.977  -5.879   2.997  0.00  0.00    +0.057 C 
BRANCH  28  29
ATOM     29  C   UNL     1      -2.224  -7.184   3.036  0.00  0.00    -0.042 A 
ATOM     30  C   UNL     1      -2.281  -7.980   4.165  0.00  0.00    +0.007 A 
ATOM     31  C   UNL     1      -1.597  -9.180   4.204  0.00  0.00    +0.049 A 
ATOM     32  C   UNL     1      -0.842  -9.583   3.114  0.00  0.00    +0.161 A 
ATOM     33  C   UNL     1      -0.779  -8.779   1.980  0.00  0.00    +0.162 A 
ATOM     34  C   UNL     1      -1.472  -7.579   1.945  0.00  0.00    +0.053 A 
BRANCH  33  35
ATOM     35  O   UNL     1      -0.040  -9.169   0.907  0.00  0.00    -0.491 OA
ATOM     36  C   UNL     1      -0.022  -8.294  -0.222  0.00  0.00    +0.277 C 
ENDBRANCH  33  35
BRANCH  32  37
ATOM     37  O   UNL     1      -0.164 -10.761   3.152  0.00  0.00    -0.491 OA
ATOM     38  C   UNL     1      -0.274 -11.534   4.348  0.00  0.00    +0.277 C 
ENDBRANCH  32  37
ENDBRANCH  28  29
ENDBRANCH  27  28
ENDBRANCH   8  27
TORSDOF 9
