REMARK  Name = ZINC23221119
REMARK  5 active torsions:
REMARK  status: ('A' for Active; 'I' for Inactive)
REMARK    1  A    between atoms: C_1  and  C_2
REMARK    2  A    between atoms: C_9  and  C_13
REMARK    3  A    between atoms: C_13  and  O_14
REMARK    4  A    between atoms: O_14  and  C_15
REMARK    5  A    between atoms: C_15  and  C_17
REMARK                            x       y       z     vdW  Elec       q    Type
REMARK                         _______ _______ _______ _____ _____    ______ ____
ROOT
ATOM      1  C   UNL     1      -4.589   0.153  -1.807  0.00  0.00    +0.047 C 
ATOM      2  C   UNL     1      -3.950   1.126  -2.765  0.00  0.00    -0.008 A 
ATOM      3  C   UNL     1      -4.633   1.561  -3.861  0.00  0.00    +0.008 A 
ATOM      4  C   UNL     1      -4.024   2.465  -4.742  0.00  0.00    +0.019 A 
ATOM      5  C   UNL     1      -2.766   2.901  -4.505  0.00  0.00    +0.096 A 
ATOM      6  N   UNL     1      -2.075   2.474  -3.413  0.00  0.00    -0.268 N 
ATOM      7  C   UNL     1      -2.642   1.592  -2.535  0.00  0.00    +0.144 A 
ATOM      8  N   UNL     1      -1.971   1.166  -1.466  0.00  0.00    -0.230 NA
ATOM      9  C   UNL     1      -0.742   1.585  -1.213  0.00  0.00    +0.086 A 
ATOM     10  C   UNL     1      -0.124   2.475  -2.069  0.00  0.00    +0.097 A 
ATOM     11  C   UNL     1      -0.821   2.924  -3.197  0.00  0.00    +0.259 A 
ATOM     12  O   UNL     1      -0.303   3.711  -3.974  0.00  0.00    -0.267 OA
ENDROOT
BRANCH   9  13
ATOM     13  C   UNL     1      -0.013   1.086   0.008  0.00  0.00    +0.288 C 
BRANCH  13  14
ATOM     14  O   UNL     1      -0.692   1.554   1.203  0.00  0.00    -0.455 OA
BRANCH  14  15
ATOM     15  C   UNL     1      -0.164   1.193   2.388  0.00  0.00    +0.340 C 
ATOM     16  O   UNL     1       0.837   0.505   2.423  0.00  0.00    -0.245 OA
BRANCH  15  17
ATOM     17  C   UNL     1      -0.802   1.633   3.646  0.00  0.00    +0.062 A 
ATOM     18  C   UNL     1      -1.949   2.428   3.609  0.00  0.00    +0.035 A 
ATOM     19  C   UNL     1      -2.545   2.830   4.788  0.00  0.00    +0.043 A 
ATOM     20  C   UNL     1      -2.000   2.457   6.005  0.00  0.00    +0.040 A 
ATOM     21  C   UNL     1      -0.859   1.674   6.048  0.00  0.00    +0.043 A 
ATOM     22  C   UNL     1      -0.257   1.260   4.876  0.00  0.00    +0.035 A 
ATOM     23 CL   UNL     1      -0.182   1.211   7.579  0.00  0.00    -0.083 Cl
ATOM     24 CL   UNL     1      -3.976   3.811   4.745  0.00  0.00    -0.083 Cl
ENDBRANCH  15  17
ENDBRANCH  14  15
ENDBRANCH  13  14
ENDBRANCH   9  13
TORSDOF 4
