REMARK  Name = ZINC19823156
REMARK  9 active torsions:
REMARK  status: ('A' for Active; 'I' for Inactive)
REMARK    1  A    between atoms: C_1  and  C_2
REMARK    2  A    between atoms: C_3  and  C_31
REMARK    3  A    between atoms: C_4  and  N_30
REMARK    4  A    between atoms: C_9  and  C_10
REMARK    5  A    between atoms: C_14  and  O_16
REMARK    6  A    between atoms: O_16  and  C_17
REMARK    7  A    between atoms: C_17  and  C_18
REMARK    8  A    between atoms: C_25  and  C_29
REMARK    9  A    between atoms: C_26  and  C_27
REMARK                            x       y       z     vdW  Elec       q    Type
REMARK                         _______ _______ _______ _____ _____    ______ ____
ROOT
ATOM      1  C   UNL     1       1.435   2.617   1.487  0.00  0.00    +0.046 C 
ATOM      2  C   UNL     1       0.952   4.039   1.361  0.00  0.00    -0.020 A 
ATOM      3  C   UNL     1       1.619   5.085   2.008  0.00  0.00    +0.095 A 
ATOM      4  C   UNL     1       1.134   6.400   1.863  0.00  0.00    +0.135 A 
ATOM      5  N   UNL     1       0.071   6.654   1.122  0.00  0.00    -0.230 NA
ATOM      6  C   UNL     1      -0.594   5.688   0.495  0.00  0.00    +0.092 A 
ATOM      7  C   UNL     1      -0.167   4.347   0.598  0.00  0.00    +0.013 A 
ATOM      8  C   UNL     1      -1.102   3.532  -0.206  0.00  0.00    -0.011 C 
ATOM      9  C   UNL     1      -1.047   2.164  -0.380  0.00  0.00    +0.017 C 
ATOM     10  C   UNL     1      -2.066   4.406  -0.760  0.00  0.00    -0.023 C 
ATOM     11  C   UNL     1      -1.792   5.697  -0.362  0.00  0.00    +0.081 C 
ATOM     12  C   UNL     1      -3.212   3.991  -1.647  0.00  0.00    +0.046 C 
ENDROOT
BRANCH   9  13
ATOM     13  C   UNL     1       0.250   1.489  -0.475  0.00  0.00    -0.021 A 
ATOM     14  C   UNL     1       1.295   2.070  -1.207  0.00  0.00    +0.008 A 
ATOM     15  C   UNL     1       2.510   1.427  -1.297  0.00  0.00    +0.004 A 
ATOM     16  C   UNL     1       2.704   0.209  -0.668  0.00  0.00    +0.046 A 
ATOM     17  C   UNL     1       1.677  -0.376   0.060  0.00  0.00    +0.122 A 
ATOM     18  C   UNL     1       0.450   0.256   0.160  0.00  0.00    +0.053 A 
BRANCH  17  19
ATOM     19  O   UNL     1       1.876  -1.572   0.675  0.00  0.00    -0.487 OA
BRANCH  19  20
ATOM     20  C   UNL     1       3.166  -2.169   0.529  0.00  0.00    +0.267 C 
BRANCH  20  21
ATOM     21  C   UNL     1       3.200  -3.479   1.273  0.00  0.00    +0.025 A 
ATOM     22  C   UNL     1       2.081  -3.915   1.957  0.00  0.00    +0.010 A 
ATOM     23  C   UNL     1       2.110  -5.119   2.635  0.00  0.00    +0.001 A 
ATOM     24  C   UNL     1       3.262  -5.884   2.639  0.00  0.00    +0.003 A 
ATOM     25  C   UNL     1       4.383  -5.447   1.961  0.00  0.00    +0.039 A 
ATOM     26  C   UNL     1       4.354  -4.244   1.277  0.00  0.00    +0.130 A 
ATOM     27  F   UNL     1       5.450  -3.816   0.614  0.00  0.00    -0.205 F 
ENDBRANCH  20  21
ENDBRANCH  19  20
ENDBRANCH  17  19
ENDBRANCH   9  13
BRANCH   4  28
ATOM     28  N   UNL     1       1.787   7.441   2.499  0.00  0.00    -0.342 N 
ATOM     29  H   UNL     1       1.416   8.471   2.392  0.00  0.00    +0.144 HD
ATOM     30  H   UNL     1       2.678   7.239   3.113  0.00  0.00    +0.144 HD
ENDBRANCH   4  28
BRANCH  11  31
ATOM     31  C   UNL     1      -2.549   6.858  -0.723  0.00  0.00    +0.102 C 
ATOM     32  N   UNL     1      -3.150   7.779  -1.008  0.00  0.00    -0.191 NA
ENDBRANCH  11  31
BRANCH   3  33
ATOM     33  C   UNL     1       2.779   4.823   2.806  0.00  0.00    +0.103 C 
ATOM     34  N   UNL     1       3.699   4.615   3.439  0.00  0.00    -0.191 NA
ENDBRANCH   3  33
TORSDOF 7
