REMARK  Name = ZINC09737326
REMARK  8 active torsions:
REMARK  status: ('A' for Active; 'I' for Inactive)
REMARK    1  A    between atoms: C_1  and  C_2
REMARK    2  A    between atoms: C_3  and  S_8
REMARK    3  A    between atoms: C_4  and  C_7
REMARK    4  A    between atoms: S_8  and  N_11
REMARK    5  A    between atoms: C_16  and  N_17
REMARK    6  A    between atoms: C_16  and  N_59
REMARK    7  A    between atoms: C_20  and  C_24
REMARK    8  A    between atoms: C_20  and  C_25
REMARK                            x       y       z     vdW  Elec       q    Type
REMARK                         _______ _______ _______ _____ _____    ______ ____
ROOT
ATOM      1  C   UNL     1      -1.199  -0.844   0.008  0.00  0.00    +0.043 C 
ENDROOT
BRANCH   1   2
ATOM      2  N   UNL     1       0.002  -0.004   0.002  0.00  0.00    -0.241 N 
ATOM      3  C   UNL     1      -0.016   1.343   0.009  0.00  0.00    +0.249 C 
ATOM      4  O   UNL     1      -0.992   2.062   0.018  0.00  0.00    -0.272 OA
ATOM      5  C   UNL     1       1.437   1.773  -0.002  0.00  0.00    +0.135 C 
ATOM      6  N   UNL     1       2.175   0.498  -0.016  0.00  0.00    -0.281 N 
ATOM      7  C   UNL     1       1.252  -0.481  -0.013  0.00  0.00    +0.308 C 
ATOM      8  O   UNL     1       1.524  -1.665  -0.021  0.00  0.00    -0.252 OA
ATOM      9  C   UNL     1       1.772   2.575   1.257  0.00  0.00    +0.047 C 
ATOM     10  H   UNL     1       3.139   0.386  -0.025  0.00  0.00    +0.152 HD
BRANCH   5  11
ATOM     11  C   UNL     1       1.743   2.576  -1.240  0.00  0.00    -0.012 A 
ATOM     12  C   UNL     1       0.751   3.336  -1.832  0.00  0.00    +0.010 A 
ATOM     13  C   UNL     1       1.028   4.078  -2.965  0.00  0.00    +0.050 A 
ATOM     14  C   UNL     1       2.299   4.053  -3.517  0.00  0.00    +0.166 A 
ATOM     15  C   UNL     1       3.296   3.284  -2.924  0.00  0.00    +0.167 A 
ATOM     16  C   UNL     1       3.013   2.547  -1.785  0.00  0.00    +0.055 A 
ATOM     17  O   UNL     1       4.445   3.426  -3.647  0.00  0.00    -0.453 OA
ATOM     18  C   UNL     1       4.251   4.606  -4.449  0.00  0.00    +0.466 C 
ATOM     19  O   UNL     1       2.822   4.678  -4.612  0.00  0.00    -0.453 OA
ENDBRANCH   5  11
ENDBRANCH   1   2
BRANCH   1  25
ATOM     20  N   UNL     1      -3.266  -1.543  -3.577  0.00  0.00    -0.180 NA
ATOM     21  C   UNL     1      -2.641  -2.706  -2.928  0.00  0.00    +0.091 C 
ATOM     22  C   UNL     1      -2.385  -2.363  -1.456  0.00  0.00    -0.059 C 
ATOM     23  C   UNL     1      -2.365   0.015  -1.932  0.00  0.00    -0.059 C 
ATOM     24  C   UNL     1      -2.620  -0.231  -3.423  0.00  0.00    +0.091 C 
ATOM     25  N   UNL     1      -1.587  -1.120  -1.391  0.00  0.00    +0.392 N 
ATOM     26  H   UNL     1      -0.737  -1.240  -1.954  0.00  0.00    -0.079 HD
BRANCH  20  27
ATOM     27  S   UNL     1      -4.658  -1.708  -4.458  0.00  0.00    +0.066 S 
ATOM     28  O   UNL     1      -4.692  -0.620  -5.372  0.00  0.00    -0.153 OA
ATOM     29  O   UNL     1      -4.712  -3.062  -4.883  0.00  0.00    -0.153 OA
BRANCH  27  32
ATOM     30  C   UNL     1      -6.401  -3.932  -2.556  0.00  0.00    +0.071 C 
ATOM     31  C   UNL     1      -6.686  -2.453  -2.586  0.00  0.00    +0.107 A 
ATOM     32  C   UNL     1      -6.007  -1.475  -3.348  0.00  0.00    +0.170 A 
ATOM     33  C   UNL     1      -6.637  -0.318  -3.032  0.00  0.00    +0.161 A 
ATOM     34  O   UNL     1      -7.596  -0.636  -2.151  0.00  0.00    -0.358 OA
ATOM     35  N   UNL     1      -7.606  -1.822  -1.914  0.00  0.00    -0.081 NA
ATOM     36  C   UNL     1      -6.322   1.056  -3.566  0.00  0.00    +0.091 C 
ENDBRANCH  27  32
ENDBRANCH  20  27
ENDBRANCH   1  25
TORSDOF 5
