REMARK  Name = ZINC63193377
REMARK  4 active torsions:
REMARK  status: ('A' for Active; 'I' for Inactive)
REMARK    1  A    between atoms: C_1  and  C_2
REMARK    2  A    between atoms: C_2  and  C_4
REMARK    3  A    between atoms: C_2  and  N_19
REMARK    4  A    between atoms: C_11  and  C_13
REMARK                            x       y       z     vdW  Elec       q    Type
REMARK                         _______ _______ _______ _____ _____    ______ ____
ROOT
ATOM      1  C   UNL     1       0.486  -0.585   1.234  0.00  0.00    +0.062 C 
ATOM      2  C   UNL     1       0.559  -2.112   1.145  0.00  0.00    +0.021 C 
ATOM      3  C   UNL     1       0.910  -2.683   2.520  0.00  0.00    +0.003 C 
ATOM      4  C   UNL     1      -0.184  -2.310   3.523  0.00  0.00    +0.019 C 
ATOM      5  C   UNL     1      -0.265  -0.784   3.640  0.00  0.00    +0.108 C 
ATOM      6  N   UNL     1      -0.456  -0.214   2.299  0.00  0.00    -0.294 N 
ATOM      7  C   UNL     1      -1.477   0.628   2.049  0.00  0.00    +0.282 C 
ATOM      8  O   UNL     1      -1.568   1.170   0.963  0.00  0.00    -0.267 OA
ENDROOT
BRANCH   7   9
ATOM      9  C   UNL     1      -2.479   0.893   3.086  0.00  0.00    +0.191 A 
ATOM     10  C   UNL     1      -3.635   1.602   2.922  0.00  0.00    +0.056 A 
ATOM     11  C   UNL     1      -4.286   1.605   4.165  0.00  0.00    +0.058 A 
ATOM     12  C   UNL     1      -3.509   0.904   5.023  0.00  0.00    +0.171 A 
ATOM     13  O   UNL     1      -2.424   0.472   4.367  0.00  0.00    -0.444 OA
ATOM     14 BR   UNL     1      -3.895   0.582   6.846  0.00  0.00    -0.008 Br
ENDBRANCH   7   9
BRANCH   1  16
ATOM     15  C   UNL     1       1.044  -0.298  -1.185  0.00  0.00    -0.012 C 
ATOM     16  C   UNL     1       0.002  -0.015  -0.101  0.00  0.00    -0.057 C 
BRANCH  16  17
ATOM     17  N   UNL     1      -1.272  -0.648  -0.469  0.00  0.00    +0.381 N 
ATOM     18  H   UNL     1      -1.139  -1.644  -0.562  0.00  0.00    -0.090 HD
ATOM     19  H   UNL     1      -1.958  -0.466   0.248  0.00  0.00    -0.090 HD
ATOM     20  H   UNL     1      -1.595  -0.269  -1.347  0.00  0.00    -0.090 HD
ENDBRANCH  16  17
ENDBRANCH   1  16
TORSDOF 3
