REMARK  Name = ZINC36714539
REMARK  9 active torsions:
REMARK  status: ('A' for Active; 'I' for Inactive)
REMARK    1  A    between atoms: C_1  and  C_2
REMARK    2  A    between atoms: C_5  and  C_8
REMARK    3  A    between atoms: C_8  and  N_9
REMARK    4  A    between atoms: C_10  and  C_12
REMARK    5  A    between atoms: C_12  and  N_13
REMARK    6  A    between atoms: C_19  and  C_22
REMARK    7  A    between atoms: C_22  and  C_23
REMARK    8  A    between atoms: C_22  and  C_24
REMARK    9  A    between atoms: C_22  and  C_25
REMARK                            x       y       z     vdW  Elec       q    Type
REMARK                         _______ _______ _______ _____ _____    ______ ____
ROOT
ATOM      1  N   UNL     1       3.156  -8.016  -0.059  0.00  0.00    -0.215 N 
ATOM      2  C   UNL     1       3.167  -8.780   1.053  0.00  0.00    +0.247 C 
ATOM      3  O   UNL     1       3.163  -8.401   2.204  0.00  0.00    -0.273 OA
ATOM      4  C   UNL     1       3.184 -10.209   0.560  0.00  0.00    +0.113 C 
ATOM      5  C   UNL     1       1.939 -10.950   1.035  0.00  0.00    +0.035 C 
ATOM      6  C   UNL     1       1.946 -11.034   2.564  0.00  0.00    +0.006 C 
ATOM      7  C   UNL     1       3.206 -11.768   3.028  0.00  0.00    -0.005 C 
ATOM      8  C   UNL     1       4.446 -11.002   2.562  0.00  0.00    +0.006 C 
ATOM      9  C   UNL     1       4.448 -10.919   1.033  0.00  0.00    +0.035 C 
ATOM     10  N   UNL     1       3.181 -10.082  -0.903  0.00  0.00    -0.285 N 
ATOM     11  C   UNL     1       3.159  -8.762  -1.170  0.00  0.00    +0.310 C 
ATOM     12  O   UNL     1       3.147  -8.301  -2.295  0.00  0.00    -0.252 OA
ATOM     13  H   UNL     1       3.190 -10.806  -1.549  0.00  0.00    +0.151 HD
ENDROOT
BRANCH   7  14
ATOM     14  C   UNL     1       3.208 -11.861   4.555  0.00  0.00    -0.035 C 
ATOM     15  C   UNL     1       1.970 -12.628   5.021  0.00  0.00    +0.011 C 
ATOM     16  C   UNL     1       4.468 -12.595   5.019  0.00  0.00    +0.011 C 
ATOM     17  C   UNL     1       3.190 -10.452   5.152  0.00  0.00    +0.011 C 
ENDBRANCH   7  14
BRANCH   1  18
ATOM     18  C   UNL     1       3.137  -6.551  -0.051  0.00  0.00    +0.213 C 
BRANCH  18  20
ATOM     19  N   UNL     1       1.447  -4.746  -0.032  0.00  0.00    -0.310 N 
ATOM     20  C   UNL     1       1.710  -6.067  -0.040  0.00  0.00    +0.231 C 
ATOM     21  O   UNL     1       0.799  -6.867  -0.040  0.00  0.00    -0.274 OA
ATOM     22  H   UNL     1       2.176  -4.106  -0.032  0.00  0.00    +0.149 HD
BRANCH  19  23
ATOM     23  C   UNL     1       0.059  -4.275  -0.021  0.00  0.00    +0.139 C 
BRANCH  23  28
ATOM     24  C   UNL     1      -0.018   1.503   0.010  0.00  0.00    +0.044 C 
ATOM     25  C   UNL     1       0.002  -0.004   0.002  0.00  0.00    -0.050 A 
ATOM     26  C   UNL     1       0.006  -0.689  -1.199  0.00  0.00    +0.003 A 
ATOM     27  C   UNL     1       0.025  -2.071  -1.206  0.00  0.00    +0.005 A 
ATOM     28  C   UNL     1       0.040  -2.768  -0.013  0.00  0.00    -0.030 A 
ATOM     29  C   UNL     1       0.037  -2.084   1.188  0.00  0.00    +0.005 A 
ATOM     30  C   UNL     1       0.023  -0.702   1.195  0.00  0.00    +0.003 A 
ENDBRANCH  23  28
ENDBRANCH  19  23
ENDBRANCH  18  20
ENDBRANCH   1  18
TORSDOF 5
