REMARK  Name = ZINC12371476
REMARK  5 active torsions:
REMARK  status: ('A' for Active; 'I' for Inactive)
REMARK    1  A    between atoms: C_1  and  O_2
REMARK    2  A    between atoms: O_2  and  C_3
REMARK    3  A    between atoms: C_13  and  C_25
REMARK    4  A    between atoms: C_18  and  C_20
REMARK    5  A    between atoms: C_28  and  N_31
REMARK                            x       y       z     vdW  Elec       q    Type
REMARK                         _______ _______ _______ _____ _____    ______ ____
ROOT
ATOM      1  C   UNL     1       7.098   5.885  -4.601  0.00  0.00    +0.121 A 
ATOM      2  C   UNL     1       6.850   7.240  -4.424  0.00  0.00    +0.047 A 
ATOM      3  C   UNL     1       5.960   7.709  -3.474  0.00  0.00    +0.030 A 
ATOM      4  C   UNL     1       5.311   6.759  -2.688  0.00  0.00    +0.047 A 
ATOM      5  C   UNL     1       5.563   5.375  -2.867  0.00  0.00    +0.007 A 
ATOM      6  C   UNL     1       6.465   4.918  -3.833  0.00  0.00    +0.056 A 
ATOM      7  C   UNL     1       4.731   4.687  -1.900  0.00  0.00    -0.015 A 
ATOM      8  C   UNL     1       4.054   5.635  -1.217  0.00  0.00    +0.046 A 
ATOM      9  N   UNL     1       4.394   6.878  -1.681  0.00  0.00    -0.356 N 
ATOM     10  H   UNL     1       4.037   7.715  -1.347  0.00  0.00    +0.166 HD
ATOM     11  C   UNL     1       3.077   5.325  -0.110  0.00  0.00    +0.153 C 
ATOM     12  N   UNL     1       2.825   3.874  -0.129  0.00  0.00    -0.284 N 
ATOM     13  C   UNL     1       3.973   2.969  -0.287  0.00  0.00    +0.114 C 
ATOM     14  C   UNL     1       4.606   3.204  -1.664  0.00  0.00    +0.056 C 
ATOM     15  C   UNL     1       1.573   3.389  -0.010  0.00  0.00    +0.254 C 
ATOM     16  O   UNL     1       1.384   2.187  -0.014  0.00  0.00    -0.269 OA
ENDROOT
BRANCH  11  17
ATOM     17  C   UNL     1       3.670   5.724   1.217  0.00  0.00    -0.021 A 
ATOM     18  C   UNL     1       2.993   6.605   2.040  0.00  0.00    +0.008 A 
ATOM     19  C   UNL     1       3.535   6.967   3.259  0.00  0.00    +0.033 A 
ATOM     20  C   UNL     1       4.758   6.457   3.651  0.00  0.00    +0.126 A 
ATOM     21  C   UNL     1       5.438   5.580   2.826  0.00  0.00    +0.033 A 
ATOM     22  C   UNL     1       4.894   5.214   1.609  0.00  0.00    +0.008 A 
BRANCH  20  23
ATOM     23  N   UNL     1       5.341   6.849   4.954  0.00  0.00    +0.056 N 
ATOM     24  O   UNL     1       6.419   6.399   5.299  0.00  0.00    -0.126 OA
ATOM     25  O   UNL     1       4.743   7.622   5.681  0.00  0.00    -0.126 OA
ENDBRANCH  20  23
ENDBRANCH  11  17
BRANCH  15  26
ATOM     26  C   UNL     1       0.440   4.309   0.124  0.00  0.00    +0.074 A 
ATOM     27  C   UNL     1      -0.918   4.034   0.084  0.00  0.00    +0.021 A 
ATOM     28  C   UNL     1      -1.776   5.094   0.239  0.00  0.00    +0.008 A 
ATOM     29  C   UNL     1      -1.264   6.340   0.421  0.00  0.00    +0.046 A 
ATOM     30  S   UNL     1       0.449   6.074   0.382  0.00  0.00    -0.092 S 
ENDBRANCH  15  26
BRANCH   1  32
ATOM     31  C   UNL     1       8.611   6.526  -6.321  0.00  0.00    +0.277 C 
ATOM     32  O   UNL     1       7.986   5.494  -5.555  0.00  0.00    -0.495 OA
ENDBRANCH   1  32
TORSDOF 4
