REMARK  Name = ZINC16022191
REMARK  6 active torsions:
REMARK  status: ('A' for Active; 'I' for Inactive)
REMARK    1  A    between atoms: C_1  and  C_2
REMARK    2  A    between atoms: C_2  and  C_3
REMARK    3  A    between atoms: C_3  and  C_5
REMARK    4  A    between atoms: C_3  and  N_6
REMARK    5  A    between atoms: C_11  and  C_29
REMARK    6  A    between atoms: C_29  and  C_30
REMARK                            x       y       z     vdW  Elec       q    Type
REMARK                         _______ _______ _______ _____ _____    ______ ____
ROOT
ATOM      1  N   UNL     1      -1.934  -0.102  -1.173  0.00  0.00    -0.239 N 
ATOM      2  C   UNL     1      -1.560  -0.550  -2.377  0.00  0.00    +0.227 C 
ATOM      3  O   UNL     1      -0.710  -1.391  -2.579  0.00  0.00    -0.275 OA
ATOM      4  C   UNL     1      -2.363   0.155  -3.447  0.00  0.00    +0.107 C 
ATOM      5  C   UNL     1      -1.428   1.084  -4.251  0.00  0.00    +0.072 C 
ATOM      6  N   UNL     1      -2.167   2.370  -4.357  0.00  0.00    -0.295 NA
ATOM      7  C   UNL     1      -2.821   2.521  -3.044  0.00  0.00    +0.136 C 
ATOM      8  C   UNL     1      -3.288   1.102  -2.634  0.00  0.00    +0.122 C 
ATOM      9  C   UNL     1      -2.899   0.823  -1.200  0.00  0.00    +0.228 C 
ATOM     10  O   UNL     1      -3.385   1.358  -0.226  0.00  0.00    -0.275 OA
ATOM     11  C   UNL     1      -3.977   3.478  -3.111  0.00  0.00    +0.005 A 
ATOM     12  C   UNL     1      -5.144   3.504  -3.841  0.00  0.00    +0.008 A 
ATOM     13  C   UNL     1      -6.038   4.548  -3.682  0.00  0.00    +0.002 A 
ATOM     14  C   UNL     1      -5.756   5.565  -2.789  0.00  0.00    +0.022 A 
ATOM     15  C   UNL     1      -4.587   5.544  -2.055  0.00  0.00    +0.062 A 
ATOM     16  C   UNL     1      -3.682   4.495  -2.209  0.00  0.00    +0.057 A 
ATOM     17  N   UNL     1      -2.452   4.253  -1.592  0.00  0.00    -0.282 N 
ATOM     18  C   UNL     1      -1.882   3.113  -2.028  0.00  0.00    +0.243 C 
ATOM     19  O   UNL     1      -0.818   2.653  -1.671  0.00  0.00    -0.273 OA
ATOM     20 CL   UNL     1      -4.243   6.827  -0.938  0.00  0.00    -0.082 Cl
ATOM     21  H   UNL     1      -1.536   3.136  -4.537  0.00  0.00    +0.124 HD
ATOM     22  H   UNL     1      -2.055   4.837  -0.927  0.00  0.00    +0.155 HD
ENDROOT
BRANCH   1  23
ATOM     23  C   UNL     1      -1.339  -0.591   0.074  0.00  0.00    +0.081 C 
ATOM     24  C   UNL     1      -0.710   0.580   0.832  0.00  0.00    +0.028 C 
BRANCH  23  26
ATOM     25  C   UNL     1      -2.959  -2.486   0.240  0.00  0.00    +0.006 C 
ATOM     26  C   UNL     1      -2.425  -1.234   0.939  0.00  0.00    +0.019 C 
ENDBRANCH  23  26
ENDBRANCH   1  23
BRANCH   5  27
ATOM     27  C   UNL     1      -1.166   0.502  -5.641  0.00  0.00    +0.054 C 
BRANCH  27  28
ATOM     28  C   UNL     1      -0.157   1.358  -6.362  0.00  0.00    -0.046 A 
ATOM     29  C   UNL     1      -0.581   2.422  -7.136  0.00  0.00    +0.004 A 
ATOM     30  C   UNL     1       0.344   3.208  -7.797  0.00  0.00    +0.000 A 
ATOM     31  C   UNL     1       1.694   2.929  -7.685  0.00  0.00    +0.000 A 
ATOM     32  C   UNL     1       2.118   1.865  -6.911  0.00  0.00    +0.000 A 
ATOM     33  C   UNL     1       1.193   1.083  -6.246  0.00  0.00    +0.004 A 
ENDBRANCH  27  28
ENDBRANCH   5  27
TORSDOF 4
