REMARK  Name = ZINC05509171
REMARK  7 active torsions:
REMARK  status: ('A' for Active; 'I' for Inactive)
REMARK    1  A    between atoms: C_1  and  C_2
REMARK    2  A    between atoms: C_2  and  C_3
REMARK    3  A    between atoms: C_3  and  C_4
REMARK    4  A    between atoms: C_4  and  C_6
REMARK    5  A    between atoms: C_4  and  N_7
REMARK    6  A    between atoms: C_10  and  O_12
REMARK    7  A    between atoms: C_13  and  C_20
REMARK                            x       y       z     vdW  Elec       q    Type
REMARK                         _______ _______ _______ _____ _____    ______ ____
ROOT
ATOM      1  N   UNL     1      -2.781  -2.571   0.135  0.00  0.00    -0.244 N 
ATOM      2  C   UNL     1      -3.248  -3.372   1.150  0.00  0.00    +0.132 A 
ATOM      3  C   UNL     1      -4.554  -3.611   0.898  0.00  0.00    +0.072 A 
ATOM      4  C   UNL     1      -4.891  -2.940  -0.301  0.00  0.00    +0.238 A 
ATOM      5  N   UNL     1      -3.832  -2.319  -0.745  0.00  0.00    -0.131 NA
ATOM      6  C   UNL     1      -5.555  -4.414   1.666  0.00  0.00    +0.115 C 
ATOM      7  S   UNL     1      -5.304  -4.351   3.442  0.00  0.00    -0.138 S 
ATOM      8  C   UNL     1      -3.758  -5.214   3.756  0.00  0.00    +0.166 C 
ATOM      9  C   UNL     1      -2.577  -4.481   3.252  0.00  0.00    +0.228 C 
ATOM     10  O   UNL     1      -1.597  -4.541   3.965  0.00  0.00    -0.275 OA
ATOM     11  N   UNL     1      -2.421  -3.784   2.167  0.00  0.00    -0.270 N 
ATOM     12  H   UNL     1      -1.506  -3.485   2.046  0.00  0.00    +0.156 HD
ENDROOT
BRANCH   6  13
ATOM     13  C   UNL     1      -6.934  -3.892   1.356  0.00  0.00    -0.030 A 
ATOM     14  C   UNL     1      -7.254  -2.576   1.635  0.00  0.00    +0.006 A 
ATOM     15  C   UNL     1      -8.518  -2.096   1.351  0.00  0.00    +0.015 A 
ATOM     16  C   UNL     1      -9.465  -2.933   0.787  0.00  0.00    +0.018 A 
ATOM     17  C   UNL     1      -9.145  -4.250   0.509  0.00  0.00    +0.015 A 
ATOM     18  C   UNL     1      -7.878  -4.727   0.789  0.00  0.00    +0.006 A 
ATOM     19 BR   UNL     1     -11.195  -2.278   0.399  0.00  0.00    -0.050 Br
ENDBRANCH   6  13
BRANCH   1  20
ATOM     20  C   UNL     1      -1.413  -2.063   0.004  0.00  0.00    +0.106 C 
ATOM     21  C   UNL     1      -0.809  -2.558  -1.311  0.00  0.00    +0.032 C 
BRANCH  20  22
ATOM     22  C   UNL     1      -1.433  -0.534   0.013  0.00  0.00    +0.026 C 
BRANCH  22  24
ATOM     23  C   UNL     1      -0.019   1.526   0.010  0.00  0.00    +0.004 C 
ATOM     24  C   UNL     1       0.002  -0.004   0.002  0.00  0.00    -0.001 C 
ENDBRANCH  22  24
ENDBRANCH  20  22
ENDBRANCH   1  20
BRANCH   4  25
ATOM     25  O   UNL     1      -6.117  -2.937  -0.890  0.00  0.00    -0.491 OA
ATOM     26  H   UNL     1      -6.693  -2.219  -0.596  0.00  0.00    +0.294 HD
ENDBRANCH   4  25
TORSDOF 5
