REMARK  Name = ZINC19808193
REMARK  4 active torsions:
REMARK  status: ('A' for Active; 'I' for Inactive)
REMARK    1  A    between atoms: C_4  and  C_7
REMARK    2  A    between atoms: C_8  and  C_18
REMARK    3  A    between atoms: N_20  and  N_21
REMARK    4  A    between atoms: C_22  and  C_23
REMARK                            x       y       z     vdW  Elec       q    Type
REMARK                         _______ _______ _______ _____ _____    ______ ____
ROOT
ATOM      1  C   UNL     1      -1.712   6.270   0.236  0.00  0.00    +0.284 C 
ATOM      2  O   UNL     1      -1.635   7.480   0.129  0.00  0.00    -0.267 OA
ATOM      3  N   UNL     1      -2.911   5.688   0.438  0.00  0.00    -0.202 N 
ATOM      4  H   UNL     1      -2.994   4.591   0.453  0.00  0.00    +0.178 HD
ENDROOT
BRANCH   1   6
ATOM      5  C   UNL     1       0.160   5.041  -1.013  0.00  0.00    +0.125 A 
ATOM      6  C   UNL     1      -0.502   5.446   0.144  0.00  0.00    +0.160 A 
ATOM      7  N   UNL     1       0.221   4.907   1.181  0.00  0.00    -0.183 N 
ATOM      8  N   UNL     1       1.213   4.257   0.683  0.00  0.00    -0.058 NA
ATOM      9  N   UNL     1       1.206   4.308  -0.600  0.00  0.00    -0.128 NA
ATOM     10  C   UNL     1      -0.067   5.048   2.542  0.00  0.00    +0.241 A 
ATOM     11  C   UNL     1       0.643   4.389   3.642  0.00  0.00    +0.206 A 
ATOM     12  N   UNL     1       0.097   4.764   4.766  0.00  0.00    -0.032 NA
ATOM     13  O   UNL     1      -0.963   5.652   4.458  0.00  0.00    -0.239 OA
ATOM     14  N   UNL     1      -1.015   5.785   3.049  0.00  0.00    -0.027 NA
ATOM     15  N   UNL     1       1.718   3.517   3.510  0.00  0.00    -0.337 N 
ATOM     16  H   UNL     1       2.180   3.075   4.405  0.00  0.00    +0.144 HD
ATOM     17  H   UNL     1       2.106   3.269   2.511  0.00  0.00    +0.144 HD
BRANCH   5  21
ATOM     18  C   UNL     1      -0.913   5.940  -5.026  0.00  0.00    +0.000 A 
ATOM     19  C   UNL     1       0.420   5.924  -4.657  0.00  0.00    +0.001 A 
ATOM     20  C   UNL     1       0.775   5.633  -3.355  0.00  0.00    +0.010 A 
ATOM     21  C   UNL     1      -0.214   5.355  -2.412  0.00  0.00    +0.004 A 
ATOM     22  C   UNL     1      -1.556   5.367  -2.792  0.00  0.00    +0.010 A 
ATOM     23  C   UNL     1      -1.898   5.665  -4.095  0.00  0.00    +0.001 A 
ENDBRANCH   5  21
ENDBRANCH   1   6
BRANCH   3  24
ATOM     24  N   UNL     1      -4.051   6.479   0.631  0.00  0.00    -0.187 NA
ATOM     25  C   UNL     1      -5.209   5.916   0.826  0.00  0.00    +0.139 C 
BRANCH  25  26
ATOM     26  C   UNL     1      -6.401   6.743   1.028  0.00  0.00    +0.010 A 
ATOM     27  C   UNL     1      -7.637   6.147   1.353  0.00  0.00    -0.009 A 
ATOM     28  C   UNL     1      -7.753   4.754   1.503  0.00  0.00    +0.009 A 
ATOM     29  C   UNL     1      -8.958   4.211   1.823  0.00  0.00    +0.001 A 
ATOM     30  C   UNL     1     -10.090   5.002   2.013  0.00  0.00    +0.001 A 
ATOM     31  C   UNL     1     -10.044   6.354   1.887  0.00  0.00    +0.008 A 
ATOM     32  C   UNL     1      -8.823   6.981   1.557  0.00  0.00    -0.017 A 
ATOM     33  C   UNL     1      -8.742   8.367   1.421  0.00  0.00    +0.017 A 
ATOM     34  C   UNL     1      -7.524   8.965   1.094  0.00  0.00    -0.017 A 
ATOM     35  C   UNL     1      -6.328   8.145   0.892  0.00  0.00    -0.009 A 
ATOM     36  C   UNL     1      -5.117   8.780   0.564  0.00  0.00    +0.009 A 
ATOM     37  C   UNL     1      -5.081  10.134   0.442  0.00  0.00    +0.001 A 
ATOM     38  C   UNL     1      -6.218  10.917   0.633  0.00  0.00    +0.001 A 
ATOM     39  C   UNL     1      -7.418  10.366   0.952  0.00  0.00    +0.008 A 
ENDBRANCH  25  26
ENDBRANCH   3  24
TORSDOF 4
