REMARK  Name = ZINC05594709
REMARK  7 active torsions:
REMARK  status: ('A' for Active; 'I' for Inactive)
REMARK    1  A    between atoms: N_7  and  C_10
REMARK    2  A    between atoms: C_12  and  O_27
REMARK    3  A    between atoms: C_14  and  O_26
REMARK    4  A    between atoms: C_16  and  C_19
REMARK    5  A    between atoms: C_19  and  S_20
REMARK    6  A    between atoms: S_20  and  C_21
REMARK    7  A    between atoms: C_21  and  C_22
REMARK                            x       y       z     vdW  Elec       q    Type
REMARK                         _______ _______ _______ _____ _____    ______ ____
ROOT
ATOM      1  C   UNL     1       0.492   4.457   0.024  0.00  0.00    +0.253 C 
ATOM      2  C   UNL     1       0.116   4.874  -1.421  0.00  0.00    +0.195 C 
ATOM      3  C   UNL     1      -0.309   6.351  -1.232  0.00  0.00    +0.177 C 
ATOM      4  C   UNL     1       0.354   6.768   0.095  0.00  0.00    +0.162 C 
ATOM      5  O   UNL     1       1.115   5.643   0.565  0.00  0.00    -0.347 OA
ENDROOT
BRANCH   1  12
ATOM      6  C   UNL     1       0.002  -0.004   0.002  0.00  0.00    +0.225 A 
ATOM      7  N   UNL     1       1.126  -0.698  -0.013  0.00  0.00    -0.219 NA
ATOM      8  C   UNL     1       2.308  -0.092  -0.021  0.00  0.00    +0.147 A 
ATOM      9  C   UNL     1       2.341   1.313  -0.013  0.00  0.00    +0.147 A 
ATOM     10  C   UNL     1       1.119   2.005   0.002  0.00  0.00    +0.167 A 
ATOM     11  N   UNL     1      -0.016   1.312   0.009  0.00  0.00    -0.216 NA
ATOM     12  N   UNL     1       1.439   3.339   0.008  0.00  0.00    -0.286 N 
ATOM     13  C   UNL     1       2.799   3.433  -0.004  0.00  0.00    +0.203 A 
ATOM     14  N   UNL     1       3.326   2.243  -0.017  0.00  0.00    -0.231 NA
ATOM     15  N   UNL     1       3.481  -0.827  -0.036  0.00  0.00    -0.341 N 
ATOM     16  H   UNL     1       3.520  -1.408   0.777  0.00  0.00    +0.144 HD
ATOM     17  H   UNL     1       4.338  -0.373  -0.042  0.00  0.00    +0.144 HD
ENDBRANCH   1  12
BRANCH   3  18
ATOM     18  O   UNL     1       0.177   7.155  -2.309  0.00  0.00    -0.386 OA
ATOM     19  H   UNL     1      -0.208   6.936  -3.168  0.00  0.00    +0.210 HD
ENDBRANCH   3  18
BRANCH   2  20
ATOM     20  O   UNL     1      -0.973   4.089  -1.910  0.00  0.00    -0.385 OA
ATOM     21  H   UNL     1      -1.246   4.313  -2.811  0.00  0.00    +0.210 HD
ENDBRANCH   2  20
BRANCH   4  22
ATOM     22  C   UNL     1       1.282   7.963  -0.137  0.00  0.00    +0.103 C 
BRANCH  22  23
ATOM     23  S   UNL     1       2.069   8.430   1.430  0.00  0.00    -0.149 S 
BRANCH  23  24
ATOM     24  C   UNL     1       3.121   9.840   0.989  0.00  0.00    +0.182 C 
BRANCH  24  25
ATOM     25  C   UNL     1       3.853  10.340   2.236  0.00  0.00    +0.399 C 
ATOM     26  F   UNL     1       4.646   9.310   2.755  0.00  0.00    -0.170 F 
ATOM     27  F   UNL     1       4.664  11.428   1.896  0.00  0.00    -0.170 F 
ATOM     28  F   UNL     1       2.918  10.738   3.198  0.00  0.00    -0.170 F 
ENDBRANCH  24  25
ENDBRANCH  23  24
ENDBRANCH  22  23
ENDBRANCH   4  22
TORSDOF 7
