REMARK  Name = ZINC01746424
REMARK  6 active torsions:
REMARK  status: ('A' for Active; 'I' for Inactive)
REMARK    1  A    between atoms: C_1  and  C_2
REMARK    2  A    between atoms: C_4  and  O_19
REMARK    3  A    between atoms: C_7  and  N_8
REMARK    4  A    between atoms: N_8  and  C_9
REMARK    5  A    between atoms: O_19  and  C_20
REMARK    6  A    between atoms: C_20  and  C_21
REMARK                            x       y       z     vdW  Elec       q    Type
REMARK                         _______ _______ _______ _____ _____    ______ ____
ROOT
ATOM      1  C   UNL     1       2.426   3.913  -0.461  0.00  0.00    +0.046 C 
ATOM      2  C   UNL     1       1.146   3.157  -0.212  0.00  0.00    -0.026 A 
ATOM      3  C   UNL     1      -0.061   3.828  -0.196  0.00  0.00    +0.050 A 
ATOM      4  C   UNL     1      -1.239   3.133   0.033  0.00  0.00    +0.121 A 
ATOM      5  C   UNL     1      -1.206   1.762   0.241  0.00  0.00    +0.047 A 
ATOM      6  C   UNL     1      -0.000   1.090   0.231  0.00  0.00    +0.027 A 
ATOM      7  C   UNL     1       1.180   1.785   0.001  0.00  0.00    +0.036 A 
ENDROOT
BRANCH   7   8
ATOM      8  N   UNL     1       2.403   1.104  -0.015  0.00  0.00    -0.300 N 
ATOM      9  H   UNL     1       2.647   0.562  -0.781  0.00  0.00    +0.154 HD
BRANCH   8  10
ATOM     10  C   UNL     1       3.257   1.202   1.055  0.00  0.00    +0.109 A 
ATOM     11  C   UNL     1       4.492   0.617   1.008  0.00  0.00    +0.112 A 
ATOM     12  C   UNL     1       5.347   0.739   2.115  0.00  0.00    +0.256 A 
ATOM     13  O   UNL     1       6.454   0.230   2.093  0.00  0.00    -0.268 OA
ATOM     14  N   UNL     1       4.933   1.417   3.204  0.00  0.00    -0.275 N 
ATOM     15  H   UNL     1       5.539   1.500   3.995  0.00  0.00    +0.173 HD
ATOM     16  C   UNL     1       3.712   1.981   3.236  0.00  0.00    +0.328 A 
ATOM     17  O   UNL     1       3.360   2.589   4.228  0.00  0.00    -0.247 OA
ATOM     18  N   UNL     1       2.876   1.884   2.186  0.00  0.00    -0.296 N 
ATOM     19  H   UNL     1       1.973   2.311   2.228  0.00  0.00    +0.172 HD
ENDBRANCH   8  10
ENDBRANCH   7   8
BRANCH   4  20
ATOM     20  O   UNL     1      -2.427   3.795   0.048  0.00  0.00    -0.487 OA
BRANCH  20  21
ATOM     21  C   UNL     1      -3.600   3.016   0.289  0.00  0.00    +0.266 C 
BRANCH  21  22
ATOM     22  C   UNL     1      -4.811   3.913   0.269  0.00  0.00    +0.008 A 
ATOM     23  C   UNL     1      -4.664   5.268   0.039  0.00  0.00    +0.010 A 
ATOM     24  C   UNL     1      -5.774   6.091   0.020  0.00  0.00    +0.020 A 
ATOM     25  C   UNL     1      -7.034   5.559   0.231  0.00  0.00    +0.042 A 
ATOM     26  C   UNL     1      -7.182   4.203   0.461  0.00  0.00    +0.040 A 
ATOM     27  C   UNL     1      -6.071   3.379   0.475  0.00  0.00    +0.049 A 
ATOM     28 CL   UNL     1      -6.256   1.676   0.756  0.00  0.00    -0.083 Cl
ATOM     29 CL   UNL     1      -8.428   6.593   0.208  0.00  0.00    -0.083 Cl
ENDBRANCH  21  22
ENDBRANCH  20  21
ENDBRANCH   4  20
TORSDOF 5
