REMARK  Name = ZINC36146723
REMARK  14 active torsions:
REMARK  status: ('A' for Active; 'I' for Inactive)
REMARK    1  A    between atoms: C_1  and  N_2
REMARK    2  A    between atoms: N_2  and  C_3
REMARK    3  A    between atoms: N_2  and  C_4
REMARK    4  A    between atoms: C_7  and  C_10
REMARK    5  A    between atoms: C_13  and  C_16
REMARK    6  A    between atoms: C_16  and  N_17
REMARK    7  A    between atoms: N_17  and  C_18
REMARK    8  A    between atoms: N_17  and  C_26
REMARK    9  A    between atoms: C_18  and  C_19
REMARK   10  A    between atoms: C_26  and  C_27
REMARK   11  A    between atoms: C_27  and  C_29
REMARK   12  A    between atoms: C_27  and  O_37
REMARK   13  A    between atoms: C_29  and  O_30
REMARK   14  A    between atoms: O_30  and  C_31
REMARK                            x       y       z     vdW  Elec       q    Type
REMARK                         _______ _______ _______ _____ _____    ______ ____
ROOT
ATOM      1  N   UNL     1      -0.114  -4.599  -9.338  0.00  0.00    +0.387 N 
ATOM      2  H   UNL     1       0.888  -4.540  -9.239  0.00  0.00    -0.081 HD
ENDROOT
BRANCH   1   3
ATOM      3  C   UNL     1      -0.749  -3.571  -8.502  0.00  0.00    -0.030 C 
BRANCH   3   7
ATOM      4  C   UNL     1      -1.022  -3.356  -4.849  0.00  0.00    +0.091 C 
ATOM      5  N   UNL     1      -0.871  -4.617  -5.083  0.00  0.00    -0.089 NA
ATOM      6  O   UNL     1      -0.622  -4.897  -6.446  0.00  0.00    -0.392 OA
ATOM      7  C   UNL     1      -0.206  -3.667  -7.075  0.00  0.00    +0.194 C 
ATOM      8  C   UNL     1      -0.870  -2.608  -6.160  0.00  0.00    +0.104 C 
BRANCH   4  12
ATOM      9  C   UNL     1      -1.819  -1.605  -1.063  0.00  0.00    +0.029 A 
ATOM     10  C   UNL     1      -1.674  -2.984  -1.173  0.00  0.00    +0.024 A 
ATOM     11  C   UNL     1      -1.415  -3.555  -2.400  0.00  0.00    +0.011 A 
ATOM     12  C   UNL     1      -1.299  -2.748  -3.534  0.00  0.00    -0.000 A 
ATOM     13  C   UNL     1      -1.446  -1.363  -3.420  0.00  0.00    +0.011 A 
ATOM     14  C   UNL     1      -1.710  -0.799  -2.192  0.00  0.00    +0.024 A 
BRANCH   9  16
ATOM     15  C   UNL     1      -2.241   0.421   0.296  0.00  0.00    +0.129 C 
ATOM     16  N   UNL     1      -2.082  -1.031   0.179  0.00  0.00    -0.336 N 
ATOM     17  C   UNL     1      -2.197  -1.879   1.368  0.00  0.00    +0.129 C 
ENDBRANCH   9  16
ENDBRANCH   4  12
ENDBRANCH   3   7
ENDBRANCH   1   3
BRANCH   1  18
ATOM     18  C   UNL     1      -0.570  -5.928  -8.911  0.00  0.00    -0.043 C 
BRANCH  18  19
ATOM     19  C   UNL     1      -2.057  -6.044  -9.131  0.00  0.00    -0.063 A 
ATOM     20  C   UNL     1      -2.936  -5.604  -8.159  0.00  0.00    +0.002 A 
ATOM     21  C   UNL     1      -4.299  -5.710  -8.361  0.00  0.00    +0.002 A 
ATOM     22  C   UNL     1      -4.784  -6.256  -9.535  0.00  0.00    +0.020 A 
ATOM     23  C   UNL     1      -3.905  -6.697 -10.507  0.00  0.00    +0.041 A 
ATOM     24  C   UNL     1      -2.540  -6.585 -10.307  0.00  0.00    +0.021 A 
ATOM     25 CL   UNL     1      -4.513  -7.383 -11.981  0.00  0.00    -0.084 Cl
ENDBRANCH  18  19
ENDBRANCH   1  18
BRANCH   1  26
ATOM     26  C   UNL     1      -0.482  -4.383 -10.743  0.00  0.00    -0.043 C 
BRANCH  26  27
ATOM     27  C   UNL     1       0.299  -5.355 -11.630  0.00  0.00    +0.135 C 
BRANCH  27  28
ATOM     28  O   UNL     1       1.701  -5.124 -11.470  0.00  0.00    -0.390 OA
ATOM     29  H   UNL     1       1.982  -4.231 -11.709  0.00  0.00    +0.210 HD
ENDBRANCH  27  28
BRANCH  27  30
ATOM     30  C   UNL     1      -0.090  -5.136 -13.093  0.00  0.00    +0.258 C 
BRANCH  30  31
ATOM     31  O   UNL     1       0.550  -6.119 -13.909  0.00  0.00    -0.489 OA
BRANCH  31  32
ATOM     32  C   UNL     1       0.308  -6.065 -15.245  0.00  0.00    +0.121 A 
ATOM     33  C   UNL     1      -0.524  -5.082 -15.761  0.00  0.00    +0.045 A 
ATOM     34  C   UNL     1      -0.768  -5.029 -17.120  0.00  0.00    +0.004 A 
ATOM     35  C   UNL     1      -0.184  -5.955 -17.965  0.00  0.00    +0.000 A 
ATOM     36  C   UNL     1       0.645  -6.935 -17.453  0.00  0.00    +0.004 A 
ATOM     37  C   UNL     1       0.897  -6.989 -16.096  0.00  0.00    +0.045 A 
ENDBRANCH  31  32
ENDBRANCH  30  31
ENDBRANCH  27  30
ENDBRANCH  26  27
ENDBRANCH   1  26
TORSDOF 12
