REMARK  Name = ZINC59267059
REMARK  6 active torsions:
REMARK  status: ('A' for Active; 'I' for Inactive)
REMARK    1  A    between atoms: C_1  and  O_2
REMARK    2  A    between atoms: O_2  and  C_3
REMARK    3  A    between atoms: C_5  and  C_12
REMARK    4  A    between atoms: C_8  and  O_9
REMARK    5  A    between atoms: O_9  and  C_10
REMARK    6  A    between atoms: C_23  and  N_28
REMARK                            x       y       z     vdW  Elec       q    Type
REMARK                         _______ _______ _______ _____ _____    ______ ____
ROOT
ATOM      1  C   UNL     1       2.463   0.335   4.203  0.00  0.00    +0.105 C 
ATOM      2  C   UNL     1       3.946   0.463   3.921  0.00  0.00    +0.029 C 
ATOM      3  C   UNL     1       4.160   1.715   3.025  0.00  0.00    +0.033 C 
ATOM      4  C   UNL     1       4.430   2.833   4.008  0.00  0.00    -0.030 C 
ATOM      5  C   UNL     1       4.767   2.355   5.179  0.00  0.00    -0.023 C 
ATOM      6  C   UNL     1       4.777   0.829   5.149  0.00  0.00    +0.049 C 
ATOM      7  C   UNL     1       4.299   0.222   6.424  0.00  0.00    -0.017 A 
ATOM      8  C   UNL     1       5.146   0.209   7.524  0.00  0.00    +0.038 A 
ATOM      9  C   UNL     1       4.740  -0.357   8.715  0.00  0.00    +0.127 A 
ATOM     10  C   UNL     1       3.481  -0.920   8.825  0.00  0.00    +0.034 A 
ATOM     11  C   UNL     1       2.629  -0.909   7.739  0.00  0.00    +0.025 A 
ATOM     12  C   UNL     1       3.033  -0.332   6.540  0.00  0.00    +0.032 A 
ATOM     13  N   UNL     1       2.153  -0.281   5.475  0.00  0.00    -0.336 N 
ATOM     14  H   UNL     1       1.286  -0.700   5.585  0.00  0.00    +0.147 HD
ENDROOT
BRANCH   1  17
ATOM     15  C   UNL     1       0.626  -0.619   1.042  0.00  0.00    +0.163 A 
ATOM     16  C   UNL     1       1.202   0.137   2.051  0.00  0.00    +0.055 A 
ATOM     17  C   UNL     1       1.837  -0.489   3.108  0.00  0.00    -0.022 A 
ATOM     18  C   UNL     1       1.899  -1.869   3.161  0.00  0.00    +0.024 A 
ATOM     19  C   UNL     1       1.326  -2.630   2.158  0.00  0.00    +0.063 A 
ATOM     20  C   UNL     1       0.683  -2.008   1.099  0.00  0.00    +0.175 A 
ATOM     21 BR   UNL     1       1.414  -4.517   2.234  0.00  0.00    -0.046 Br
BRANCH  15  23
ATOM     22  C   UNL     1      -0.017   1.425   0.010  0.00  0.00    +0.277 C 
ATOM     23  O   UNL     1       0.002  -0.004   0.002  0.00  0.00    -0.491 OA
ENDBRANCH  15  23
BRANCH  20  24
ATOM     24  O   UNL     1       0.114  -2.754   0.114  0.00  0.00    -0.490 OA
ATOM     25  C   UNL     1       0.939  -3.091  -1.003  0.00  0.00    +0.277 C 
ENDBRANCH  20  24
ENDBRANCH   1  17
BRANCH   9  26
ATOM     26  N   UNL     1       5.654  -0.360   9.880  0.00  0.00    +0.056 N 
ATOM     27  O   UNL     1       6.754   0.132   9.786  0.00  0.00    -0.126 OA
ATOM     28  O   UNL     1       5.300  -0.856  10.924  0.00  0.00    -0.126 OA
ENDBRANCH   9  26
TORSDOF 4
