REMARK  Name = ZINC36205456
REMARK  13 active torsions:
REMARK  status: ('A' for Active; 'I' for Inactive)
REMARK    1  A    between atoms: C_1  and  C_2
REMARK    2  A    between atoms: C_2  and  O_3
REMARK    3  A    between atoms: O_3  and  C_4
REMARK    4  A    between atoms: C_4  and  C_5
REMARK    5  A    between atoms: C_5  and  C_7
REMARK    6  A    between atoms: C_5  and  O_31
REMARK    7  A    between atoms: C_7  and  N_8
REMARK    8  A    between atoms: N_8  and  C_9
REMARK    9  A    between atoms: N_8  and  C_28
REMARK   10  A    between atoms: C_9  and  C_10
REMARK   11  A    between atoms: C_16  and  C_21
REMARK   12  A    between atoms: C_28  and  C_29
REMARK   13  A    between atoms: C_28  and  C_30
REMARK                            x       y       z     vdW  Elec       q    Type
REMARK                         _______ _______ _______ _____ _____    ______ ____
ROOT
ATOM      1  C   UNL     1       4.612  -4.919   4.213  0.00  0.00    +0.094 A 
ATOM      2  N   UNL     1       5.578  -5.833   3.936  0.00  0.00    -0.312 N 
ATOM      3  H   UNL     1       5.380  -6.565   3.331  0.00  0.00    +0.170 HD
ATOM      4  C   UNL     1       6.803  -5.744   4.485  0.00  0.00    +0.260 A 
ATOM      5  O   UNL     1       7.659  -6.572   4.226  0.00  0.00    -0.267 OA
ATOM      6  C   UNL     1       7.087  -4.661   5.377  0.00  0.00    +0.080 A 
ATOM      7  C   UNL     1       8.321  -4.350   6.088  0.00  0.00    +0.005 A 
ATOM      8  C   UNL     1       8.354  -3.257   6.888  0.00  0.00    +0.056 A 
ATOM      9  S   UNL     1       6.713  -2.579   6.729  0.00  0.00    -0.076 S 
ATOM     10  C   UNL     1       6.028  -3.766   5.603  0.00  0.00    +0.116 A 
ATOM     11  N   UNL     1       4.842  -3.918   5.019  0.00  0.00    -0.229 NA
ENDROOT
BRANCH   7  12
ATOM     12  C   UNL     1       9.516  -5.213   5.939  0.00  0.00    +0.002 A 
ATOM     13  C   UNL     1      10.002  -5.931   7.031  0.00  0.00    +0.010 A 
ATOM     14  C   UNL     1      11.115  -6.734   6.886  0.00  0.00    +0.001 A 
ATOM     15  C   UNL     1      11.750  -6.827   5.660  0.00  0.00    +0.001 A 
ATOM     16  C   UNL     1      11.274  -6.118   4.573  0.00  0.00    +0.020 A 
ATOM     17  C   UNL     1      10.157  -5.316   4.704  0.00  0.00    +0.049 A 
ATOM     18 CL   UNL     1       9.556  -4.431   3.337  0.00  0.00    -0.083 Cl
ENDBRANCH   7  12
BRANCH   1  19
ATOM     19  C   UNL     1       3.255  -5.060   3.575  0.00  0.00    -0.003 C 
BRANCH  19  20
ATOM     20  N   UNL     1       2.336  -4.070   4.154  0.00  0.00    +0.388 N 
ATOM     21  H   UNL     1       2.831  -3.206   4.314  0.00  0.00    -0.081 HD
BRANCH  20  22
ATOM     22  C   UNL     1       1.810  -4.577   5.428  0.00  0.00    -0.074 C 
ATOM     23  C   UNL     1       1.062  -5.890   5.185  0.00  0.00    -0.014 C 
ATOM     24  C   UNL     1       2.969  -4.823   6.397  0.00  0.00    -0.014 C 
ENDBRANCH  20  22
BRANCH  20  25
ATOM     25  C   UNL     1       1.224  -3.832   3.225  0.00  0.00    -0.044 C 
BRANCH  25  26
ATOM     26  C   UNL     1       0.358  -2.685   3.749  0.00  0.00    +0.124 C 
BRANCH  26  27
ATOM     27  O   UNL     1      -0.324  -3.105   4.933  0.00  0.00    -0.391 OA
ATOM     28  H   UNL     1      -0.851  -3.908   4.819  0.00  0.00    +0.210 HD
ENDBRANCH  26  27
BRANCH  26  29
ATOM     29  C   UNL     1      -0.666  -2.290   2.684  0.00  0.00    +0.189 C 
BRANCH  29  30
ATOM     30  O   UNL     1      -1.397  -1.145   3.126  0.00  0.00    -0.378 OA
BRANCH  30  32
ATOM     31  C   UNL     1      -3.101   0.532   2.773  0.00  0.00    +0.034 C 
ATOM     32  C   UNL     1      -2.385  -0.692   2.199  0.00  0.00    +0.156 C 
ENDBRANCH  30  32
ENDBRANCH  29  30
ENDBRANCH  26  29
ENDBRANCH  25  26
ENDBRANCH  20  25
ENDBRANCH  19  20
ENDBRANCH   1  19
TORSDOF 10
