REMARK  Name = ZINC35196739
REMARK  10 active torsions:
REMARK  status: ('A' for Active; 'I' for Inactive)
REMARK    1  A    between atoms: C_1  and  C_2
REMARK    2  A    between atoms: C_2  and  C_4
REMARK    3  A    between atoms: C_2  and  N_12
REMARK    4  A    between atoms: C_4  and  C_5
REMARK    5  A    between atoms: C_5  and  C_6
REMARK    6  A    between atoms: C_13  and  C_15
REMARK    7  A    between atoms: C_19  and  C_28
REMARK    8  A    between atoms: C_22  and  C_24
REMARK    9  A    between atoms: C_25  and  C_26
REMARK   10  A    between atoms: C_25  and  C_27
REMARK                            x       y       z     vdW  Elec       q    Type
REMARK                         _______ _______ _______ _____ _____    ______ ____
ROOT
ATOM      1  C   UNL     1       0.907  -2.497   3.914  0.00  0.00    +0.173 C 
ATOM      2  C   UNL     1       2.249  -1.789   4.263  0.00  0.00    +0.103 C 
ATOM      3  S   UNL     1       2.182  -1.974   6.102  0.00  0.00    -0.136 S 
ATOM      4  C   UNL     1       0.348  -1.925   6.272  0.00  0.00    +0.138 C 
ATOM      5  N   UNL     1      -0.122  -2.167   4.896  0.00  0.00    -0.273 N 
ATOM      6  C   UNL     1      -1.426  -2.091   4.565  0.00  0.00    +0.241 C 
ATOM      7  O   UNL     1      -1.803  -2.494   3.481  0.00  0.00    -0.271 OA
ENDROOT
BRANCH   4   8
ATOM      8  C   UNL     1      -0.137  -3.026   7.217  0.00  0.00    +0.020 C 
ATOM      9  C   UNL     1      -1.667  -3.034   7.249  0.00  0.00    +0.006 C 
ATOM     10  C   UNL     1      -2.151  -4.136   8.194  0.00  0.00    +0.000 C 
ATOM     11  C   UNL     1      -1.613  -3.873   9.602  0.00  0.00    +0.000 C 
ATOM     12  C   UNL     1      -0.083  -3.865   9.570  0.00  0.00    +0.000 C 
ATOM     13  C   UNL     1       0.401  -2.764   8.625  0.00  0.00    +0.006 C 
ENDBRANCH   4   8
BRANCH   1  15
ATOM     14  N   UNL     1       0.756  -2.787   1.462  0.00  0.00    -0.311 N 
ATOM     15  C   UNL     1       0.451  -2.050   2.549  0.00  0.00    +0.235 C 
ATOM     16  O   UNL     1      -0.191  -1.028   2.428  0.00  0.00    -0.274 OA
ATOM     17  H   UNL     1       1.269  -3.604   1.559  0.00  0.00    +0.149 HD
BRANCH  14  19
ATOM     18  C   UNL     1       1.322  -1.355  -0.439  0.00  0.00    +0.028 C 
ATOM     19  C   UNL     1       0.313  -2.353   0.135  0.00  0.00    +0.070 C 
BRANCH  19  20
ATOM     20  C   UNL     1       0.212  -3.566  -0.791  0.00  0.00    +0.026 C 
BRANCH  20  21
ATOM     21  C   UNL     1      -0.885  -4.504  -0.285  0.00  0.00    +0.037 C 
BRANCH  21  22
ATOM     22  C   UNL     1      -0.984  -5.700  -1.197  0.00  0.00    -0.047 A 
ATOM     23  C   UNL     1      -1.830  -5.667  -2.290  0.00  0.00    +0.003 A 
ATOM     24  C   UNL     1      -1.921  -6.763  -3.127  0.00  0.00    +0.000 A 
ATOM     25  C   UNL     1      -1.166  -7.893  -2.871  0.00  0.00    +0.000 A 
ATOM     26  C   UNL     1      -0.319  -7.925  -1.779  0.00  0.00    +0.000 A 
ATOM     27  C   UNL     1      -0.225  -6.827  -0.945  0.00  0.00    +0.003 A 
ENDBRANCH  21  22
ENDBRANCH  20  21
ENDBRANCH  19  20
ENDBRANCH  14  19
ENDBRANCH   1  15
BRANCH   6  28
ATOM     28  C   UNL     1      -2.394  -1.521   5.514  0.00  0.00    +0.066 C 
ATOM     29  C   UNL     1      -3.697  -1.577   5.250  0.00  0.00    -0.071 C 
ATOM     30  C   UNL     1      -4.173  -2.064   3.906  0.00  0.00    +0.039 C 
ATOM     31  C   UNL     1      -4.696  -1.154   6.296  0.00  0.00    +0.039 C 
ENDBRANCH   6  28
TORSDOF 7
