REMARK  Name = ZINC67579377
REMARK  9 active torsions:
REMARK  status: ('A' for Active; 'I' for Inactive)
REMARK    1  A    between atoms: C_1  and  C_2
REMARK    2  A    between atoms: C_2  and  C_4
REMARK    3  A    between atoms: C_2  and  N_13
REMARK    4  A    between atoms: C_8  and  N_10
REMARK    5  A    between atoms: N_16  and  C_17
REMARK    6  A    between atoms: C_21  and  C_23
REMARK    7  A    between atoms: C_23  and  C_25
REMARK    8  A    between atoms: C_23  and  S_26
REMARK    9  A    between atoms: S_26  and  C_27
REMARK                            x       y       z     vdW  Elec       q    Type
REMARK                         _______ _______ _______ _____ _____    ______ ____
ROOT
ATOM      1  N   UNL     1       0.711  -0.484   1.191  0.00  0.00    -0.293 N 
ATOM      2  C   UNL     1       2.054  -0.602   1.173  0.00  0.00    +0.304 C 
ATOM      3  O   UNL     1       2.676  -0.306   0.172  0.00  0.00    -0.252 OA
ATOM      4  N   UNL     1       2.706  -1.046   2.266  0.00  0.00    -0.269 N 
ATOM      5  H   UNL     1       0.214  -0.719   1.990  0.00  0.00    +0.151 HD
ATOM      6  H   UNL     1       2.217  -1.218   3.086  0.00  0.00    +0.156 HD
ENDROOT
BRANCH   4   7
ATOM      7  C   UNL     1       4.088  -1.260   2.217  0.00  0.00    +0.035 A 
ATOM      8  C   UNL     1       4.655  -2.311   2.927  0.00  0.00    +0.023 A 
ATOM      9  C   UNL     1       6.019  -2.520   2.876  0.00  0.00    +0.002 A 
ATOM     10  C   UNL     1       6.820  -1.684   2.119  0.00  0.00    +0.005 A 
ATOM     11  C   UNL     1       6.259  -0.638   1.411  0.00  0.00    -0.033 A 
ATOM     12  C   UNL     1       4.894  -0.427   1.453  0.00  0.00    +0.028 A 
BRANCH  11  13
ATOM     13  C   UNL     1       7.136   0.270   0.588  0.00  0.00    +0.073 C 
ATOM     14  C   UNL     1       7.862  -0.551  -0.479  0.00  0.00    +0.024 C 
BRANCH  13  15
ATOM     15  S   UNL     1       8.354   1.073   1.666  0.00  0.00    -0.156 S 
ATOM     16  C   UNL     1       9.217   2.230   0.567  0.00  0.00    +0.085 C 
ENDBRANCH  13  15
ENDBRANCH  11  13
ENDBRANCH   4   7
BRANCH   1  18
ATOM     17  C   UNL     1      -0.011   1.530   0.005  0.00  0.00    +0.033 C 
ATOM     18  C   UNL     1       0.002  -0.000   0.004  0.00  0.00    +0.102 C 
BRANCH  18  19
ATOM     19  C   UNL     1      -1.414  -0.514   0.020  0.00  0.00    -0.025 A 
ATOM     20  C   UNL     1      -2.123  -0.550   1.207  0.00  0.00    +0.005 A 
ATOM     21  C   UNL     1      -3.422  -1.022   1.222  0.00  0.00    +0.003 A 
ATOM     22  C   UNL     1      -4.013  -1.457   0.051  0.00  0.00    +0.033 A 
ATOM     23  C   UNL     1      -3.305  -1.420  -1.136  0.00  0.00    +0.127 A 
ATOM     24  C   UNL     1      -2.007  -0.945  -1.152  0.00  0.00    +0.038 A 
BRANCH  23  25
ATOM     25  N   UNL     1      -3.938  -1.887  -2.390  0.00  0.00    +0.056 N 
ATOM     26  O   UNL     1      -5.074  -2.300  -2.377  0.00  0.00    -0.126 OA
ATOM     27  O   UNL     1      -3.319  -1.855  -3.428  0.00  0.00    -0.126 OA
ENDBRANCH  23  25
ENDBRANCH  18  19
ENDBRANCH   1  18
TORSDOF 6
