REMARK  Name = ZINC35759227
REMARK  10 active torsions:
REMARK  status: ('A' for Active; 'I' for Inactive)
REMARK    1  A    between atoms: C_1  and  C_2
REMARK    2  A    between atoms: C_2  and  N_3
REMARK    3  A    between atoms: N_3  and  C_4
REMARK    4  A    between atoms: C_4  and  C_5
REMARK    5  A    between atoms: C_6  and  C_8
REMARK    6  A    between atoms: C_8  and  N_9
REMARK    7  A    between atoms: N_11  and  C_32
REMARK    8  A    between atoms: N_17  and  S_20
REMARK    9  A    between atoms: S_20  and  C_23
REMARK   10  A    between atoms: C_26  and  N_29
REMARK                            x       y       z     vdW  Elec       q    Type
REMARK                         _______ _______ _______ _____ _____    ______ ____
ROOT
ATOM      1  N   UNL     1      -3.951  -1.478   2.549  0.00  0.00    -0.275 N 
ATOM      2  C   UNL     1      -3.852  -2.723   3.311  0.00  0.00    +0.217 C 
ATOM      3  N   UNL     1      -4.261  -2.445   4.693  0.00  0.00    -0.300 N 
ATOM      4  C   UNL     1      -4.602  -1.017   4.731  0.00  0.00    +0.115 C 
ATOM      5  C   UNL     1      -4.374  -0.480   3.342  0.00  0.00    +0.241 C 
ATOM      6  O   UNL     1      -4.547   0.669   2.995  0.00  0.00    -0.273 OA
ATOM      7  C   UNL     1      -3.694  -0.292   5.724  0.00  0.00    +0.052 C 
ATOM      8  C   UNL     1      -3.893  -0.887   7.122  0.00  0.00    +0.112 C 
ATOM      9  N   UNL     1      -5.323  -0.841   7.457  0.00  0.00    -0.176 NA
ATOM     10  C   UNL     1      -6.287  -1.443   6.525  0.00  0.00    +0.112 C 
ATOM     11  C   UNL     1      -6.067  -0.843   5.132  0.00  0.00    +0.052 C 
ENDROOT
BRANCH   3  12
ATOM     12  C   UNL     1      -4.316  -3.352   5.754  0.00  0.00    +0.032 A 
ATOM     13  C   UNL     1      -3.877  -4.658   5.576  0.00  0.00    +0.023 A 
ATOM     14  C   UNL     1      -3.931  -5.552   6.627  0.00  0.00    +0.002 A 
ATOM     15  C   UNL     1      -4.422  -5.149   7.855  0.00  0.00    +0.000 A 
ATOM     16  C   UNL     1      -4.860  -3.849   8.036  0.00  0.00    +0.002 A 
ATOM     17  C   UNL     1      -4.803  -2.949   6.990  0.00  0.00    +0.023 A 
ENDBRANCH   3  12
BRANCH   9  18
ATOM     18  S   UNL     1      -5.839  -0.124   8.857  0.00  0.00    +0.061 S 
ATOM     19  O   UNL     1      -7.099  -0.703   9.170  0.00  0.00    -0.153 OA
ATOM     20  O   UNL     1      -4.741  -0.156   9.759  0.00  0.00    -0.153 OA
BRANCH  18  21
ATOM     21  C   UNL     1      -6.142   1.573   8.493  0.00  0.00    +0.106 A 
ATOM     22  C   UNL     1      -5.126   2.501   8.628  0.00  0.00    +0.031 A 
ATOM     23  C   UNL     1      -5.364   3.832   8.342  0.00  0.00    +0.034 A 
ATOM     24  C   UNL     1      -6.617   4.236   7.922  0.00  0.00    +0.126 A 
ATOM     25  C   UNL     1      -7.633   3.308   7.786  0.00  0.00    +0.034 A 
ATOM     26  C   UNL     1      -7.394   1.976   8.068  0.00  0.00    +0.031 A 
BRANCH  24  27
ATOM     27  N   UNL     1      -6.872   5.662   7.617  0.00  0.00    +0.056 N 
ATOM     28  O   UNL     1      -5.984   6.474   7.736  0.00  0.00    -0.126 OA
ATOM     29  O   UNL     1      -7.968   6.015   7.249  0.00  0.00    -0.126 OA
ENDBRANCH  24  27
ENDBRANCH  18  21
ENDBRANCH   9  18
BRANCH   1  30
ATOM     30  C   UNL     1      -3.628  -1.339   1.127  0.00  0.00    +0.205 C 
BRANCH  30  32
ATOM     31  N   UNL     1      -1.646  -0.806  -0.254  0.00  0.00    -0.301 N 
ATOM     32  C   UNL     1      -2.171  -0.985   0.975  0.00  0.00    +0.233 C 
ATOM     33  O   UNL     1      -1.471  -0.862   1.957  0.00  0.00    -0.274 OA
BRANCH  31  35
ATOM     34  C   UNL     1      -0.070   1.059  -0.391  0.00  0.00    +0.024 C 
ATOM     35  C   UNL     1      -0.230  -0.463  -0.402  0.00  0.00    +0.104 C 
ENDBRANCH  31  35
BRANCH  31  36
ATOM     36  C   UNL     1      -2.492  -0.954  -1.441  0.00  0.00    +0.104 C 
ATOM     37  C   UNL     1      -2.453  -2.408  -1.916  0.00  0.00    +0.024 C 
ENDBRANCH  31  36
ENDBRANCH  30  32
ENDBRANCH   1  30
TORSDOF 8
