REMARK  Name = ZINC57350263
REMARK  10 active torsions:
REMARK  status: ('A' for Active; 'I' for Inactive)
REMARK    1  A    between atoms: C_1  and  C_2
REMARK    2  A    between atoms: C_2  and  C_3
REMARK    3  A    between atoms: C_2  and  C_4
REMARK    4  A    between atoms: C_2  and  C_5
REMARK    5  A    between atoms: C_12  and  N_16
REMARK    6  A    between atoms: C_13  and  C_14
REMARK    7  A    between atoms: C_17  and  C_19
REMARK    8  A    between atoms: C_19  and  C_21
REMARK    9  A    between atoms: C_19  and  O_28
REMARK   10  A    between atoms: O_28  and  C_29
REMARK                            x       y       z     vdW  Elec       q    Type
REMARK                         _______ _______ _______ _____ _____    ______ ____
ROOT
ATOM      1  C   UNL     1       0.718  -0.497  -1.257  0.00  0.00    -0.000 C 
ATOM      2  C   UNL     1      -0.017   0.013  -2.499  0.00  0.00    +0.009 C 
ATOM      3  C   UNL     1       0.537  -0.670  -3.751  0.00  0.00    +0.037 C 
ATOM      4  C   UNL     1       2.051  -0.516  -3.760  0.00  0.00    -0.018 A 
ATOM      5  C   UNL     1       2.731  -0.199  -2.636  0.00  0.00    -0.004 A 
ATOM      6  S   UNL     1       4.425  -0.135  -3.141  0.00  0.00    -0.077 S 
ATOM      7  C   UNL     1       4.253  -0.511  -4.769  0.00  0.00    +0.090 A 
ATOM      8  C   UNL     1       2.889  -0.688  -4.933  0.00  0.00    +0.084 A 
ATOM      9  C   UNL     1       2.158   0.038  -1.273  0.00  0.00    +0.047 C 
ENDROOT
BRANCH   1  11
ATOM     10  C   UNL     1      -0.019   1.526   0.010  0.00  0.00    +0.011 C 
ATOM     11  C   UNL     1       0.002  -0.004   0.002  0.00  0.00    -0.035 C 
ATOM     12  C   UNL     1       0.742  -0.511   1.242  0.00  0.00    +0.011 C 
ATOM     13  C   UNL     1      -1.433  -0.534   0.013  0.00  0.00    +0.011 C 
ENDBRANCH   1  11
BRANCH   7  14
ATOM     14  N   UNL     1       5.250  -0.620  -5.729  0.00  0.00    -0.277 N 
ATOM     15  C   UNL     1       6.537  -0.412  -5.391  0.00  0.00    +0.251 C 
ATOM     16  O   UNL     1       6.826  -0.131  -4.247  0.00  0.00    -0.272 OA
ATOM     17  H   UNL     1       5.019  -0.845  -6.644  0.00  0.00    +0.155 HD
BRANCH  15  18
ATOM     18  C   UNL     1       7.619  -0.530  -6.433  0.00  0.00    +0.235 C 
BRANCH  18  19
ATOM     19  C   UNL     1       7.436   0.548  -7.471  0.00  0.00    +0.008 A 
ATOM     20  C   UNL     1       8.135   1.736  -7.363  0.00  0.00    +0.008 A 
ATOM     21  C   UNL     1       7.968   2.724  -8.315  0.00  0.00    +0.000 A 
ATOM     22  C   UNL     1       7.102   2.526  -9.374  0.00  0.00    +0.001 A 
ATOM     23  C   UNL     1       6.403   1.339  -9.482  0.00  0.00    +0.020 A 
ATOM     24  C   UNL     1       6.574   0.346  -8.533  0.00  0.00    +0.047 A 
ATOM     25 CL   UNL     1       5.701  -1.148  -8.672  0.00  0.00    -0.083 Cl
ENDBRANCH  18  19
BRANCH  18  26
ATOM     26  O   UNL     1       8.898  -0.382  -5.812  0.00  0.00    -0.366 OA
ATOM     27  C   UNL     1       9.947  -1.102  -6.463  0.00  0.00    +0.195 C 
ENDBRANCH  18  26
ENDBRANCH  15  18
ENDBRANCH   7  14
BRANCH   8  28
ATOM     28  C   UNL     1       2.329  -1.028  -6.206  0.00  0.00    +0.102 C 
ATOM     29  N   UNL     1       1.885  -1.297  -7.217  0.00  0.00    -0.191 NA
ENDBRANCH   8  28
TORSDOF 6
