REMARK  Name = ZINC39606494
REMARK  10 active torsions:
REMARK  status: ('A' for Active; 'I' for Inactive)
REMARK    1  A    between atoms: C_1  and  C_2
REMARK    2  A    between atoms: C_2  and  C_3
REMARK    3  A    between atoms: C_3  and  C_5
REMARK    4  A    between atoms: C_3  and  C_6
REMARK    5  A    between atoms: C_6  and  N_7
REMARK    6  A    between atoms: C_8  and  C_10
REMARK    7  A    between atoms: C_21  and  C_23
REMARK    8  A    between atoms: C_24  and  C_34
REMARK    9  A    between atoms: C_27  and  C_28
REMARK   10  A    between atoms: C_30  and  C_33
REMARK                            x       y       z     vdW  Elec       q    Type
REMARK                         _______ _______ _______ _____ _____    ______ ____
ROOT
ATOM      1  C   UNL     1       2.697  -4.272  -3.689  0.00  0.00    +0.100 C 
ATOM      2  C   UNL     1       4.091  -3.605  -3.686  0.00  0.00    +0.121 C 
ATOM      3  N   UNL     1       4.972  -4.581  -3.003  0.00  0.00    -0.296 N 
ATOM      4  C   UNL     1       4.516  -5.901  -3.502  0.00  0.00    +0.115 C 
ATOM      5  C   UNL     1       2.981  -5.779  -3.572  0.00  0.00    -0.004 C 
ATOM      6  C   UNL     1       2.350  -6.338  -2.300  0.00  0.00    -0.010 C 
ATOM      7  C   UNL     1       2.597  -7.848  -2.234  0.00  0.00    -0.082 C 
ATOM      8  N   UNL     1       2.015  -8.492  -3.417  0.00  0.00    +0.379 N 
ATOM      9  C   UNL     1       2.691  -8.018  -4.630  0.00  0.00    -0.082 C 
ATOM     10  C   UNL     1       2.448  -6.515  -4.797  0.00  0.00    -0.010 C 
ATOM     11  C   UNL     1       5.964  -4.327  -2.127  0.00  0.00    +0.252 C 
ATOM     12  O   UNL     1       6.603  -5.245  -1.649  0.00  0.00    -0.270 OA
ATOM     13  H   UNL     1       2.125  -9.493  -3.342  0.00  0.00    -0.086 HD
ATOM     14  H   UNL     1       1.032  -8.268  -3.471  0.00  0.00    -0.086 HD
ENDROOT
BRANCH  11  15
ATOM     15  C   UNL     1       6.274  -2.938  -1.748  0.00  0.00    +0.108 A 
ATOM     16  C   UNL     1       5.711  -2.216  -0.666  0.00  0.00    +0.093 A 
ATOM     17  N   UNL     1       6.234  -1.027  -0.657  0.00  0.00    -0.082 NA
ATOM     18  O   UNL     1       7.154  -0.922  -1.726  0.00  0.00    -0.352 OA
ATOM     19  C   UNL     1       7.175  -2.094  -2.381  0.00  0.00    +0.201 A 
ATOM     20  C   UNL     1       4.684  -2.738   0.305  0.00  0.00    +0.070 C 
BRANCH  19  21
ATOM     21  C   UNL     1       8.004  -2.424  -3.561  0.00  0.00    +0.152 A 
ATOM     22  C   UNL     1       8.928  -1.560  -4.200  0.00  0.00    +0.079 A 
ATOM     23  C   UNL     1       9.478  -2.228  -5.229  0.00  0.00    +0.135 A 
ATOM     24  O   UNL     1       8.947  -3.459  -5.264  0.00  0.00    -0.359 OA
ATOM     25  N   UNL     1       8.020  -3.570  -4.200  0.00  0.00    -0.075 NA
ATOM     26  C   UNL     1      10.514  -1.686  -6.180  0.00  0.00    +0.089 C 
ENDBRANCH  19  21
ENDBRANCH  11  15
BRANCH   1  28
ATOM     27  N   UNL     1       0.539  -3.841  -2.560  0.00  0.00    -0.315 N 
ATOM     28  C   UNL     1       1.885  -3.797  -2.512  0.00  0.00    +0.218 C 
ATOM     29  O   UNL     1       2.443  -3.377  -1.521  0.00  0.00    -0.275 OA
ATOM     30  H   UNL     1       0.093  -4.178  -3.353  0.00  0.00    +0.149 HD
BRANCH  27  31
ATOM     31  C   UNL     1      -0.250  -3.379  -1.415  0.00  0.00    +0.107 C 
BRANCH  31  32
ATOM     32  C   UNL     1      -1.740  -3.534  -1.727  0.00  0.00    +0.003 C 
ATOM     33  C   UNL     1      -2.077  -5.019  -1.879  0.00  0.00    +0.009 C 
BRANCH  32  35
ATOM     34  C   UNL     1      -4.050  -2.981  -0.952  0.00  0.00    +0.004 C 
ATOM     35  C   UNL     1      -2.565  -2.938  -0.585  0.00  0.00    +0.001 C 
ENDBRANCH  32  35
ENDBRANCH  31  32
ENDBRANCH  27  31
ENDBRANCH   1  28
TORSDOF 6
