REMARK  Name = ZINC38650446
REMARK  9 active torsions:
REMARK  status: ('A' for Active; 'I' for Inactive)
REMARK    1  A    between atoms: C_1  and  C_2
REMARK    2  A    between atoms: C_2  and  O_3
REMARK    3  A    between atoms: O_3  and  C_4
REMARK    4  A    between atoms: C_9  and  C_10
REMARK    5  A    between atoms: C_15  and  O_24
REMARK    6  A    between atoms: C_19  and  N_23
REMARK    7  A    between atoms: C_20  and  C_21
REMARK    8  A    between atoms: O_24  and  C_25
REMARK    9  A    between atoms: C_25  and  C_27
REMARK                            x       y       z     vdW  Elec       q    Type
REMARK                         _______ _______ _______ _____ _____    ______ ____
ROOT
ATOM      1  C   UNL     1       2.001  -1.342  -3.457  0.00  0.00    +0.101 C 
ATOM      2  C   UNL     1       3.481  -1.593  -3.577  0.00  0.00    +0.008 A 
ATOM      3  C   UNL     1       4.345  -1.021  -2.660  0.00  0.00    +0.012 A 
ATOM      4  C   UNL     1       5.705  -1.239  -2.755  0.00  0.00    +0.047 A 
ATOM      5  C   UNL     1       6.210  -2.036  -3.773  0.00  0.00    +0.135 A 
ATOM      6  C   UNL     1       5.348  -2.610  -4.692  0.00  0.00    +0.093 A 
ATOM      7  C   UNL     1       3.980  -2.390  -4.596  0.00  0.00    +0.138 A 
ATOM      8  O   UNL     1       3.150  -2.959  -5.503  0.00  0.00    -0.441 OA
ATOM      9  C   UNL     1       1.910  -2.471  -5.676  0.00  0.00    +0.199 C 
ATOM     10  C   UNL     1       1.311  -1.700  -4.743  0.00  0.00    +0.098 C 
ENDROOT
BRANCH   1  16
ATOM     11  C   UNL     1       0.828  -1.577  -1.253  0.00  0.00    +0.125 A 
ATOM     12  C   UNL     1       0.309  -2.355  -0.228  0.00  0.00    +0.046 A 
ATOM     13  C   UNL     1       0.409  -3.732  -0.289  0.00  0.00    +0.004 A 
ATOM     14  C   UNL     1       1.026  -4.334  -1.370  0.00  0.00    +0.001 A 
ATOM     15  C   UNL     1       1.545  -3.561  -2.392  0.00  0.00    +0.008 A 
ATOM     16  C   UNL     1       1.442  -2.184  -2.339  0.00  0.00    +0.007 A 
BRANCH  11  17
ATOM     17  O   UNL     1       0.730  -0.223  -1.196  0.00  0.00    -0.492 OA
BRANCH  17  19
ATOM     18  C   UNL     1       0.069   1.859  -0.161  0.00  0.00    +0.048 C 
ATOM     19  C   UNL     1       0.085   0.333  -0.049  0.00  0.00    +0.225 C 
ENDBRANCH  17  19
ENDBRANCH  11  17
ENDBRANCH   1  16
BRANCH   9  20
ATOM     20  N   UNL     1       1.233  -2.766  -6.833  0.00  0.00    -0.328 N 
ATOM     21  H   UNL     1       1.651  -3.319  -7.512  0.00  0.00    +0.145 HD
ATOM     22  H   UNL     1       0.338  -2.421  -6.973  0.00  0.00    +0.145 HD
ENDBRANCH   9  20
BRANCH  10  23
ATOM     23  C   UNL     1      -0.013  -1.212  -4.987  0.00  0.00    +0.101 C 
ATOM     24  N   UNL     1      -1.064  -0.825  -5.181  0.00  0.00    -0.191 NA
ENDBRANCH  10  23
BRANCH   5  25
ATOM     25  O   UNL     1       7.549  -2.251  -3.868  0.00  0.00    -0.422 OA
BRANCH  25  26
ATOM     26  C   UNL     1       8.137  -3.007  -2.920  0.00  0.00    +0.344 C 
ATOM     27  O   UNL     1       7.459  -3.559  -2.076  0.00  0.00    -0.245 OA
BRANCH  26  28
ATOM     28  C   UNL     1       9.605  -3.166  -2.908  0.00  0.00    +0.059 A 
ATOM     29  C   UNL     1      10.387  -2.528  -3.873  0.00  0.00    +0.016 A 
ATOM     30  C   UNL     1      11.758  -2.680  -3.856  0.00  0.00    +0.016 A 
ATOM     31  C   UNL     1      12.358  -3.463  -2.884  0.00  0.00    +0.018 A 
ATOM     32  C   UNL     1      11.588  -4.098  -1.924  0.00  0.00    +0.016 A 
ATOM     33  C   UNL     1      10.217  -3.949  -1.927  0.00  0.00    +0.016 A 
ATOM     34 BR   UNL     1      14.238  -3.666  -2.867  0.00  0.00    -0.050 Br
ENDBRANCH  26  28
ENDBRANCH  25  26
ENDBRANCH   5  25
TORSDOF 8
