REMARK  Name = ZINC09233694
REMARK  4 active torsions:
REMARK  status: ('A' for Active; 'I' for Inactive)
REMARK    1  A    between atoms: C_6  and  N_7
REMARK    2  A    between atoms: C_8  and  C_10
REMARK    3  A    between atoms: C_10  and  N_11
REMARK    4  A    between atoms: C_15  and  C_16
REMARK                            x       y       z     vdW  Elec       q    Type
REMARK                         _______ _______ _______ _____ _____    ______ ____
ROOT
ATOM      1  C   UNL     1      -1.401   2.027   0.119  0.00  0.00    +0.213 C 
ENDROOT
BRANCH   1   2
ATOM      2  N   UNL     1      -2.493   1.051   0.090  0.00  0.00    -0.219 N 
ATOM      3  C   UNL     1      -2.999   0.676  -1.072  0.00  0.00    +0.261 C 
ATOM      4  O   UNL     1      -2.572   1.130  -2.119  0.00  0.00    -0.269 OA
ATOM      5  C   UNL     1      -4.059  -0.281  -1.064  0.00  0.00    +0.083 C 
ATOM      6  C   UNL     1      -4.742  -0.829  -2.110  0.00  0.00    +0.066 C 
ATOM      7  S   UNL     1      -4.251  -0.562   0.691  0.00  0.00    -0.026 S 
ATOM      8  C   UNL     1      -2.971   0.551   1.251  0.00  0.00    +0.286 C 
ATOM      9  O   UNL     1      -2.618   0.797   2.389  0.00  0.00    -0.262 OA
BRANCH   6  10
ATOM     10  C   UNL     1      -4.318  -0.584  -3.436  0.00  0.00    +0.130 A 
ATOM     11  C   UNL     1      -4.847  -1.153  -4.577  0.00  0.00    +0.050 A 
ATOM     12  C   UNL     1      -4.126  -0.625  -5.658  0.00  0.00    +0.056 A 
ATOM     13  C   UNL     1      -3.207   0.226  -5.148  0.00  0.00    +0.165 A 
ATOM     14  O   UNL     1      -3.328   0.253  -3.813  0.00  0.00    -0.450 OA
ATOM     15  I   UNL     1      -1.821   1.332  -6.265  0.00  0.00    -0.001 I 
ENDBRANCH   6  10
ENDBRANCH   1   2
BRANCH   1  17
ATOM     16  N   UNL     1       1.072   2.006   0.074  0.00  0.00    -0.284 N 
ATOM     17  C   UNL     1      -0.079   1.305   0.064  0.00  0.00    +0.235 C 
ATOM     18  O   UNL     1      -0.052   0.094   0.005  0.00  0.00    -0.274 OA
ATOM     19  H   UNL     1       1.050   2.975   0.056  0.00  0.00    +0.155 HD
BRANCH  16  25
ATOM     20  C   UNL     1       3.368   1.876   0.812  0.00  0.00    +0.027 A 
ATOM     21  C   UNL     1       4.580   1.211   0.853  0.00  0.00    +0.051 A 
ATOM     22  C   UNL     1       4.734   0.007   0.187  0.00  0.00    +0.166 A 
ATOM     23  C   UNL     1       3.666  -0.538  -0.523  0.00  0.00    +0.168 A 
ATOM     24  C   UNL     1       2.452   0.126  -0.559  0.00  0.00    +0.072 A 
ATOM     25  C   UNL     1       2.301   1.333   0.111  0.00  0.00    +0.037 A 
ATOM     26  O   UNL     1       4.070  -1.715  -1.084  0.00  0.00    -0.453 OA
ATOM     27  C   UNL     1       5.267  -2.088  -0.376  0.00  0.00    +0.466 C 
ATOM     28  O   UNL     1       5.808  -0.830   0.069  0.00  0.00    -0.453 OA
ENDBRANCH  16  25
ENDBRANCH   1  17
TORSDOF 4
