REMARK  Name = ZINC32593009
REMARK  8 active torsions:
REMARK  status: ('A' for Active; 'I' for Inactive)
REMARK    1  A    between atoms: C_6  and  C_7
REMARK    2  A    between atoms: N_8  and  N_9
REMARK    3  A    between atoms: C_10  and  C_12
REMARK    4  A    between atoms: C_12  and  O_13
REMARK    5  A    between atoms: O_13  and  C_14
REMARK    6  A    between atoms: C_14  and  C_15
REMARK    7  A    between atoms: N_17  and  N_18
REMARK    8  A    between atoms: C_19  and  C_20
REMARK                            x       y       z     vdW  Elec       q    Type
REMARK                         _______ _______ _______ _____ _____    ______ ____
ROOT
ATOM      1  O   UNL     1       3.612   5.649   1.070  0.00  0.00    -0.361 OA
ENDROOT
BRANCH   1   2
ATOM      2  C   UNL     1       3.732   7.058   1.277  0.00  0.00    +0.257 C 
BRANCH   2   4
ATOM      3  N   UNL     1       5.540   8.701   1.666  0.00  0.00    -0.205 N 
ATOM      4  C   UNL     1       5.184   7.418   1.456  0.00  0.00    +0.258 C 
ATOM      5  O   UNL     1       6.033   6.553   1.411  0.00  0.00    -0.272 OA
ATOM      6  H   UNL     1       4.770   9.485   1.707  0.00  0.00    +0.177 HD
BRANCH   3   8
ATOM      7  C   UNL     1       7.233  10.270   2.035  0.00  0.00    +0.138 C 
ATOM      8  N   UNL     1       6.890   9.035   1.833  0.00  0.00    -0.188 NA
BRANCH   7  14
ATOM      9  C   UNL     1       9.634   9.627   2.165  0.00  0.00    +0.010 A 
ATOM     10  C   UNL     1      10.962   9.964   2.325  0.00  0.00    +0.016 A 
ATOM     11  C   UNL     1      11.324  11.283   2.541  0.00  0.00    +0.018 A 
ATOM     12  C   UNL     1      10.357  12.273   2.592  0.00  0.00    +0.016 A 
ATOM     13  C   UNL     1       9.026  11.951   2.428  0.00  0.00    +0.010 A 
ATOM     14  C   UNL     1       8.654  10.622   2.210  0.00  0.00    -0.005 A 
ATOM     15 BR   UNL     1      13.146  11.733   2.768  0.00  0.00    -0.050 Br
ENDBRANCH   7  14
ENDBRANCH   3   8
ENDBRANCH   2   4
ENDBRANCH   1   2
BRANCH   1  16
ATOM     16  C   UNL     1       2.267   5.201   0.888  0.00  0.00    +0.257 C 
BRANCH  16  17
ATOM     17  C   UNL     1       2.259   3.708   0.680  0.00  0.00    +0.258 C 
ATOM     18  O   UNL     1       3.303   3.090   0.686  0.00  0.00    -0.272 OA
ATOM     19  N   UNL     1       1.093   3.061   0.486  0.00  0.00    -0.205 N 
ATOM     20  H   UNL     1       0.147   3.623   0.480  0.00  0.00    +0.177 HD
BRANCH  19  21
ATOM     21  N   UNL     1       1.086   1.674   0.292  0.00  0.00    -0.188 NA
ATOM     22  C   UNL     1      -0.019   1.068  -0.018  0.00  0.00    +0.138 C 
BRANCH  22  23
ATOM     23  C   UNL     1      -1.140   1.830  -0.600  0.00  0.00    -0.005 A 
ATOM     24  C   UNL     1      -2.429   1.293  -0.597  0.00  0.00    +0.010 A 
ATOM     25  C   UNL     1      -3.474   2.014  -1.137  0.00  0.00    +0.016 A 
ATOM     26  C   UNL     1      -3.244   3.261  -1.693  0.00  0.00    +0.018 A 
ATOM     27  C   UNL     1      -1.967   3.796  -1.705  0.00  0.00    +0.016 A 
ATOM     28  C   UNL     1      -0.915   3.089  -1.162  0.00  0.00    +0.010 A 
ATOM     29 BR   UNL     1      -4.681   4.238  -2.440  0.00  0.00    -0.050 Br
ENDBRANCH  22  23
ENDBRANCH  19  21
ENDBRANCH  16  17
ENDBRANCH   1  16
TORSDOF 8
