REMARK  Name = ZINC39206544
REMARK  6 active torsions:
REMARK  status: ('A' for Active; 'I' for Inactive)
REMARK    1  A    between atoms: C_1  and  C_2
REMARK    2  A    between atoms: C_2  and  C_3
REMARK    3  A    between atoms: C_3  and  C_4
REMARK    4  A    between atoms: C_6  and  C_18
REMARK    5  A    between atoms: C_8  and  C_16
REMARK    6  A    between atoms: C_9  and  N_15
REMARK                            x       y       z     vdW  Elec       q    Type
REMARK                         _______ _______ _______ _____ _____    ______ ____
ROOT
ATOM      1  C   UNL     1       1.154  -1.801   1.607  0.00  0.00    +0.069 C 
ATOM      2  C   UNL     1       2.059  -2.535   1.006  0.00  0.00    +0.030 C 
ATOM      3  C   UNL     1       3.219  -2.216   0.102  0.00  0.00    +0.098 C 
ATOM      4  C   UNL     1       3.179  -3.265  -0.994  0.00  0.00    +0.097 C 
ATOM      5  C   UNL     1       2.350  -4.327  -0.930  0.00  0.00    +0.195 C 
ATOM      6  O   UNL     1       1.461  -4.595   0.043  0.00  0.00    -0.448 OA
ATOM      7  C   UNL     1       1.670  -3.980   1.317  0.00  0.00    +0.343 C 
ATOM      8  N   UNL     1       0.418  -3.806   2.061  0.00  0.00    -0.138 NA
ATOM      9  N   UNL     1       0.224  -2.592   2.201  0.00  0.00    -0.155 NA
ENDROOT
BRANCH   3  10
ATOM     10  C   UNL     1       3.058  -0.838  -0.485  0.00  0.00    -0.034 A 
ATOM     11  C   UNL     1       2.030  -0.580  -1.373  0.00  0.00    +0.004 A 
ATOM     12  C   UNL     1       1.883   0.685  -1.911  0.00  0.00    +0.001 A 
ATOM     13  C   UNL     1       2.764   1.692  -1.562  0.00  0.00    +0.014 A 
ATOM     14  C   UNL     1       3.792   1.434  -0.674  0.00  0.00    +0.014 A 
ATOM     15  C   UNL     1       3.936   0.170  -0.131  0.00  0.00    +0.019 A 
ATOM     16  I   UNL     1       5.127   2.959  -0.145  0.00  0.00    -0.044 I 
ENDBRANCH   3  10
BRANCH   5  17
ATOM     17  N   UNL     1       2.421  -5.227  -1.964  0.00  0.00    -0.329 N 
ATOM     18  H   UNL     1       3.046  -5.081  -2.691  0.00  0.00    +0.145 HD
ATOM     19  H   UNL     1       1.847  -6.009  -1.967  0.00  0.00    +0.145 HD
ENDBRANCH   5  17
BRANCH   4  20
ATOM     20  C   UNL     1       4.043  -3.122  -2.127  0.00  0.00    +0.101 C 
ATOM     21  N   UNL     1       4.729  -3.009  -3.025  0.00  0.00    -0.191 NA
ENDBRANCH   4  20
BRANCH   1  22
ATOM     22  C   UNL     1       1.150  -0.294   1.640  0.00  0.00    +0.057 C 
BRANCH  22  24
ATOM     23  C   UNL     1       2.017   1.720   2.838  0.00  0.00    +0.004 C 
ATOM     24  C   UNL     1       1.938   0.192   2.858  0.00  0.00    +0.003 C 
ENDBRANCH  22  24
ENDBRANCH   1  22
TORSDOF 5
