REMARK  Name = ZINC63182556
REMARK  4 active torsions:
REMARK  status: ('A' for Active; 'I' for Inactive)
REMARK    1  A    between atoms: N_21  and  C_22
REMARK    2  A    between atoms: C_22  and  C_23
REMARK    3  A    between atoms: C_23  and  C_24
REMARK    4  A    between atoms: C_24  and  O_25
REMARK                            x       y       z     vdW  Elec       q    Type
REMARK                         _______ _______ _______ _____ _____    ______ ____
ROOT
ATOM      1  C   UNL     1      -0.017   1.378   0.010  0.00  0.00    +0.000 A 
ATOM      2  C   UNL     1       1.166   2.099   0.002  0.00  0.00    +0.001 A 
ATOM      3  C   UNL     1       2.375   1.436  -0.007  0.00  0.00    +0.010 A 
ATOM      4  C   UNL     1       2.399   0.038  -0.012  0.00  0.00    -0.002 A 
ATOM      5  C   UNL     1       1.204  -0.689  -0.015  0.00  0.00    -0.038 A 
ATOM      6  C   UNL     1       0.002  -0.004   0.002  0.00  0.00    +0.004 A 
ATOM      7  C   UNL     1       1.184  -2.193  -0.049  0.00  0.00    +0.043 C 
ATOM      8  C   UNL     1       2.511  -2.790   0.404  0.00  0.00    -0.009 C 
ATOM      9  C   UNL     1       2.511  -4.311   0.161  0.00  0.00    +0.008 C 
ATOM     10  C   UNL     1       3.275  -4.889   1.378  0.00  0.00    +0.001 C 
ATOM     11  C   UNL     1       2.800  -3.985   2.543  0.00  0.00    +0.001 C 
ATOM     12  C   UNL     1       2.698  -2.580   1.914  0.00  0.00    +0.008 C 
ATOM     13  C   UNL     1       3.663  -2.145  -0.361  0.00  0.00    +0.131 C 
ATOM     14  C   UNL     1       3.684  -0.678  -0.009  0.00  0.00    +0.038 C 
ATOM     15  N   UNL     1       4.795  -0.073   0.295  0.00  0.00    -0.332 N 
ATOM     16  C   UNL     1       5.954  -0.734   0.421  0.00  0.00    +0.185 C 
ATOM     17  N   UNL     1       6.030  -2.050   0.304  0.00  0.00    -0.149 NA
ATOM     18  C   UNL     1       4.979  -2.775  -0.025  0.00  0.00    +0.248 C 
ATOM     19  O   UNL     1       5.089  -3.985  -0.064  0.00  0.00    -0.273 OA
ATOM     20  N   UNL     1       7.096  -0.026   0.680  0.00  0.00    -0.317 N 
ATOM     21  H   UNL     1       4.785   0.887   0.434  0.00  0.00    +0.168 HD
ATOM     22  H   UNL     1       7.058   0.939   0.769  0.00  0.00    +0.149 HD
ENDROOT
BRANCH  20  23
ATOM     23  C   UNL     1       8.375  -0.726   0.822  0.00  0.00    +0.106 C 
BRANCH  23  24
ATOM     24  C   UNL     1       9.483   0.291   1.106  0.00  0.00    +0.046 C 
BRANCH  24  25
ATOM     25  C   UNL     1      10.819  -0.440   1.255  0.00  0.00    +0.157 C 
BRANCH  25  26
ATOM     26  O   UNL     1      11.854   0.509   1.519  0.00  0.00    -0.395 OA
ATOM     27  H   UNL     1      12.731   0.116   1.625  0.00  0.00    +0.209 HD
ENDBRANCH  25  26
ENDBRANCH  24  25
ENDBRANCH  23  24
ENDBRANCH  20  23
TORSDOF 4
