REMARK  Name = ZINC33568321
REMARK  4 active torsions:
REMARK  status: ('A' for Active; 'I' for Inactive)
REMARK    1  A    between atoms: C_4  and  C_8
REMARK    2  A    between atoms: C_11  and  C_13
REMARK    3  A    between atoms: N_17  and  C_21
REMARK    4  A    between atoms: C_21  and  C_22
REMARK                            x       y       z     vdW  Elec       q    Type
REMARK                         _______ _______ _______ _____ _____    ______ ____
ROOT
ATOM      1  C   UNL     1       0.663  -5.373   1.399  0.00  0.00    +0.066 C 
ATOM      2  C   UNL     1       0.099  -5.205   2.631  0.00  0.00    +0.080 C 
ATOM      3  C   UNL     1      -0.317  -6.187   3.581  0.00  0.00    +0.259 C 
ATOM      4  O   UNL     1      -0.191  -7.376   3.350  0.00  0.00    -0.269 OA
ATOM      5  N   UNL     1      -0.842  -5.766   4.718  0.00  0.00    -0.248 N 
ATOM      6  C   UNL     1      -0.981  -4.447   4.974  0.00  0.00    +0.121 C 
ATOM      7  S   UNL     1      -1.627  -3.686   6.365  0.00  0.00    -0.027 S 
ATOM      8  S   UNL     1      -0.314  -3.697   3.497  0.00  0.00    -0.061 S 
ENDROOT
BRANCH   1  12
ATOM      9  C   UNL     1       1.253  -2.158  -0.021  0.00  0.00    +0.138 A 
ATOM     10  C   UNL     1       1.727  -2.947  -1.045  0.00  0.00    +0.050 A 
ATOM     11  C   UNL     1       1.573  -4.276  -0.641  0.00  0.00    +0.050 A 
ATOM     12  C   UNL     1       0.999  -4.247   0.618  0.00  0.00    +0.130 A 
ATOM     13  O   UNL     1       0.817  -2.957   0.969  0.00  0.00    -0.455 OA
BRANCH   9  17
ATOM     14  C   UNL     1       1.170   2.088   0.002  0.00  0.00    +0.003 A 
ATOM     15  C   UNL     1      -0.017   1.376   0.010  0.00  0.00    +0.021 A 
ATOM     16  C   UNL     1       0.002  -0.004   0.002  0.00  0.00    +0.053 A 
ATOM     17  C   UNL     1       1.224  -0.683  -0.013  0.00  0.00    +0.054 A 
ATOM     18  C   UNL     1       2.419   0.044  -0.021  0.00  0.00    +0.053 A 
ATOM     19  C   UNL     1       2.384   1.424  -0.013  0.00  0.00    +0.021 A 
ATOM     20 CL   UNL     1       3.943  -0.788  -0.039  0.00  0.00    -0.083 Cl
ATOM     21 CL   UNL     1      -1.488  -0.895   0.011  0.00  0.00    -0.083 Cl
ENDBRANCH   9  17
ENDBRANCH   1  12
BRANCH   5  22
ATOM     22  C   UNL     1      -1.280  -6.745   5.717  0.00  0.00    +0.189 C 
BRANCH  22  23
ATOM     23  C   UNL     1      -0.137  -7.058   6.648  0.00  0.00    +0.122 A 
ATOM     24  C   UNL     1       0.145  -6.410   7.792  0.00  0.00    +0.046 A 
ATOM     25  C   UNL     1       1.292  -7.030   8.341  0.00  0.00    +0.041 A 
ATOM     26  C   UNL     1       1.641  -8.019   7.500  0.00  0.00    +0.195 A 
ATOM     27  O   UNL     1       0.768  -8.036   6.479  0.00  0.00    -0.466 OA
ENDBRANCH  22  23
ENDBRANCH   5  22
TORSDOF 4
