REMARK  Name = ZINC21473884
REMARK  3 active torsions:
REMARK  status: ('A' for Active; 'I' for Inactive)
REMARK    1  A    between atoms: C_3  and  S_8
REMARK    2  A    between atoms: S_8  and  N_11
REMARK    3  A    between atoms: C_15  and  C_17
REMARK                            x       y       z     vdW  Elec       q    Type
REMARK                         _______ _______ _______ _____ _____    ______ ____
ROOT
ATOM      1  N   UNL     1       1.225  -2.921  -1.608  0.00  0.00    -0.169 NA
ATOM      2  C   UNL     1       0.023  -3.193  -2.417  0.00  0.00    +0.110 C 
ATOM      3  C   UNL     1       0.500  -4.157  -3.529  0.00  0.00    +0.019 C 
ATOM      4  C   UNL     1       1.922  -3.612  -3.828  0.00  0.00    +0.027 C 
ATOM      5  C   UNL     1       2.415  -3.153  -2.439  0.00  0.00    +0.110 C 
ENDROOT
BRANCH   5   6
ATOM      6  C   UNL     1       3.205  -1.877  -2.572  0.00  0.00    -0.025 A 
ATOM      7  C   UNL     1       2.547  -0.673  -2.745  0.00  0.00    +0.009 A 
ATOM      8  C   UNL     1       3.267   0.500  -2.863  0.00  0.00    +0.050 A 
ATOM      9  C   UNL     1       4.653   0.472  -2.819  0.00  0.00    +0.162 A 
ATOM     10  C   UNL     1       5.315  -0.738  -2.647  0.00  0.00    +0.162 A 
ATOM     11  C   UNL     1       4.585  -1.911  -2.525  0.00  0.00    +0.054 A 
ATOM     12  O   UNL     1       6.674  -0.787  -2.592  0.00  0.00    -0.485 OA
ATOM     13  C   UNL     1       7.380   0.354  -3.090  0.00  0.00    +0.270 C 
ATOM     14  C   UNL     1       6.716   1.616  -2.521  0.00  0.00    +0.270 C 
ATOM     15  O   UNL     1       5.350   1.634  -2.947  0.00  0.00    -0.485 OA
ENDBRANCH   5   6
BRANCH   1  16
ATOM     16  S   UNL     1       1.233  -2.440  -0.023  0.00  0.00    +0.061 S 
ATOM     17  O   UNL     1       2.489  -2.833   0.513  0.00  0.00    -0.153 OA
ATOM     18  O   UNL     1      -0.002  -2.867   0.537  0.00  0.00    -0.153 OA
BRANCH  16  21
ATOM     19  C   UNL     1       2.378   1.411  -0.013  0.00  0.00    +0.003 A 
ATOM     20  C   UNL     1       2.396   0.029  -0.021  0.00  0.00    +0.028 A 
ATOM     21  C   UNL     1       1.209  -0.679  -0.013  0.00  0.00    +0.107 A 
ATOM     22  C   UNL     1       0.002  -0.004   0.002  0.00  0.00    +0.048 A 
ATOM     23  C   UNL     1      -0.017   1.379   0.010  0.00  0.00    +0.043 A 
ATOM     24  C   UNL     1       1.173   2.087   0.002  0.00  0.00    +0.020 A 
ATOM     25 CL   UNL     1      -1.532   2.227   0.021  0.00  0.00    -0.083 Cl
ENDBRANCH  16  21
ENDBRANCH   1  16
TORSDOF 3
