REMARK  Name = ZINC27570805
REMARK  10 active torsions:
REMARK  status: ('A' for Active; 'I' for Inactive)
REMARK    1  A    between atoms: C_1  and  C_2
REMARK    2  A    between atoms: C_2  and  C_3
REMARK    3  A    between atoms: C_5  and  C_28
REMARK    4  A    between atoms: C_6  and  C_11
REMARK    5  A    between atoms: C_11  and  N_12
REMARK    6  A    between atoms: C_16  and  C_19
REMARK    7  A    between atoms: N_21  and  C_22
REMARK    8  A    between atoms: C_28  and  O_30
REMARK    9  A    between atoms: O_30  and  C_31
REMARK   10  A    between atoms: C_31  and  C_32
REMARK                            x       y       z     vdW  Elec       q    Type
REMARK                         _______ _______ _______ _____ _____    ______ ____
ROOT
ATOM      1  C   UNL     1       3.044   3.369  -1.457  0.00  0.00    -0.026 C 
ENDROOT
BRANCH   1   4
ATOM      2  C   UNL     1      -0.160   1.589  -0.263  0.00  0.00    +0.113 C 
ATOM      3  C   UNL     1       1.266   2.100  -0.306  0.00  0.00    +0.072 C 
ATOM      4  C   UNL     1       1.635   2.841  -1.374  0.00  0.00    +0.007 C 
ATOM      5  N   UNL     1       0.753   3.118  -2.378  0.00  0.00    -0.274 N 
ATOM      6  C   UNL     1      -0.516   2.693  -2.391  0.00  0.00    +0.304 C 
ATOM      7  O   UNL     1      -1.228   2.991  -3.330  0.00  0.00    -0.253 OA
ATOM      8  N   UNL     1      -1.032   1.944  -1.395  0.00  0.00    -0.292 N 
ATOM      9  H   UNL     1       1.073   3.723  -3.240  0.00  0.00    +0.156 HD
ATOM     10  H   UNL     1      -2.076   1.599  -1.415  0.00  0.00    +0.151 HD
BRANCH   2  12
ATOM     11  C   UNL     1      -2.176   1.452   1.207  0.00  0.00    +0.006 C 
ATOM     12  C   UNL     1      -0.812   2.118   1.017  0.00  0.00    +0.024 C 
ENDBRANCH   2  12
BRANCH   3  13
ATOM     13  C   UNL     1       2.179   1.811   0.735  0.00  0.00    +0.338 C 
ATOM     14  O   UNL     1       2.677   0.704   0.817  0.00  0.00    -0.245 OA
BRANCH  13  15
ATOM     15  O   UNL     1       2.497   2.764   1.636  0.00  0.00    -0.462 OA
BRANCH  15  16
ATOM     16  C   UNL     1       3.426   2.403   2.660  0.00  0.00    +0.229 C 
ATOM     17  C   UNL     1       3.662   3.602   3.581  0.00  0.00    +0.048 C 
ENDBRANCH  15  16
ENDBRANCH  13  15
ENDBRANCH   3  13
ENDBRANCH   1   4
BRANCH   1  18
ATOM     18  N   UNL     1       3.732   2.752  -2.599  0.00  0.00    +0.384 N 
ATOM     19  C   UNL     1       3.907   1.309  -2.390  0.00  0.00    -0.078 C 
ATOM     20  C   UNL     1       4.493   0.676  -3.654  0.00  0.00    -0.018 C 
ATOM     21  C   UNL     1       5.840   1.332  -3.970  0.00  0.00    +0.009 C 
ATOM     22  C   UNL     1       5.638   2.841  -4.135  0.00  0.00    +0.059 C 
ATOM     23  C   UNL     1       5.019   3.411  -2.856  0.00  0.00    -0.066 C 
ATOM     24  H   UNL     1       3.101   2.888  -3.489  0.00  0.00    -0.081 HD
BRANCH  22  25
ATOM     25  C   UNL     1       6.968   3.502  -4.387  0.00  0.00    +0.218 C 
ATOM     26  O   UNL     1       7.382   4.346  -3.620  0.00  0.00    -0.275 OA
ATOM     27  N   UNL     1       7.699   3.155  -5.465  0.00  0.00    -0.285 N 
ATOM     28  H   UNL     1       7.290   2.451  -6.204  0.00  0.00    +0.155 HD
BRANCH  27  29
ATOM     29  C   UNL     1       8.980   3.690  -5.644  0.00  0.00    +0.033 A 
ATOM     30  C   UNL     1       9.458   3.938  -6.924  0.00  0.00    +0.023 A 
ATOM     31  C   UNL     1      10.720   4.472  -7.097  0.00  0.00    +0.002 A 
ATOM     32  C   UNL     1      11.512   4.749  -5.997  0.00  0.00    +0.000 A 
ATOM     33  C   UNL     1      11.041   4.498  -4.722  0.00  0.00    +0.002 A 
ATOM     34  C   UNL     1       9.777   3.969  -4.542  0.00  0.00    +0.023 A 
ENDBRANCH  27  29
ENDBRANCH  22  25
ENDBRANCH   1  18
TORSDOF 8
