REMARK  Name = ZINC13526583
REMARK  11 active torsions:
REMARK  status: ('A' for Active; 'I' for Inactive)
REMARK    1  A    between atoms: C_1  and  C_2
REMARK    2  A    between atoms: C_7  and  C_9
REMARK    3  A    between atoms: C_7  and  C_10
REMARK    4  A    between atoms: C_13  and  C_15
REMARK    5  A    between atoms: C_15  and  O_16
REMARK    6  A    between atoms: O_16  and  C_17
REMARK    7  A    between atoms: C_17  and  C_19
REMARK    8  A    between atoms: C_24  and  S_25
REMARK    9  A    between atoms: S_25  and  C_26
REMARK   10  A    between atoms: C_26  and  C_27
REMARK   11  A    between atoms: N_29  and  C_30
REMARK                            x       y       z     vdW  Elec       q    Type
REMARK                         _______ _______ _______ _____ _____    ______ ____
ROOT
ATOM      1  C   UNL     1       2.481  -4.300  -6.527  0.00  0.00    +0.072 A 
ATOM      2  C   UNL     1       1.654  -5.428  -6.524  0.00  0.00    +0.016 A 
ATOM      3  C   UNL     1       1.801  -6.390  -7.498  0.00  0.00    +0.001 A 
ATOM      4  C   UNL     1       2.765  -6.248  -8.485  0.00  0.00    +0.001 A 
ATOM      5  C   UNL     1       3.588  -5.142  -8.503  0.00  0.00    +0.015 A 
ATOM      6  C   UNL     1       3.453  -4.156  -7.532  0.00  0.00    +0.022 A 
ENDROOT
BRANCH   1   7
ATOM      7  C   UNL     1       2.329  -3.267  -5.489  0.00  0.00    +0.341 C 
ATOM      8  O   UNL     1       3.046  -2.286  -5.499  0.00  0.00    -0.245 OA
BRANCH   7   9
ATOM      9  O   UNL     1       1.396  -3.410  -4.528  0.00  0.00    -0.452 OA
BRANCH   9  10
ATOM     10  C   UNL     1       1.304  -2.369  -3.553  0.00  0.00    +0.328 C 
BRANCH  10  22
ATOM     11  C   UNL     1      -0.019   1.532   0.011  0.00  0.00    +0.013 C 
ATOM     12  C   UNL     1       0.002  -0.004   0.002  0.00  0.00    -0.014 C 
ATOM     13  C   UNL     1      -1.427  -0.614  -0.023  0.00  0.00    +0.030 C 
ATOM     14  C   UNL     1      -1.088  -2.044  -0.513  0.00  0.00    +0.077 C 
ATOM     15  C   UNL     1      -0.480  -2.795   0.669  0.00  0.00    +0.029 C 
ATOM     16  C   UNL     1       0.726  -2.106   1.280  0.00  0.00    -0.033 C 
ATOM     17  C   UNL     1       0.726  -0.590   1.212  0.00  0.00    +0.014 C 
ATOM     18  C   UNL     1       2.015  -2.662   0.657  0.00  0.00    +0.011 C 
ATOM     19  C   UNL     1       0.763  -2.497   2.779  0.00  0.00    +0.011 C 
ATOM     20  N   UNL     1      -0.055  -1.854  -1.550  0.00  0.00    -0.295 N 
ATOM     21  C   UNL     1       0.625  -0.576  -1.291  0.00  0.00    +0.115 C 
ATOM     22  C   UNL     1       0.214  -2.699  -2.566  0.00  0.00    +0.254 C 
ATOM     23  O   UNL     1      -0.423  -3.724  -2.687  0.00  0.00    -0.272 OA
ENDBRANCH  10  22
ENDBRANCH   9  10
ENDBRANCH   7   9
ENDBRANCH   1   7
BRANCH   6  24
ATOM     24  S   UNL     1       4.498  -2.738  -7.556  0.00  0.00    -0.115 S 
BRANCH  24  25
ATOM     25  C   UNL     1       5.560  -3.001  -9.004  0.00  0.00    +0.170 C 
BRANCH  25  26
ATOM     26  C   UNL     1       6.516  -1.844  -9.142  0.00  0.00    +0.223 C 
ATOM     27  O   UNL     1       6.484  -0.932  -8.343  0.00  0.00    -0.275 OA
ATOM     28  N   UNL     1       7.405  -1.822 -10.154  0.00  0.00    -0.312 N 
ATOM     29  H   UNL     1       7.431  -2.551 -10.793  0.00  0.00    +0.149 HD
BRANCH  28  30
ATOM     30  C   UNL     1       8.335  -0.698 -10.288  0.00  0.00    +0.073 C 
ATOM     31  C   UNL     1       7.654   0.437 -11.057  0.00  0.00    +0.022 C 
ATOM     32  C   UNL     1       8.445   1.732 -10.861  0.00  0.00    +0.002 C 
ATOM     33  C   UNL     1       8.835   1.874  -9.388  0.00  0.00    +0.000 C 
ATOM     34  C   UNL     1      10.353   1.752  -9.248  0.00  0.00    +0.000 C 
ATOM     35  C   UNL     1      10.761   0.283  -9.380  0.00  0.00    +0.000 C 
ATOM     36  C   UNL     1      10.702  -0.132 -10.852  0.00  0.00    +0.002 C 
ATOM     37  C   UNL     1       9.581  -1.154 -11.050  0.00  0.00    +0.022 C 
ENDBRANCH  28  30
ENDBRANCH  25  26
ENDBRANCH  24  25
ENDBRANCH   6  24
TORSDOF 8
