REMARK  Name = ZINC12434422
REMARK  9 active torsions:
REMARK  status: ('A' for Active; 'I' for Inactive)
REMARK    1  A    between atoms: C_1  and  C_2
REMARK    2  A    between atoms: C_10  and  C_12
REMARK    3  A    between atoms: C_12  and  N_57
REMARK    4  A    between atoms: C_13  and  N_57
REMARK    5  A    between atoms: C_14  and  C_15
REMARK    6  A    between atoms: C_14  and  N_57
REMARK    7  A    between atoms: C_15  and  O_27
REMARK    8  A    between atoms: N_19  and  C_22
REMARK    9  A    between atoms: C_22  and  C_23
REMARK                            x       y       z     vdW  Elec       q    Type
REMARK                         _______ _______ _______ _____ _____    ______ ____
ROOT
ATOM      1  C   UNL     1      -3.551   8.483  -0.480  0.00  0.00    -0.034 C 
ENDROOT
BRANCH   1   2
ATOM      2  C   UNL     1      -4.169   8.783  -1.847  0.00  0.00    +0.127 C 
ATOM      3  C   UNL     1      -4.453  10.283  -1.959  0.00  0.00    +0.044 C 
ATOM      4  C   UNL     1      -4.808  10.601  -3.416  0.00  0.00    +0.022 C 
ATOM      5  C   UNL     1      -3.564  10.394  -4.280  0.00  0.00    +0.108 C 
ATOM      6  N   UNL     1      -2.975   9.086  -4.021  0.00  0.00    -0.299 N 
ATOM      7  C   UNL     1      -3.217   8.361  -2.928  0.00  0.00    +0.245 C 
ATOM      8  O   UNL     1      -2.636   7.303  -2.802  0.00  0.00    -0.273 OA
BRANCH   2   9
ATOM      9  O   UNL     1      -5.393   8.058  -1.983  0.00  0.00    -0.381 OA
ATOM     10  H   UNL     1      -5.281   7.152  -2.302  0.00  0.00    +0.211 HD
ENDBRANCH   2   9
BRANCH   6  11
ATOM     11  C   UNL     1      -2.060   8.535  -5.023  0.00  0.00    +0.111 C 
BRANCH  11  12
ATOM     12  C   UNL     1      -2.853   7.709  -6.038  0.00  0.00    +0.006 C 
ATOM     13  C   UNL     1      -3.080   6.252  -5.604  0.00  0.00    +0.005 C 
ATOM     14  C   UNL     1      -2.814   5.858  -7.068  0.00  0.00    +0.001 C 
ATOM     15  C   UNL     1      -1.993   7.153  -7.186  0.00  0.00    +0.005 C 
ENDBRANCH  11  12
ENDBRANCH   6  11
ENDBRANCH   1   2
BRANCH   1  17
ATOM     16  C   UNL     1      -4.308   6.196  -0.236  0.00  0.00    -0.095 C 
ATOM     17  N   UNL     1      -3.132   7.066  -0.450  0.00  0.00    +0.385 N 
ATOM     18  H   UNL     1      -2.700   6.827  -1.350  0.00  0.00    -0.081 HD
BRANCH  17  19
ATOM     19  C   UNL     1      -2.143   6.854   0.628  0.00  0.00    -0.004 C 
BRANCH  19  29
ATOM     20  C   UNL     1       1.890   3.406  -1.320  0.00  0.00    +0.046 C 
ATOM     21  C   UNL     1       0.721   2.903  -0.512  0.00  0.00    -0.025 A 
ATOM     22  C   UNL     1       0.606   1.560  -0.221  0.00  0.00    +0.005 A 
ATOM     23  C   UNL     1      -0.468   1.091   0.522  0.00  0.00    +0.002 A 
ATOM     24  C   UNL     1      -1.431   1.949   0.974  0.00  0.00    +0.030 A 
ATOM     25  C   UNL     1      -1.331   3.315   0.697  0.00  0.00    +0.089 A 
ATOM     26  C   UNL     1      -0.244   3.790  -0.056  0.00  0.00    +0.069 A 
ATOM     27  N   UNL     1      -0.425   5.155  -0.165  0.00  0.00    -0.343 N 
ATOM     28  H   UNL     1       0.176   5.796  -0.643  0.00  0.00    +0.167 HD
ATOM     29  C   UNL     1      -1.571   5.466   0.497  0.00  0.00    +0.091 A 
ATOM     30  N   UNL     1      -2.102   4.390   1.002  0.00  0.00    -0.234 NA
ENDBRANCH  19  29
ENDBRANCH  17  19
ENDBRANCH   1  17
TORSDOF 7
