REMARK  Name = ZINC42989681
REMARK  9 active torsions:
REMARK  status: ('A' for Active; 'I' for Inactive)
REMARK    1  A    between atoms: C_1  and  C_2
REMARK    2  A    between atoms: C_2  and  C_4
REMARK    3  A    between atoms: C_2  and  O_19
REMARK    4  A    between atoms: C_7  and  C_11
REMARK    5  A    between atoms: C_11  and  N_12
REMARK    6  A    between atoms: C_15  and  O_18
REMARK    7  A    between atoms: O_19  and  C_20
REMARK    8  A    between atoms: C_22  and  C_28
REMARK    9  A    between atoms: C_24  and  C_25
REMARK                            x       y       z     vdW  Elec       q    Type
REMARK                         _______ _______ _______ _____ _____    ______ ____
ROOT
ATOM      1  O   UNL     1       0.693  -0.477   1.160  0.00  0.00    -0.483 OA
ENDROOT
BRANCH   1   2
ATOM      2  C   UNL     1       2.013  -0.764   1.016  0.00  0.00    +0.141 A 
ATOM      3  C   UNL     1       2.661  -0.505  -0.162  0.00  0.00    +0.064 A 
ATOM      4  C   UNL     1       4.012  -0.815  -0.262  0.00  0.00    +0.042 A 
ATOM      5  S   UNL     1       4.368  -1.489   1.352  0.00  0.00    -0.079 S 
ATOM      6  C   UNL     1       2.741  -1.323   2.067  0.00  0.00    +0.116 A 
BRANCH   4   7
ATOM      7  C   UNL     1       4.915  -0.635  -1.404  0.00  0.00    +0.080 A 
ATOM      8  C   UNL     1       4.619  -0.016  -2.602  0.00  0.00    +0.140 A 
ATOM      9  N   UNL     1       5.700  -0.059  -3.372  0.00  0.00    -0.235 NA
ATOM     10  C   UNL     1       6.684  -0.677  -2.727  0.00  0.00    +0.138 A 
ATOM     11  N   UNL     1       6.229  -1.047  -1.489  0.00  0.00    -0.299 N 
ATOM     12  C   UNL     1       7.047  -1.699  -0.616  0.00  0.00    +0.093 A 
ATOM     13  C   UNL     1       8.322  -1.989  -0.954  0.00  0.00    +0.018 A 
ATOM     14  C   UNL     1       8.820  -1.621  -2.214  0.00  0.00    +0.005 A 
ATOM     15  C   UNL     1       8.009  -0.977  -3.097  0.00  0.00    +0.047 A 
ENDBRANCH   4   7
BRANCH   6  16
ATOM     16  C   UNL     1       2.301  -1.671   3.363  0.00  0.00    +0.252 C 
ATOM     17  O   UNL     1       1.140  -1.487   3.682  0.00  0.00    -0.270 OA
ATOM     18  N   UNL     1       3.167  -2.206   4.247  0.00  0.00    -0.325 N 
ATOM     19  H   UNL     1       4.092  -2.352   3.992  0.00  0.00    +0.145 HD
ATOM     20  H   UNL     1       2.865  -2.445   5.137  0.00  0.00    +0.145 HD
ENDBRANCH   6  16
ENDBRANCH   1   2
BRANCH   1  22
ATOM     21  C   UNL     1       0.186   1.500  -0.133  0.00  0.00    +0.057 C 
ATOM     22  C   UNL     1       0.000  -0.013  -0.000  0.00  0.00    +0.202 C 
BRANCH  22  23
ATOM     23  C   UNL     1      -1.468  -0.329   0.131  0.00  0.00    +0.011 A 
ATOM     24  C   UNL     1      -2.034  -0.476   1.384  0.00  0.00    +0.009 A 
ATOM     25  C   UNL     1      -3.380  -0.766   1.504  0.00  0.00    +0.002 A 
ATOM     26  C   UNL     1      -4.161  -0.909   0.373  0.00  0.00    -0.063 A 
ATOM     27  C   UNL     1      -3.596  -0.762  -0.880  0.00  0.00    +0.022 A 
ATOM     28  C   UNL     1      -2.250  -0.466  -1.001  0.00  0.00    +0.048 A 
ATOM     29 CL   UNL     1      -1.541  -0.274  -2.575  0.00  0.00    -0.083 Cl
BRANCH  26  30
ATOM     30  C   UNL     1      -5.628  -1.226   0.505  0.00  0.00    -0.043 C 
BRANCH  30  31
ATOM     31  N   UNL     1      -6.394   0.025   0.577  0.00  0.00    +0.384 N 
ATOM     32  C   UNL     1      -6.147   0.712   1.871  0.00  0.00    -0.076 C 
ATOM     33  C   UNL     1      -7.368   1.639   2.059  0.00  0.00    +0.011 C 
ATOM     34  C   UNL     1      -8.490   1.000   1.214  0.00  0.00    +0.096 C 
ATOM     35  C   UNL     1      -7.853  -0.259   0.587  0.00  0.00    -0.047 C 
ATOM     36  H   UNL     1      -6.158   0.629  -0.196  0.00  0.00    -0.081 HD
BRANCH  34  37
ATOM     37  O   UNL     1      -9.593   0.638   2.047  0.00  0.00    -0.394 OA
ATOM     38  H   UNL     1     -10.005   1.386   2.502  0.00  0.00    +0.210 HD
ENDBRANCH  34  37
ENDBRANCH  30  31
ENDBRANCH  26  30
ENDBRANCH  22  23
ENDBRANCH   1  22
TORSDOF 8
