REMARK  Name = ZINC04163521
REMARK  7 active torsions:
REMARK  status: ('A' for Active; 'I' for Inactive)
REMARK    1  A    between atoms: C_1  and  C_2
REMARK    2  A    between atoms: C_3  and  C_12
REMARK    3  A    between atoms: C_12  and  C_14
REMARK    4  A    between atoms: N_16  and  C_17
REMARK    5  A    between atoms: C_20  and  C_27
REMARK    6  A    between atoms: C_23  and  C_25
REMARK    7  A    between atoms: C_23  and  C_26
REMARK                            x       y       z     vdW  Elec       q    Type
REMARK                         _______ _______ _______ _____ _____    ______ ____
ROOT
ATOM      1  C   UNL     1      -3.865  -0.350  -1.656  0.00  0.00    +0.249 C 
ATOM      2  O   UNL     1      -4.747   0.350  -1.199  0.00  0.00    -0.282 OA
ENDROOT
BRANCH   1   5
ATOM      3  C   UNL     1      -4.583  -0.615  -4.692  0.00  0.00    +0.064 C 
ATOM      4  C   UNL     1      -4.524  -1.736  -3.687  0.00  0.00    +0.025 A 
ATOM      5  C   UNL     1      -4.204  -1.592  -2.350  0.00  0.00    +0.055 A 
ATOM      6  C   UNL     1      -4.266  -2.945  -1.764  0.00  0.00    +0.011 A 
ATOM      7  C   UNL     1      -4.049  -3.458  -0.489  0.00  0.00    +0.011 A 
ATOM      8  C   UNL     1      -4.194  -4.810  -0.263  0.00  0.00    +0.001 A 
ATOM      9  C   UNL     1      -4.554  -5.657  -1.300  0.00  0.00    +0.002 A 
ATOM     10  C   UNL     1      -4.780  -5.161  -2.566  0.00  0.00    +0.026 A 
ATOM     11  C   UNL     1      -4.634  -3.800  -2.815  0.00  0.00    +0.047 A 
ATOM     12  N   UNL     1      -4.775  -3.031  -3.953  0.00  0.00    -0.358 N 
ATOM     13  H   UNL     1      -5.021  -3.376  -4.825  0.00  0.00    +0.166 HD
ENDBRANCH   1   5
BRANCH   1  14
ATOM     14  C   UNL     1      -2.437   0.057  -1.511  0.00  0.00    +0.285 C 
ATOM     15  O   UNL     1      -1.560  -0.614  -2.015  0.00  0.00    -0.267 OA
ATOM     16  N   UNL     1      -2.121   1.171  -0.820  0.00  0.00    -0.306 N 
ATOM     17  H   UNL     1      -2.822   1.707  -0.417  0.00  0.00    +0.149 HD
BRANCH  16  18
ATOM     18  C   UNL     1      -0.719   1.571  -0.677  0.00  0.00    +0.074 C 
ATOM     19  C   UNL     1      -0.649   3.005  -0.150  0.00  0.00    +0.025 C 
ATOM     20  C   UNL     1      -1.343   3.082   1.212  0.00  0.00    -0.012 C 
ATOM     21  C   UNL     1      -0.642   2.143   2.195  0.00  0.00    +0.009 C 
ATOM     22  C   UNL     1      -0.712   0.708   1.668  0.00  0.00    -0.033 C 
ATOM     23  C   UNL     1      -0.018   0.631   0.306  0.00  0.00    +0.028 C 
ATOM     24  C   UNL     1      -2.176   0.290   1.519  0.00  0.00    +0.011 C 
ATOM     25  C   UNL     1      -0.011  -0.231   2.651  0.00  0.00    +0.011 C 
ATOM     26  C   UNL     1      -1.274   4.517   1.739  0.00  0.00    +0.007 C 
ENDBRANCH  16  18
ENDBRANCH   1  14
TORSDOF 3
