REMARK  Name = ZINC40008611
REMARK  6 active torsions:
REMARK  status: ('A' for Active; 'I' for Inactive)
REMARK    1  A    between atoms: C_1  and  C_2
REMARK    2  A    between atoms: C_7  and  N_8
REMARK    3  A    between atoms: C_9  and  C_25
REMARK    4  A    between atoms: C_28  and  O_31
REMARK    5  A    between atoms: O_31  and  C_32
REMARK    6  A    between atoms: C_32  and  C_33
REMARK                            x       y       z     vdW  Elec       q    Type
REMARK                         _______ _______ _______ _____ _____    ______ ____
ROOT
ATOM      1  N   UNL     1       0.033  -0.215   2.505  0.00  0.00    -0.237 N 
ATOM      2  C   UNL     1       0.217  -0.912   3.788  0.00  0.00    +0.151 C 
ATOM      3  C   UNL     1       0.143   0.145   4.840  0.00  0.00    +0.072 A 
ATOM      4  C   UNL     1       0.245   0.064   6.301  0.00  0.00    +0.199 A 
ATOM      5  O   UNL     1       0.594  -0.944   6.890  0.00  0.00    -0.287 OA
ATOM      6  C   UNL     1      -0.117   1.327   6.993  0.00  0.00    +0.065 A 
ATOM      7  C   UNL     1      -0.263   1.355   8.380  0.00  0.00    +0.030 A 
ATOM      8  C   UNL     1      -0.604   2.534   9.005  0.00  0.00    +0.019 A 
ATOM      9  C   UNL     1      -0.800   3.687   8.256  0.00  0.00    +0.019 A 
ATOM     10  C   UNL     1      -0.656   3.672   6.887  0.00  0.00    +0.048 A 
ATOM     11  C   UNL     1      -0.310   2.491   6.231  0.00  0.00    +0.140 A 
ATOM     12  O   UNL     1      -0.166   2.506   4.886  0.00  0.00    -0.450 OA
ATOM     13  C   UNL     1      -0.060   1.343   4.214  0.00  0.00    +0.199 A 
ATOM     14  C   UNL     1      -0.123   1.100   2.763  0.00  0.00    +0.288 C 
ATOM     15  O   UNL     1      -0.293   1.959   1.920  0.00  0.00    -0.266 OA
ATOM     16 BR   UNL     1      -0.804   2.583  10.884  0.00  0.00    -0.050 Br
ENDROOT
BRANCH   1  23
ATOM     17  C   UNL     1       2.538  -0.663   1.232  0.00  0.00    +0.047 C 
ATOM     18  C   UNL     1       1.230  -1.044   0.589  0.00  0.00    -0.010 A 
ATOM     19  C   UNL     1       1.210  -1.639  -0.660  0.00  0.00    +0.008 A 
ATOM     20  C   UNL     1      -0.018  -1.974  -1.215  0.00  0.00    +0.020 A 
ATOM     21  C   UNL     1      -1.175  -1.705  -0.509  0.00  0.00    +0.113 A 
ATOM     22  N   UNL     1      -1.125  -1.137   0.680  0.00  0.00    -0.240 NA
ATOM     23  C   UNL     1       0.027  -0.808   1.245  0.00  0.00    +0.132 A 
ENDBRANCH   1  23
BRANCH   2  24
ATOM     24  C   UNL     1      -0.878  -1.927   3.990  0.00  0.00    -0.022 A 
ATOM     25  C   UNL     1      -2.176  -1.623   3.622  0.00  0.00    +0.009 A 
ATOM     26  C   UNL     1      -3.183  -2.551   3.807  0.00  0.00    +0.046 A 
ATOM     27  C   UNL     1      -2.890  -3.789   4.362  0.00  0.00    +0.121 A 
ATOM     28  C   UNL     1      -1.587  -4.091   4.730  0.00  0.00    +0.046 A 
ATOM     29  C   UNL     1      -0.583  -3.161   4.538  0.00  0.00    +0.009 A 
BRANCH  27  30
ATOM     30  O   UNL     1      -3.878  -4.703   4.545  0.00  0.00    -0.488 OA
BRANCH  30  31
ATOM     31  C   UNL     1      -3.504  -5.956   5.122  0.00  0.00    +0.256 C 
BRANCH  31  32
ATOM     32  C   UNL     1      -4.722  -6.835   5.248  0.00  0.00    +0.006 C 
ATOM     33  C   UNL     1      -4.661  -8.094   4.889  0.00  0.00    +0.007 C 
ENDBRANCH  31  32
ENDBRANCH  30  31
ENDBRANCH  27  30
ENDBRANCH   2  24
TORSDOF 5
