REMARK  Name = ZINC23129756
REMARK  8 active torsions:
REMARK  status: ('A' for Active; 'I' for Inactive)
REMARK    1  A    between atoms: C_11  and  C_27
REMARK    2  A    between atoms: N_13  and  C_16
REMARK    3  A    between atoms: C_16  and  C_17
REMARK    4  A    between atoms: C_21  and  O_23
REMARK    5  A    between atoms: O_23  and  C_24
REMARK    6  A    between atoms: C_24  and  C_25
REMARK    7  A    between atoms: C_25  and  O_26
REMARK    8  A    between atoms: C_31  and  O_33
REMARK                            x       y       z     vdW  Elec       q    Type
REMARK                         _______ _______ _______ _____ _____    ______ ____
ROOT
ATOM      1  C   UNL     1      -1.624   7.877  -5.239  0.00  0.00    +0.001 A 
ATOM      2  C   UNL     1      -0.732   6.954  -5.758  0.00  0.00    +0.002 A 
ATOM      3  C   UNL     1      -0.043   6.061  -4.956  0.00  0.00    +0.026 A 
ATOM      4  C   UNL     1      -0.285   6.127  -3.585  0.00  0.00    +0.047 A 
ATOM      5  C   UNL     1      -1.200   7.076  -3.059  0.00  0.00    +0.003 A 
ATOM      6  C   UNL     1      -1.883   7.966  -3.894  0.00  0.00    +0.010 A 
ATOM      7  C   UNL     1      -1.206   6.870  -1.628  0.00  0.00    -0.016 A 
ATOM      8  C   UNL     1      -0.344   5.861  -1.365  0.00  0.00    +0.042 A 
ATOM      9  N   UNL     1       0.211   5.412  -2.533  0.00  0.00    -0.356 N 
ATOM     10  H   UNL     1       0.946   4.613  -2.708  0.00  0.00    +0.166 HD
ATOM     11  C   UNL     1      -0.076   5.351   0.030  0.00  0.00    +0.135 C 
ATOM     12  N   UNL     1      -1.153   5.822   0.915  0.00  0.00    -0.286 NA
ATOM     13  C   UNL     1      -1.348   7.274   0.796  0.00  0.00    +0.090 C 
ATOM     14  C   UNL     1      -1.990   7.593  -0.561  0.00  0.00    +0.053 C 
ENDROOT
BRANCH  11  15
ATOM     15  C   UNL     1      -0.051   3.844   0.022  0.00  0.00    -0.021 A 
ATOM     16  C   UNL     1      -1.237   3.133   0.030  0.00  0.00    +0.006 A 
ATOM     17  C   UNL     1      -1.218   1.751   0.017  0.00  0.00    +0.004 A 
ATOM     18  C   UNL     1      -0.013   1.076   0.008  0.00  0.00    +0.045 A 
ATOM     19  C   UNL     1       1.179   1.786   0.000  0.00  0.00    +0.117 A 
ATOM     20  C   UNL     1       1.157   3.174   0.008  0.00  0.00    +0.051 A 
BRANCH  19  21
ATOM     21  O   UNL     1       2.366   1.125  -0.015  0.00  0.00    -0.507 OA
ATOM     22  H   UNL     1       3.310   1.689  -0.021  0.00  0.00    +0.292 HD
ENDBRANCH  19  21
ENDBRANCH  11  15
BRANCH  12  23
ATOM     23  C   UNL     1      -0.895   5.439   2.310  0.00  0.00    +0.120 C 
BRANCH  23  24
ATOM     24  C   UNL     1      -1.876   6.140   3.213  0.00  0.00    -0.030 A 
ATOM     25  C   UNL     1      -3.086   5.542   3.515  0.00  0.00    +0.005 A 
ATOM     26  C   UNL     1      -3.988   6.183   4.345  0.00  0.00    +0.004 A 
ATOM     27  C   UNL     1      -3.682   7.422   4.874  0.00  0.00    +0.045 A 
ATOM     28  C   UNL     1      -2.470   8.023   4.572  0.00  0.00    +0.121 A 
ATOM     29  C   UNL     1      -1.564   7.376   3.744  0.00  0.00    +0.050 A 
BRANCH  28  30
ATOM     30  O   UNL     1      -2.166   9.242   5.092  0.00  0.00    -0.490 OA
BRANCH  30  31
ATOM     31  C   UNL     1      -3.143   9.846   5.942  0.00  0.00    +0.256 C 
BRANCH  31  32
ATOM     32  C   UNL     1      -2.628  11.202   6.428  0.00  0.00    +0.196 C 
BRANCH  32  33
ATOM     33  O   UNL     1      -2.496  12.088   5.314  0.00  0.00    -0.392 OA
ATOM     34  H   UNL     1      -2.137  13.116   5.469  0.00  0.00    +0.210 HD
ENDBRANCH  32  33
ENDBRANCH  31  32
ENDBRANCH  30  31
ENDBRANCH  28  30
ENDBRANCH  23  24
ENDBRANCH  12  23
TORSDOF 8
