REMARK  Name = ZINC39969003
REMARK  10 active torsions:
REMARK  status: ('A' for Active; 'I' for Inactive)
REMARK    1  A    between atoms: C_1  and  O_2
REMARK    2  A    between atoms: O_2  and  C_3
REMARK    3  A    between atoms: C_8  and  C_13
REMARK    4  A    between atoms: C_13  and  C_33
REMARK    5  A    between atoms: C_14  and  C_15
REMARK    6  A    between atoms: C_18  and  O_23
REMARK    7  A    between atoms: C_19  and  O_21
REMARK    8  A    between atoms: O_21  and  C_22
REMARK    9  A    between atoms: O_23  and  C_24
REMARK   10  A    between atoms: C_24  and  C_25
REMARK                            x       y       z     vdW  Elec       q    Type
REMARK                         _______ _______ _______ _____ _____    ______ ____
ROOT
ATOM      1  C   UNL     1       3.263  -6.400   4.937  0.00  0.00    -0.020 A 
ATOM      2  C   UNL     1       4.103  -5.611   4.143  0.00  0.00    +0.012 A 
ATOM      3  C   UNL     1       5.353  -6.073   3.793  0.00  0.00    +0.050 A 
ATOM      4  C   UNL     1       5.783  -7.319   4.228  0.00  0.00    +0.162 A 
ATOM      5  C   UNL     1       4.953  -8.111   5.020  0.00  0.00    +0.162 A 
ATOM      6  C   UNL     1       3.700  -7.653   5.379  0.00  0.00    +0.057 A 
ENDROOT
BRANCH   1   8
ATOM      7  C   UNL     1       1.199  -5.197   4.428  0.00  0.00    +0.072 C 
ATOM      8  C   UNL     1       1.929  -5.909   5.312  0.00  0.00    +0.026 C 
BRANCH   7  14
ATOM      9  C   UNL     1      -0.624  -2.796  -0.291  0.00  0.00    +0.122 A 
ATOM     10  C   UNL     1       0.288  -1.738   0.121  0.00  0.00    +0.048 A 
ATOM     11  C   UNL     1       1.195  -1.922   1.099  0.00  0.00    +0.031 A 
ATOM     12  C   UNL     1       1.281  -3.222   1.781  0.00  0.00    +0.061 A 
ATOM     13  N   UNL     1       2.048  -3.660   2.737  0.00  0.00    -0.359 N 
ATOM     14  C   UNL     1       1.670  -5.053   3.004  0.00  0.00    +0.216 C 
ATOM     15  N   UNL     1       0.578  -5.371   2.076  0.00  0.00    -0.359 N 
ATOM     16  C   UNL     1       0.349  -4.303   1.361  0.00  0.00    +0.064 A 
ATOM     17  C   UNL     1      -0.611  -4.020   0.293  0.00  0.00    +0.073 A 
ATOM     18  H   UNL     1       2.744  -3.158   3.190  0.00  0.00    +0.162 HD
ATOM     19  H   UNL     1       0.113  -6.220   2.007  0.00  0.00    +0.162 HD
BRANCH   9  21
ATOM     20  C   UNL     1      -1.491  -1.245  -1.867  0.00  0.00    +0.277 C 
ATOM     21  O   UNL     1      -1.516  -2.549  -1.283  0.00  0.00    -0.495 OA
ENDBRANCH   9  21
ENDBRANCH   7  14
BRANCH   7  22
ATOM     22  C   UNL     1      -0.023  -4.577   4.844  0.00  0.00    +0.099 C 
ATOM     23  N   UNL     1      -0.993  -4.085   5.173  0.00  0.00    -0.191 NA
ENDBRANCH   7  22
ENDBRANCH   1   8
BRANCH   5  24
ATOM     24  O   UNL     1       5.378  -9.331   5.443  0.00  0.00    -0.491 OA
ATOM     25  C   UNL     1       4.475 -10.089   6.251  0.00  0.00    +0.277 C 
ENDBRANCH   5  24
BRANCH   4  26
ATOM     26  O   UNL     1       7.017  -7.769   3.879  0.00  0.00    -0.484 OA
BRANCH  26  27
ATOM     27  C   UNL     1       7.816  -6.908   3.066  0.00  0.00    +0.264 C 
BRANCH  27  28
ATOM     28  C   UNL     1       9.140  -7.570   2.783  0.00  0.00    -0.009 A 
ATOM     29  C   UNL     1      10.207  -7.376   3.641  0.00  0.00    +0.008 A 
ATOM     30  C   UNL     1      11.421  -7.982   3.383  0.00  0.00    +0.022 A 
ATOM     31  C   UNL     1      11.571  -8.784   2.266  0.00  0.00    +0.059 A 
ATOM     32  C   UNL     1      10.503  -8.979   1.407  0.00  0.00    +0.060 A 
ATOM     33  C   UNL     1       9.286  -8.375   1.669  0.00  0.00    +0.028 A 
ATOM     34 CL   UNL     1      10.688  -9.984   0.004  0.00  0.00    -0.082 Cl
ATOM     35 CL   UNL     1      13.097  -9.545   1.940  0.00  0.00    -0.082 Cl
ENDBRANCH  27  28
ENDBRANCH  26  27
ENDBRANCH   4  26
TORSDOF 8
