REMARK  Name = ZINC63270826
REMARK  12 active torsions:
REMARK  status: ('A' for Active; 'I' for Inactive)
REMARK    1  A    between atoms: C_1  and  C_2
REMARK    2  A    between atoms: C_2  and  C_4
REMARK    3  A    between atoms: C_2  and  N_10
REMARK    4  A    between atoms: C_4  and  C_5
REMARK    5  A    between atoms: C_5  and  C_6
REMARK    6  A    between atoms: C_6  and  C_7
REMARK    7  A    between atoms: C_7  and  C_8
REMARK    8  A    between atoms: C_7  and  C_9
REMARK    9  A    between atoms: C_11  and  C_13
REMARK   10  A    between atoms: C_13  and  C_14
REMARK   11  A    between atoms: C_14  and  C_15
REMARK   12  A    between atoms: C_15  and  N_16
REMARK                            x       y       z     vdW  Elec       q    Type
REMARK                         _______ _______ _______ _____ _____    ______ ____
ROOT
ATOM      1  N   UNL     1      -0.517  -1.705  -7.131  0.00  0.00    -0.299 N 
ATOM      2  C   UNL     1      -0.107  -2.111  -8.349  0.00  0.00    +0.302 C 
ATOM      3  O   UNL     1       1.070  -2.344  -8.548  0.00  0.00    -0.253 OA
ATOM      4  N   UNL     1      -1.001  -2.260  -9.347  0.00  0.00    -0.283 N 
ATOM      5  C   UNL     1      -2.397  -1.863  -9.134  0.00  0.00    +0.114 C 
ATOM      6  C   UNL     1      -3.317  -3.072  -9.386  0.00  0.00    +0.052 C 
ATOM      7  C   UNL     1      -2.843  -3.717 -10.665  0.00  0.00    -0.036 C 
ATOM      8  C   UNL     1      -3.495  -4.061 -11.769  0.00  0.00    -0.001 A 
ATOM      9  C   UNL     1      -4.927  -4.040 -12.107  0.00  0.00    +0.010 A 
ATOM     10  C   UNL     1      -5.253  -4.451 -13.361  0.00  0.00    +0.001 A 
ATOM     11  C   UNL     1      -4.308  -4.875 -14.301  0.00  0.00    +0.002 A 
ATOM     12  C   UNL     1      -2.972  -4.935 -14.073  0.00  0.00    +0.026 A 
ATOM     13  C   UNL     1      -2.508  -4.535 -12.786  0.00  0.00    +0.043 A 
ATOM     14  N   UNL     1      -1.304  -4.514 -12.295  0.00  0.00    -0.376 N 
ATOM     15  C   UNL     1      -1.383  -4.087 -10.898  0.00  0.00    +0.124 C 
ATOM     16  C   UNL     1      -0.565  -2.812 -10.639  0.00  0.00    +0.138 C 
ATOM     17  H   UNL     1      -1.443  -1.450  -6.992  0.00  0.00    +0.150 HD
ATOM     18  H   UNL     1      -0.492  -4.743 -12.774  0.00  0.00    +0.160 HD
ENDROOT
BRANCH   1  19
ATOM     19  C   UNL     1       0.434  -1.650  -6.018  0.00  0.00    +0.106 C 
BRANCH  19  20
ATOM     20  C   UNL     1      -0.283  -1.161  -4.758  0.00  0.00    +0.028 C 
BRANCH  20  21
ATOM     21  C   UNL     1       0.711  -1.103  -3.596  0.00  0.00    +0.097 C 
BRANCH  21  23
ATOM     22  N   UNL     1       0.686  -0.491  -1.200  0.00  0.00    -0.313 N 
ATOM     23  C   UNL     1       0.005  -0.621  -2.355  0.00  0.00    +0.213 C 
ATOM     24  O   UNL     1      -1.177  -0.349  -2.396  0.00  0.00    -0.276 OA
ATOM     25  H   UNL     1       1.631  -0.707  -1.167  0.00  0.00    +0.149 HD
BRANCH  22  27
ATOM     26  C   UNL     1      -0.023   1.508   0.018  0.00  0.00    +0.028 C 
ATOM     27  C   UNL     1      -0.000  -0.022   0.006  0.00  0.00    +0.070 C 
BRANCH  27  28
ATOM     28  C   UNL     1       0.741  -0.530   1.245  0.00  0.00    +0.022 C 
BRANCH  28  29
ATOM     29  C   UNL     1       0.656  -2.057   1.299  0.00  0.00    +0.002 C 
BRANCH  29  30
ATOM     30  C   UNL     1       1.397  -2.565   2.537  0.00  0.00    +0.003 C 
BRANCH  30  31
ATOM     31  C   UNL     1       1.312  -4.092   2.591  0.00  0.00    -0.017 C 
ATOM     32  C   UNL     1       2.156  -4.609   3.758  0.00  0.00    +0.007 C 
ATOM     33  C   UNL     1      -0.145  -4.515   2.788  0.00  0.00    +0.007 C 
ENDBRANCH  30  31
ENDBRANCH  29  30
ENDBRANCH  28  29
ENDBRANCH  27  28
ENDBRANCH  22  27
ENDBRANCH  21  23
ENDBRANCH  20  21
ENDBRANCH  19  20
ENDBRANCH   1  19
TORSDOF 9
