REMARK  Name = ZINC35225192
REMARK  7 active torsions:
REMARK  status: ('A' for Active; 'I' for Inactive)
REMARK    1  A    between atoms: C_3  and  C_9
REMARK    2  A    between atoms: C_9  and  C_10
REMARK    3  A    between atoms: C_10  and  N_11
REMARK    4  A    between atoms: C_12  and  C_14
REMARK    5  A    between atoms: C_25  and  C_27
REMARK    6  A    between atoms: C_27  and  C_28
REMARK    7  A    between atoms: C_28  and  C_29
REMARK                            x       y       z     vdW  Elec       q    Type
REMARK                         _______ _______ _______ _____ _____    ______ ____
ROOT
ATOM      1  C   UNL     1       7.498   3.913   2.517  0.00  0.00    +0.028 C 
ATOM      2  C   UNL     1       7.225   5.365   2.026  0.00  0.00    +0.061 C 
ATOM      3  S   UNL     1       8.721   6.183   2.745  0.00  0.00    -0.174 S 
ATOM      4  C   UNL     1       8.902   5.082   4.206  0.00  0.00    -0.016 C 
ATOM      5  N   UNL     1       8.066   3.920   3.870  0.00  0.00    +0.397 N 
ATOM      6  C   UNL     1       8.380   5.792   5.447  0.00  0.00    +0.017 C 
ATOM      7  C   UNL     1       8.514   4.866   6.661  0.00  0.00    +0.107 C 
ATOM      8  N   UNL     1       9.905   4.400   6.746  0.00  0.00    -0.302 N 
ATOM      9  C   UNL     1      10.508   3.751   5.574  0.00  0.00    +0.107 C 
ATOM     10  C   UNL     1      10.362   4.684   4.366  0.00  0.00    +0.017 C 
ATOM     11  C   UNL     1      10.616   4.566   7.880  0.00  0.00    +0.216 C 
ATOM     12  O   UNL     1      10.108   5.104   8.841  0.00  0.00    -0.276 OA
ATOM     13  H   UNL     1       7.305   3.876   4.531  0.00  0.00    -0.083 HD
ATOM     14  H   UNL     1       8.626   3.088   3.981  0.00  0.00    -0.083 HD
ENDROOT
BRANCH   1  16
ATOM     15  N   UNL     1       5.510   2.975   1.383  0.00  0.00    -0.316 N 
ATOM     16  C   UNL     1       6.204   3.141   2.527  0.00  0.00    +0.200 C 
ATOM     17  O   UNL     1       5.787   2.668   3.563  0.00  0.00    -0.278 OA
ATOM     18  H   UNL     1       5.843   3.353   0.554  0.00  0.00    +0.149 HD
BRANCH  15  19
ATOM     19  C   UNL     1       4.252   2.224   1.392  0.00  0.00    +0.109 C 
BRANCH  19  20
ATOM     20  C   UNL     1       3.671   2.185  -0.023  0.00  0.00    +0.055 C 
BRANCH  20  23
ATOM     21  C   UNL     1      -0.017   1.379   0.010  0.00  0.00    +0.020 A 
ATOM     22  C   UNL     1       1.171   2.087   0.002  0.00  0.00    +0.006 A 
ATOM     23  C   UNL     1       2.377   1.413  -0.013  0.00  0.00    -0.027 A 
ATOM     24  C   UNL     1       2.397   0.029  -0.021  0.00  0.00    +0.046 A 
ATOM     25  C   UNL     1       1.210  -0.679  -0.013  0.00  0.00    +0.040 A 
ATOM     26  C   UNL     1       0.002  -0.004   0.002  0.00  0.00    +0.042 A 
ATOM     27 CL   UNL     1      -1.489  -0.893   0.012  0.00  0.00    -0.083 Cl
ATOM     28 CL   UNL     1       3.913  -0.817  -0.041  0.00  0.00    -0.083 Cl
ENDBRANCH  20  23
ENDBRANCH  19  20
ENDBRANCH  15  19
ENDBRANCH   1  16
BRANCH  11  29
ATOM     29  C   UNL     1      12.041   4.083   7.952  0.00  0.00    +0.096 C 
BRANCH  29  30
ATOM     30  C   UNL     1      12.614   4.391   9.337  0.00  0.00    +0.013 C 
BRANCH  30  31
ATOM     31  C   UNL     1      14.062   3.901   9.411  0.00  0.00    -0.011 C 
ATOM     32  C   UNL     1      14.101   2.360   9.363  0.00  0.00    +0.003 C 
ATOM     33  C   UNL     1      15.249   1.979  10.330  0.00  0.00    +0.000 C 
ATOM     34  C   UNL     1      15.090   3.011  11.474  0.00  0.00    +0.000 C 
ATOM     35  C   UNL     1      14.690   4.315  10.753  0.00  0.00    +0.003 C 
ENDBRANCH  30  31
ENDBRANCH  29  30
ENDBRANCH  11  29
TORSDOF 7
