REMARK  Name = ZINC39498975
REMARK  9 active torsions:
REMARK  status: ('A' for Active; 'I' for Inactive)
REMARK    1  A    between atoms: C_1  and  C_2
REMARK    2  A    between atoms: C_2  and  C_3
REMARK    3  A    between atoms: C_2  and  S_4
REMARK    4  A    between atoms: S_4  and  C_7
REMARK    5  A    between atoms: C_12  and  C_13
REMARK    6  A    between atoms: C_13  and  C_14
REMARK    7  A    between atoms: N_21  and  C_30
REMARK    8  A    between atoms: C_23  and  C_24
REMARK    9  A    between atoms: C_35  and  O_36
REMARK                            x       y       z     vdW  Elec       q    Type
REMARK                         _______ _______ _______ _____ _____    ______ ____
ROOT
ATOM      1  C   UNL     1      -1.878   0.068  -1.710  0.00  0.00    +0.093 A 
ATOM      2  C   UNL     1      -2.631  -0.719  -2.556  0.00  0.00    +0.037 A 
ATOM      3  C   UNL     1      -3.307  -0.136  -3.631  0.00  0.00    +0.003 A 
ATOM      4  C   UNL     1      -3.212   1.242  -3.835  0.00  0.00    -0.021 A 
ATOM      5  C   UNL     1      -2.457   2.018  -2.983  0.00  0.00    +0.011 A 
ATOM      6  C   UNL     1      -1.794   1.433  -1.917  0.00  0.00    -0.018 A 
ATOM      7  C   UNL     1      -4.039   1.569  -5.053  0.00  0.00    +0.147 C 
ATOM      8  N   UNL     1      -4.606   0.302  -5.527  0.00  0.00    -0.292 N 
ATOM      9  C   UNL     1      -4.170  -0.709  -4.681  0.00  0.00    +0.042 C 
ATOM     10  C   UNL     1      -4.488  -2.017  -4.802  0.00  0.00    +0.032 C 
ENDROOT
BRANCH  10  11
ATOM     11  C   UNL     1      -4.974  -2.540  -6.088  0.00  0.00    -0.023 A 
ATOM     12  C   UNL     1      -4.257  -2.293  -7.263  0.00  0.00    +0.008 A 
ATOM     13  C   UNL     1      -4.719  -2.787  -8.465  0.00  0.00    +0.001 A 
ATOM     14  C   UNL     1      -5.889  -3.526  -8.510  0.00  0.00    +0.000 A 
ATOM     15  C   UNL     1      -6.604  -3.775  -7.352  0.00  0.00    +0.001 A 
ATOM     16  C   UNL     1      -6.152  -3.293  -6.141  0.00  0.00    +0.008 A 
ENDBRANCH  10  11
BRANCH   8  17
ATOM     17  C   UNL     1      -5.441   0.141  -6.638  0.00  0.00    +0.076 A 
ATOM     18  C   UNL     1      -4.895   0.033  -7.909  0.00  0.00    +0.027 A 
ATOM     19  C   UNL     1      -5.722  -0.126  -9.005  0.00  0.00    +0.002 A 
ATOM     20  C   UNL     1      -7.094  -0.178  -8.838  0.00  0.00    +0.004 A 
ATOM     21  C   UNL     1      -7.646  -0.071  -7.575  0.00  0.00    +0.047 A 
ATOM     22  C   UNL     1      -6.824   0.083  -6.470  0.00  0.00    +0.138 A 
BRANCH  22  23
ATOM     23  O   UNL     1      -7.364   0.182  -5.227  0.00  0.00    -0.505 OA
ATOM     24  H   UNL     1      -7.569   1.089  -4.958  0.00  0.00    +0.292 HD
ENDBRANCH  22  23
ENDBRANCH   8  17
BRANCH   1  25
ATOM     25  S   UNL     1      -1.025  -0.667  -0.354  0.00  0.00    -0.001 S 
ATOM     26  O   UNL     1      -0.362   0.414   0.286  0.00  0.00    -0.169 OA
ATOM     27  O   UNL     1      -0.283  -1.735  -0.929  0.00  0.00    -0.169 OA
BRANCH  25  29
ATOM     28  C   UNL     1      -3.082  -2.438  -0.012  0.00  0.00    +0.032 C 
ATOM     29  C   UNL     1      -2.333  -1.322   0.719  0.00  0.00    +0.130 C 
ATOM     30  C   UNL     1      -1.710  -1.881   2.000  0.00  0.00    +0.032 C 
ENDBRANCH  25  29
ENDBRANCH   1  25
BRANCH   6  31
ATOM     31  C   UNL     1      -0.975   2.286  -0.984  0.00  0.00    +0.072 C 
BRANCH  31  32
ATOM     32  C   UNL     1       0.436   2.388  -1.504  0.00  0.00    -0.043 A 
ATOM     33  C   UNL     1       1.349   1.389  -1.223  0.00  0.00    +0.004 A 
ATOM     34  C   UNL     1       2.643   1.482  -1.701  0.00  0.00    +0.000 A 
ATOM     35  C   UNL     1       3.024   2.573  -2.458  0.00  0.00    +0.000 A 
ATOM     36  C   UNL     1       2.110   3.572  -2.740  0.00  0.00    +0.000 A 
ATOM     37  C   UNL     1       0.815   3.477  -2.266  0.00  0.00    +0.004 A 
ENDBRANCH  31  32
ENDBRANCH   6  31
TORSDOF 7
