REMARK  Name = ZINC58112343
REMARK  7 active torsions:
REMARK  status: ('A' for Active; 'I' for Inactive)
REMARK    1  A    between atoms: C_1  and  O_2
REMARK    2  A    between atoms: O_2  and  C_3
REMARK    3  A    between atoms: C_6  and  C_9
REMARK    4  A    between atoms: C_18  and  C_21
REMARK    5  A    between atoms: N_23  and  C_24
REMARK    6  A    between atoms: C_24  and  C_25
REMARK    7  A    between atoms: C_25  and  C_26
REMARK                            x       y       z     vdW  Elec       q    Type
REMARK                         _______ _______ _______ _____ _____    ______ ____
ROOT
ATOM      1  C   UNL     1      -4.981  -2.629   0.035  0.00  0.00    -0.003 C 
ATOM      2  C   UNL     1      -5.759  -2.230   1.290  0.00  0.00    +0.015 C 
ATOM      3  C   UNL     1      -7.113  -2.943   1.299  0.00  0.00    -0.009 C 
ATOM      4  C   UNL     1      -7.909  -2.541   0.056  0.00  0.00    +0.007 C 
ATOM      5  C   UNL     1      -7.131  -2.940  -1.199  0.00  0.00    -0.009 C 
ATOM      6  C   UNL     1      -5.778  -2.227  -1.208  0.00  0.00    +0.015 C 
ATOM      7  C   UNL     1      -6.910  -4.454  -1.202  0.00  0.00    +0.019 C 
ATOM      8  C   UNL     1      -6.114  -4.856   0.041  0.00  0.00    +0.048 C 
ATOM      9  C   UNL     1      -6.892  -4.457   1.296  0.00  0.00    +0.019 C 
ATOM     10  C   UNL     1      -4.760  -4.143   0.032  0.00  0.00    +0.027 C 
ENDROOT
BRANCH   1  14
ATOM     11  C   UNL     1      -1.200  -0.637   0.010  0.00  0.00    +0.120 A 
ATOM     12  C   UNL     1      -2.375   0.101   0.019  0.00  0.00    +0.046 A 
ATOM     13  C   UNL     1      -3.596  -0.545   0.027  0.00  0.00    +0.008 A 
ATOM     14  C   UNL     1      -3.648  -1.927   0.026  0.00  0.00    -0.041 A 
ATOM     15  C   UNL     1      -2.479  -2.665   0.017  0.00  0.00    +0.008 A 
ATOM     16  C   UNL     1      -1.255  -2.024   0.003  0.00  0.00    +0.046 A 
BRANCH  11  18
ATOM     17  C   UNL     1      -0.017   1.425   0.010  0.00  0.00    +0.277 C 
ATOM     18  O   UNL     1       0.002  -0.004   0.002  0.00  0.00    -0.495 OA
ENDBRANCH  11  18
ENDBRANCH   1  14
BRANCH   8  19
ATOM     19  C   UNL     1      -5.896  -6.347   0.037  0.00  0.00    +0.219 C 
ATOM     20  O   UNL     1      -4.769  -6.796   0.029  0.00  0.00    -0.275 OA
ATOM     21  N   UNL     1      -6.954  -7.183   0.044  0.00  0.00    -0.315 N 
ATOM     22  H   UNL     1      -7.855  -6.824   0.051  0.00  0.00    +0.149 HD
BRANCH  21  23
ATOM     23  C   UNL     1      -6.742  -8.633   0.041  0.00  0.00    +0.109 C 
BRANCH  23  24
ATOM     24  C   UNL     1      -8.095  -9.345   0.050  0.00  0.00    +0.061 C 
BRANCH  24  25
ATOM     25  C   UNL     1      -7.878 -10.837   0.047  0.00  0.00    -0.009 A 
ATOM     26  C   UNL     1      -7.752 -11.683   1.098  0.00  0.00    +0.011 A 
ATOM     27  C   UNL     1      -7.557 -13.030   0.855  0.00  0.00    +0.008 A 
ATOM     28  C   UNL     1      -7.497 -13.464  -0.428  0.00  0.00    +0.045 A 
ATOM     29  S   UNL     1      -7.726 -11.948  -1.342  0.00  0.00    -0.102 S 
ENDBRANCH  24  25
ENDBRANCH  23  24
ENDBRANCH  21  23
ENDBRANCH   8  19
TORSDOF 6
