REMARK  Name = ZINC35993623
REMARK  8 active torsions:
REMARK  status: ('A' for Active; 'I' for Inactive)
REMARK    1  A    between atoms: C_1  and  C_2
REMARK    2  A    between atoms: C_3  and  C_16
REMARK    3  A    between atoms: C_8  and  C_10
REMARK    4  A    between atoms: C_16  and  C_17
REMARK    5  A    between atoms: C_17  and  C_19
REMARK    6  A    between atoms: C_17  and  C_20
REMARK    7  A    between atoms: N_22  and  N_23
REMARK    8  A    between atoms: C_24  and  C_25
REMARK                            x       y       z     vdW  Elec       q    Type
REMARK                         _______ _______ _______ _____ _____    ______ ____
ROOT
ATOM      1  C   UNL     1      -0.385   3.155   0.573  0.00  0.00    +0.066 C 
ATOM      2  C   UNL     1       0.182   1.812   0.194  0.00  0.00    +0.049 A 
ATOM      3  C   UNL     1      -0.657   0.778  -0.104  0.00  0.00    +0.039 A 
ATOM      4  C   UNL     1      -0.103  -0.468  -0.456  0.00  0.00    +0.255 A 
ATOM      5  O   UNL     1      -0.824  -1.414  -0.729  0.00  0.00    -0.268 OA
ATOM      6  N   UNL     1       1.240  -0.595  -0.485  0.00  0.00    -0.307 N 
ATOM      7  H   UNL     1       1.644  -1.444  -0.725  0.00  0.00    +0.170 HD
ATOM      8  C   UNL     1       2.027   0.474  -0.177  0.00  0.00    +0.141 A 
ATOM      9  N   UNL     1       1.501   1.637   0.146  0.00  0.00    -0.234 NA
ENDROOT
BRANCH   8  10
ATOM     10  C   UNL     1       3.497   0.327  -0.211  0.00  0.00    +0.017 A 
ATOM     11  C   UNL     1       4.072  -0.896  -0.562  0.00  0.00    +0.011 A 
ATOM     12  C   UNL     1       5.445  -1.026  -0.593  0.00  0.00    +0.001 A 
ATOM     13  C   UNL     1       6.252   0.052  -0.276  0.00  0.00    +0.000 A 
ATOM     14  C   UNL     1       5.689   1.267   0.073  0.00  0.00    +0.001 A 
ATOM     15  C   UNL     1       4.318   1.413   0.101  0.00  0.00    +0.011 A 
ENDBRANCH   8  10
BRANCH   3  16
ATOM     16  C   UNL     1      -2.152   0.967  -0.057  0.00  0.00    +0.055 C 
BRANCH  16  17
ATOM     17  C   UNL     1      -2.667   1.305  -1.457  0.00  0.00    +0.078 C 
ATOM     18  C   UNL     1      -2.102   2.657  -1.897  0.00  0.00    +0.017 C 
BRANCH  17  19
ATOM     19  C   UNL     1      -4.173   1.373  -1.435  0.00  0.00    +0.235 C 
ATOM     20  O   UNL     1      -4.774   1.171  -0.401  0.00  0.00    -0.274 OA
ATOM     21  N   UNL     1      -4.851   1.658  -2.565  0.00  0.00    -0.207 N 
ATOM     22  H   UNL     1      -4.370   1.819  -3.392  0.00  0.00    +0.177 HD
BRANCH  21  23
ATOM     23  N   UNL     1      -6.250   1.721  -2.545  0.00  0.00    -0.188 NA
ATOM     24  C   UNL     1      -6.909   1.878  -3.651  0.00  0.00    +0.138 C 
BRANCH  24  25
ATOM     25  C   UNL     1      -6.283   1.523  -4.939  0.00  0.00    -0.005 A 
ATOM     26  C   UNL     1      -5.110   0.764  -4.963  0.00  0.00    +0.009 A 
ATOM     27  C   UNL     1      -4.531   0.435  -6.171  0.00  0.00    +0.001 A 
ATOM     28  C   UNL     1      -5.107   0.856  -7.356  0.00  0.00    +0.000 A 
ATOM     29  C   UNL     1      -6.269   1.608  -7.340  0.00  0.00    +0.001 A 
ATOM     30  C   UNL     1      -6.862   1.939  -6.139  0.00  0.00    +0.009 A 
ENDBRANCH  24  25
ENDBRANCH  21  23
ENDBRANCH  17  19
ENDBRANCH  16  17
ENDBRANCH   3  16
TORSDOF 6
