REMARK  Name = ZINC42453718
REMARK  8 active torsions:
REMARK  status: ('A' for Active; 'I' for Inactive)
REMARK    1  A    between atoms: C_1  and  C_2
REMARK    2  A    between atoms: C_3  and  C_4
REMARK    3  A    between atoms: C_4  and  N_5
REMARK    4  A    between atoms: C_8  and  C_12
REMARK    5  A    between atoms: C_8  and  C_20
REMARK    6  A    between atoms: C_12  and  C_13
REMARK    7  A    between atoms: N_23  and  C_26
REMARK    8  A    between atoms: C_26  and  C_27
REMARK                            x       y       z     vdW  Elec       q    Type
REMARK                         _______ _______ _______ _____ _____    ______ ____
ROOT
ATOM      1  N   UNL     1      -1.336  -3.157  -0.002  0.00  0.00    -0.212 N 
ATOM      2  C   UNL     1      -2.038  -3.420   1.118  0.00  0.00    +0.248 C 
ATOM      3  O   UNL     1      -1.665  -3.287   2.264  0.00  0.00    -0.273 OA
ATOM      4  C   UNL     1      -3.391  -3.916   0.648  0.00  0.00    +0.119 C 
ATOM      5  N   UNL     1      -3.284  -3.871  -0.821  0.00  0.00    -0.284 N 
ATOM      6  C   UNL     1      -2.052  -3.411  -1.104  0.00  0.00    +0.310 C 
ATOM      7  O   UNL     1      -1.635  -3.247  -2.233  0.00  0.00    -0.252 OA
ATOM      8  H   UNL     1      -3.970  -4.121  -1.460  0.00  0.00    +0.151 HD
ENDROOT
BRANCH   4   9
ATOM      9  C   UNL     1      -4.504  -2.987   1.135  0.00  0.00    +0.024 C 
ATOM     10  C   UNL     1      -4.586  -3.045   2.663  0.00  0.00    +0.021 C 
ATOM     11  C   UNL     1      -5.660  -2.069   3.149  0.00  0.00    +0.085 C 
ATOM     12  N   UNL     1      -5.322  -0.709   2.710  0.00  0.00    -0.295 NA
ATOM     13  C   UNL     1      -5.284  -0.618   1.245  0.00  0.00    +0.085 C 
ATOM     14  C   UNL     1      -4.199  -1.551   0.702  0.00  0.00    +0.021 C 
BRANCH  12  15
ATOM     15  C   UNL     1      -6.256   0.274   3.275  0.00  0.00    +0.156 C 
BRANCH  15  16
ATOM     16  C   UNL     1      -5.742   1.665   3.010  0.00  0.00    +0.099 A 
ATOM     17  N   UNL     1      -4.492   1.981   2.712  0.00  0.00    -0.349 N 
ATOM     18  H   UNL     1      -3.753   1.358   2.628  0.00  0.00    +0.166 HD
ATOM     19  C   UNL     1      -4.422   3.318   2.545  0.00  0.00    +0.101 A 
ATOM     20  C   UNL     1      -5.659   3.814   2.748  0.00  0.00    +0.101 A 
ATOM     21  N   UNL     1      -6.468   2.772   3.031  0.00  0.00    -0.349 N 
ATOM     22  H   UNL     1      -7.418   2.825   3.220  0.00  0.00    +0.166 HD
ENDBRANCH  15  16
ENDBRANCH  12  15
ENDBRANCH   4   9
BRANCH   1  23
ATOM     23  C   UNL     1       0.038  -2.650  -0.013  0.00  0.00    +0.206 C 
BRANCH  23  26
ATOM     24  C   UNL     1      -0.018   1.468   0.010  0.00  0.00    +0.106 C 
ATOM     25  C   UNL     1       0.002  -0.004   0.002  0.00  0.00    -0.104 C 
ATOM     26  C   UNL     1       0.018  -1.178  -0.004  0.00  0.00    -0.083 C 
ENDBRANCH  23  26
ENDBRANCH   1  23
BRANCH   4  27
ATOM     27  C   UNL     1      -3.635  -5.349   1.126  0.00  0.00    +0.070 C 
BRANCH  27  28
ATOM     28  C   UNL     1      -2.554  -6.250   0.586  0.00  0.00    -0.042 A 
ATOM     29  C   UNL     1      -2.719  -6.870  -0.638  0.00  0.00    +0.004 A 
ATOM     30  C   UNL     1      -1.728  -7.697  -1.135  0.00  0.00    +0.003 A 
ATOM     31  C   UNL     1      -0.571  -7.904  -0.407  0.00  0.00    +0.038 A 
ATOM     32  C   UNL     1      -0.405  -7.283   0.819  0.00  0.00    +0.124 A 
ATOM     33  C   UNL     1      -1.395  -6.450   1.312  0.00  0.00    +0.042 A 
ATOM     34  F   UNL     1       0.726  -7.484   1.531  0.00  0.00    -0.205 F 
ENDBRANCH  27  28
ENDBRANCH   4  27
TORSDOF 7
