REMARK  Name = ZINC20885112
REMARK  7 active torsions:
REMARK  status: ('A' for Active; 'I' for Inactive)
REMARK    1  A    between atoms: C_1  and  C_2
REMARK    2  A    between atoms: C_2  and  C_3
REMARK    3  A    between atoms: C_3  and  C_4
REMARK    4  A    between atoms: C_4  and  O_5
REMARK    5  A    between atoms: O_5  and  C_6
REMARK    6  A    between atoms: C_11  and  C_12
REMARK    7  A    between atoms: C_17  and  C_22
REMARK                            x       y       z     vdW  Elec       q    Type
REMARK                         _______ _______ _______ _____ _____    ______ ____
ROOT
ATOM      1  C   UNL     1       0.510   5.877   1.340  0.00  0.00    +0.139 C 
ATOM      2  C   UNL     1       1.983   5.590   1.507  0.00  0.00    +0.037 C 
ATOM      3  C   UNL     1       2.695   4.687   0.813  0.00  0.00    +0.017 C 
ATOM      4  C   UNL     1       4.173   4.484   1.099  0.00  0.00    +0.060 C 
ATOM      5  C   UNL     1       4.804   5.803   1.543  0.00  0.00    +0.039 C 
ATOM      6  C   UNL     1       4.073   6.268   2.808  0.00  0.00    +0.088 C 
ATOM      7  C   UNL     1       2.610   6.380   2.500  0.00  0.00    +0.163 C 
ATOM      8  O   UNL     1       1.939   7.178   3.124  0.00  0.00    -0.292 OA
ATOM      9  N   UNL     1       2.192   3.894  -0.166  0.00  0.00    -0.316 N 
ATOM     10  C   UNL     1       1.006   3.176  -0.072  0.00  0.00    +0.052 A 
ATOM     11  C   UNL     1       0.976   1.792  -0.116  0.00  0.00    +0.025 A 
ATOM     12  C   UNL     1      -0.245   1.139  -0.104  0.00  0.00    +0.002 A 
ATOM     13  C   UNL     1      -1.423   1.862  -0.054  0.00  0.00    +0.002 A 
ATOM     14  C   UNL     1      -1.394   3.245   0.012  0.00  0.00    +0.025 A 
ATOM     15  C   UNL     1      -0.174   3.900   0.017  0.00  0.00    +0.049 A 
ATOM     16  N   UNL     1      -0.088   5.284   0.162  0.00  0.00    -0.331 N 
ATOM     17  H   UNL     1       2.732   3.786  -1.118  0.00  0.00    +0.152 HD
ATOM     18  H   UNL     1      -0.485   5.928  -0.636  0.00  0.00    +0.147 HD
ENDROOT
BRANCH   1  24
ATOM     19  C   UNL     1      -1.465   5.863   2.884  0.00  0.00    +0.126 A 
ATOM     20  C   UNL     1      -2.131   5.384   4.004  0.00  0.00    +0.046 A 
ATOM     21  C   UNL     1      -1.546   4.409   4.788  0.00  0.00    +0.004 A 
ATOM     22  C   UNL     1      -0.300   3.909   4.459  0.00  0.00    +0.001 A 
ATOM     23  C   UNL     1       0.362   4.380   3.341  0.00  0.00    +0.009 A 
ATOM     24  C   UNL     1      -0.215   5.360   2.556  0.00  0.00    +0.019 A 
BRANCH  19  25
ATOM     25  O   UNL     1      -2.038   6.822   2.111  0.00  0.00    -0.492 OA
BRANCH  25  26
ATOM     26  C   UNL     1      -3.327   7.293   2.510  0.00  0.00    +0.229 C 
BRANCH  26  27
ATOM     27  C   UNL     1      -3.806   8.362   1.525  0.00  0.00    +0.041 C 
BRANCH  27  29
ATOM     28  C   UNL     1      -5.665   9.935   0.968  0.00  0.00    +0.004 C 
ATOM     29  C   UNL     1      -5.186   8.867   1.952  0.00  0.00    -0.000 C 
ENDBRANCH  27  29
ENDBRANCH  26  27
ENDBRANCH  25  26
ENDBRANCH  19  25
ENDBRANCH   1  24
BRANCH   5  30
ATOM     30  C   UNL     1       6.265   5.594   1.845  0.00  0.00    -0.006 A 
ATOM     31  C   UNL     1       7.347   6.178   1.274  0.00  0.00    +0.011 A 
ATOM     32  C   UNL     1       8.609   5.829   1.717  0.00  0.00    +0.008 A 
ATOM     33  C   UNL     1       8.728   4.914   2.709  0.00  0.00    +0.045 A 
ATOM     34  S   UNL     1       7.021   4.520   3.054  0.00  0.00    -0.101 S 
ENDBRANCH   5  30
TORSDOF 6
