REMARK  Name = ZINC57890770
REMARK  7 active torsions:
REMARK  status: ('A' for Active; 'I' for Inactive)
REMARK    1  A    between atoms: C_1  and  C_2
REMARK    2  A    between atoms: C_2  and  C_3
REMARK    3  A    between atoms: C_2  and  N_14
REMARK    4  A    between atoms: C_9  and  O_12
REMARK    5  A    between atoms: O_12  and  C_13
REMARK    6  A    between atoms: N_17  and  C_18
REMARK    7  A    between atoms: C_18  and  C_19
REMARK                            x       y       z     vdW  Elec       q    Type
REMARK                         _______ _______ _______ _____ _____    ______ ____
ROOT
ATOM      1  N   UNL     1       0.688  -0.476  -1.203  0.00  0.00    -0.290 N 
ATOM      2  C   UNL     1       0.006  -0.608  -2.358  0.00  0.00    +0.300 C 
ATOM      3  O   UNL     1      -1.178  -0.335  -2.400  0.00  0.00    -0.253 OA
ATOM      4  N   UNL     1       0.637  -1.043  -3.467  0.00  0.00    -0.295 N 
ATOM      5  H   UNL     1       1.632  -0.695  -1.170  0.00  0.00    +0.151 HD
ATOM      6  H   UNL     1       1.582  -1.261  -3.434  0.00  0.00    +0.151 HD
ENDROOT
BRANCH   1   8
ATOM      7  C   UNL     1      -0.019   1.526   0.010  0.00  0.00    +0.036 C 
ATOM      8  C   UNL     1       0.002  -0.004   0.002  0.00  0.00    +0.137 C 
BRANCH   8   9
ATOM      9  C   UNL     1       0.731  -0.503   1.223  0.00  0.00    +0.126 A 
ATOM     10  C   UNL     1       0.141  -0.958   2.337  0.00  0.00    +0.055 A 
ATOM     11  C   UNL     1       1.226  -1.332   3.252  0.00  0.00    +0.024 A 
ATOM     12  C   UNL     1       1.274  -1.859   4.543  0.00  0.00    +0.012 A 
ATOM     13  C   UNL     1       2.483  -2.101   5.133  0.00  0.00    +0.004 A 
ATOM     14  C   UNL     1       3.663  -1.825   4.458  0.00  0.00    +0.049 A 
ATOM     15  C   UNL     1       3.637  -1.302   3.178  0.00  0.00    +0.163 A 
ATOM     16  C   UNL     1       2.413  -1.050   2.560  0.00  0.00    +0.177 A 
ATOM     17  O   UNL     1       2.068  -0.562   1.351  0.00  0.00    -0.454 OA
BRANCH  15  18
ATOM     18  O   UNL     1       4.800  -1.036   2.526  0.00  0.00    -0.491 OA
ATOM     19  C   UNL     1       6.014  -1.320   3.222  0.00  0.00    +0.277 C 
ENDBRANCH  15  18
ENDBRANCH   8   9
ENDBRANCH   1   8
BRANCH   4  20
ATOM     20  C   UNL     1      -0.104  -1.186  -4.723  0.00  0.00    +0.141 C 
BRANCH  20  21
ATOM     21  C   UNL     1       0.825  -1.684  -5.800  0.00  0.00    -0.025 A 
ATOM     22  C   UNL     1       1.526  -0.782  -6.579  0.00  0.00    +0.043 A 
ATOM     23  C   UNL     1       2.379  -1.239  -7.569  0.00  0.00    +0.126 A 
ATOM     24  C   UNL     1       2.530  -2.599  -7.779  0.00  0.00    +0.076 A 
ATOM     25  C   UNL     1       1.828  -3.501  -6.999  0.00  0.00    +0.126 A 
ATOM     26  C   UNL     1       0.979  -3.042  -6.005  0.00  0.00    +0.043 A 
ATOM     27  F   UNL     1       1.975  -4.828  -7.202  0.00  0.00    -0.205 F 
ATOM     28  F   UNL     1       3.063  -0.357  -8.331  0.00  0.00    -0.205 F 
ENDBRANCH  20  21
ENDBRANCH   4  20
TORSDOF 5
