REMARK  Name = ZINC04081944
REMARK  6 active torsions:
REMARK  status: ('A' for Active; 'I' for Inactive)
REMARK    1  A    between atoms: C_10  and  C_12
REMARK    2  A    between atoms: N_14  and  C_15
REMARK    3  A    between atoms: C_15  and  C_16
REMARK    4  A    between atoms: C_16  and  N_17
REMARK    5  A    between atoms: N_17  and  C_18
REMARK    6  A    between atoms: C_21  and  N_24
REMARK                            x       y       z     vdW  Elec       q    Type
REMARK                         _______ _______ _______ _____ _____    ______ ____
ROOT
ATOM      1  C   UNL     1       1.218  -2.169  -0.021  0.00  0.00    +0.245 C 
ATOM      2  O   UNL     1       2.272  -2.767  -0.127  0.00  0.00    -0.270 OA
ATOM      3  N   UNL     1       0.063  -2.854   0.089  0.00  0.00    -0.310 N 
ATOM      4  H   UNL     1      -0.778  -2.377   0.174  0.00  0.00    +0.149 HD
ENDROOT
BRANCH   1  14
ATOM      5  C   UNL     1      -0.017   1.385  -0.009  0.00  0.00    +0.001 A 
ATOM      6  C   UNL     1       1.140   2.106   0.002  0.00  0.00    +0.009 A 
ATOM      7  C   UNL     1       2.381   1.448   0.005  0.00  0.00    -0.003 A 
ATOM      8  C   UNL     1       2.421   0.033  -0.002  0.00  0.00    -0.005 A 
ATOM      9  C   UNL     1       3.660  -0.622   0.001  0.00  0.00    +0.009 A 
ATOM     10  C   UNL     1       4.811   0.109   0.011  0.00  0.00    +0.002 A 
ATOM     11  C   UNL     1       4.774   1.501   0.018  0.00  0.00    +0.016 A 
ATOM     12  C   UNL     1       3.588   2.171   0.016  0.00  0.00    +0.026 A 
ATOM     13 BR   UNL     1       3.564   4.062   0.027  0.00  0.00    -0.050 Br
ATOM     14  C   UNL     1       1.205  -0.695  -0.013  0.00  0.00    +0.044 A 
ATOM     15  C   UNL     1       0.002  -0.004  -0.017  0.00  0.00    +0.013 A 
ENDBRANCH   1  14
BRANCH   3  16
ATOM     16  C   UNL     1       0.076  -4.319   0.081  0.00  0.00    +0.123 C 
BRANCH  16  17
ATOM     17  C   UNL     1      -1.355  -4.843   0.218  0.00  0.00    +0.120 C 
BRANCH  17  18
ATOM     18  N   UNL     1      -1.342  -6.308   0.210  0.00  0.00    -0.342 N 
ATOM     19  H   UNL     1      -0.502  -6.785   0.125  0.00  0.00    +0.146 HD
BRANCH  18  20
ATOM     20  C   UNL     1      -2.540  -7.017   0.324  0.00  0.00    +0.027 A 
ATOM     21  C   UNL     1      -3.745  -6.336   0.440  0.00  0.00    +0.025 A 
ATOM     22  C   UNL     1      -4.927  -7.040   0.552  0.00  0.00    +0.034 A 
ATOM     23  C   UNL     1      -4.912  -8.423   0.549  0.00  0.00    +0.126 A 
ATOM     24  C   UNL     1      -3.715  -9.105   0.434  0.00  0.00    +0.034 A 
ATOM     25  C   UNL     1      -2.529  -8.406   0.316  0.00  0.00    +0.025 A 
BRANCH  23  26
ATOM     26  N   UNL     1      -6.181  -9.175   0.669  0.00  0.00    +0.056 N 
ATOM     27  O   UNL     1      -7.229  -8.581   0.770  0.00  0.00    -0.126 OA
ATOM     28  O   UNL     1      -6.170 -10.384   0.667  0.00  0.00    -0.126 OA
ENDBRANCH  23  26
ENDBRANCH  18  20
ENDBRANCH  17  18
ENDBRANCH  16  17
ENDBRANCH   3  16
TORSDOF 6
