REMARK  Name = ZINC00104459
REMARK  2 active torsions:
REMARK  status: ('A' for Active; 'I' for Inactive)
REMARK    1  A    between atoms: C_4  and  N_7
REMARK    2  A    between atoms: C_8  and  C_19
REMARK                            x       y       z     vdW  Elec       q    Type
REMARK                         _______ _______ _______ _____ _____    ______ ____
ROOT
ATOM      1  N   UNL     1      -1.188   1.876   0.018  0.00  0.00    -0.244 N 
ATOM      2  C   UNL     1      -1.203   3.334   0.126  0.00  0.00    +0.200 C 
ATOM      3  N   UNL     1       0.067   3.818   0.681  0.00  0.00    -0.321 N 
ATOM      4  C   UNL     1       1.254   3.265   0.215  0.00  0.00    +0.041 A 
ATOM      5  C   UNL     1       2.439   3.981   0.208  0.00  0.00    +0.024 A 
ATOM      6  C   UNL     1       3.600   3.379  -0.238  0.00  0.00    +0.002 A 
ATOM      7  C   UNL     1       3.588   2.064  -0.677  0.00  0.00    +0.001 A 
ATOM      8  C   UNL     1       2.414   1.338  -0.681  0.00  0.00    +0.015 A 
ATOM      9  C   UNL     1       1.234   1.937  -0.245  0.00  0.00    +0.058 A 
ATOM     10  C   UNL     1      -0.045   1.206  -0.235  0.00  0.00    +0.254 C 
ATOM     11  O   UNL     1      -0.071   0.011  -0.457  0.00  0.00    -0.270 OA
ATOM     12  H   UNL     1       0.077   4.512   1.359  0.00  0.00    +0.148 HD
ENDROOT
BRANCH   2  13
ATOM     13  C   UNL     1      -1.407   3.926  -1.244  0.00  0.00    +0.026 A 
ATOM     14  C   UNL     1      -0.798   5.121  -1.579  0.00  0.00    +0.010 A 
ATOM     15  C   UNL     1      -0.985   5.664  -2.836  0.00  0.00    +0.001 A 
ATOM     16  C   UNL     1      -1.780   5.013  -3.761  0.00  0.00    +0.003 A 
ATOM     17  C   UNL     1      -2.390   3.818  -3.429  0.00  0.00    +0.039 A 
ATOM     18  C   UNL     1      -2.200   3.271  -2.171  0.00  0.00    +0.130 A 
ATOM     19  F   UNL     1      -2.791   2.100  -1.846  0.00  0.00    -0.205 F 
ENDBRANCH   2  13
BRANCH   1  23
ATOM     20  C   UNL     1      -4.737  -0.248   0.513  0.00  0.00    +0.000 A 
ATOM     21  C   UNL     1      -3.537  -0.926   0.398  0.00  0.00    +0.002 A 
ATOM     22  C   UNL     1      -2.359  -0.225   0.234  0.00  0.00    +0.023 A 
ATOM     23  C   UNL     1      -2.379   1.163   0.184  0.00  0.00    +0.039 A 
ATOM     24  C   UNL     1      -3.585   1.841   0.305  0.00  0.00    +0.023 A 
ATOM     25  C   UNL     1      -4.761   1.134   0.463  0.00  0.00    +0.002 A 
ENDBRANCH   1  23
TORSDOF 2
