REMARK  Name = ZINC64839613
REMARK  8 active torsions:
REMARK  status: ('A' for Active; 'I' for Inactive)
REMARK    1  A    between atoms: C_1  and  C_2
REMARK    2  A    between atoms: C_2  and  C_4
REMARK    3  A    between atoms: C_2  and  N_22
REMARK    4  A    between atoms: N_6  and  C_7
REMARK    5  A    between atoms: C_7  and  C_8
REMARK    6  A    between atoms: N_11  and  C_14
REMARK    7  A    between atoms: C_14  and  C_15
REMARK    8  A    between atoms: N_33  and  C_36
REMARK                            x       y       z     vdW  Elec       q    Type
REMARK                         _______ _______ _______ _____ _____    ______ ____
ROOT
ATOM      1  C   UNL     1       0.731  -0.503   1.223  0.00  0.00    +0.236 C 
ATOM      2  O   UNL     1       0.159  -1.213   2.023  0.00  0.00    -0.274 OA
ATOM      3  N   UNL     1       2.019  -0.161   1.426  0.00  0.00    -0.313 N 
ATOM      4  H   UNL     1       2.476   0.406   0.786  0.00  0.00    +0.149 HD
ENDROOT
BRANCH   1   6
ATOM      5  C   UNL     1      -0.019   1.526   0.010  0.00  0.00    +0.041 C 
ATOM      6  C   UNL     1       0.002  -0.004   0.002  0.00  0.00    +0.170 C 
BRANCH   6   7
ATOM      7  N   UNL     1      -1.372  -0.511   0.012  0.00  0.00    -0.324 N 
ATOM      8  C   UNL     1      -2.300  -0.254   0.999  0.00  0.00    +0.051 A 
ATOM      9  C   UNL     1      -2.243   0.488   2.177  0.00  0.00    +0.026 A 
ATOM     10  C   UNL     1      -3.351   0.572   2.990  0.00  0.00    +0.002 A 
ATOM     11  C   UNL     1      -4.529  -0.078   2.648  0.00  0.00    +0.001 A 
ATOM     12  C   UNL     1      -4.606  -0.811   1.498  0.00  0.00    +0.010 A 
ATOM     13  C   UNL     1      -3.496  -0.909   0.659  0.00  0.00    +0.009 A 
ATOM     14  C   UNL     1      -3.244  -1.595  -0.616  0.00  0.00    +0.033 A 
ATOM     15  C   UNL     1      -1.925  -1.309  -0.966  0.00  0.00    +0.119 A 
ATOM     16  C   UNL     1      -1.414  -1.846  -2.171  0.00  0.00    +0.291 A 
ATOM     17  O   UNL     1      -0.263  -1.620  -2.508  0.00  0.00    -0.264 OA
ATOM     18  N   UNL     1      -2.212  -2.611  -2.944  0.00  0.00    -0.231 N 
ATOM     19  N   UNL     1      -3.532  -2.877  -2.569  0.00  0.00    -0.176 NA
ATOM     20  C   UNL     1      -4.031  -2.405  -1.461  0.00  0.00    +0.143 A 
ATOM     21  C   UNL     1      -1.688  -3.169  -4.193  0.00  0.00    +0.176 C 
ENDBRANCH   6   7
ENDBRANCH   1   6
BRANCH   3  22
ATOM     22  C   UNL     1       2.727  -0.647   2.613  0.00  0.00    +0.107 C 
BRANCH  22  23
ATOM     23  C   UNL     1       4.163  -0.117   2.602  0.00  0.00    +0.003 C 
ATOM     24  C   UNL     1       4.147   1.407   2.746  0.00  0.00    -0.014 C 
ATOM     25  C   UNL     1       5.586   1.923   2.814  0.00  0.00    -0.078 C 
ATOM     26  N   UNL     1       6.269   1.327   3.970  0.00  0.00    +0.382 N 
ATOM     27  C   UNL     1       6.351  -0.129   3.804  0.00  0.00    -0.078 C 
ATOM     28  C   UNL     1       4.941  -0.723   3.773  0.00  0.00    -0.014 C 
ATOM     29  H   UNL     1       5.753   1.541   4.810  0.00  0.00    -0.081 HD
BRANCH  26  30
ATOM     30  C   UNL     1       7.624   1.884   4.076  0.00  0.00    -0.043 C 
BRANCH  30  31
ATOM     31  C   UNL     1       8.282   1.367   5.330  0.00  0.00    -0.064 A 
ATOM     32  C   UNL     1       8.147   2.062   6.517  0.00  0.00    +0.003 A 
ATOM     33  C   UNL     1       8.750   1.589   7.667  0.00  0.00    +0.020 A 
ATOM     34  C   UNL     1       9.489   0.420   7.630  0.00  0.00    +0.041 A 
ATOM     35  C   UNL     1       9.623  -0.275   6.441  0.00  0.00    +0.020 A 
ATOM     36  C   UNL     1       9.015   0.196   5.293  0.00  0.00    +0.003 A 
ATOM     37 CL   UNL     1      10.247  -0.174   9.074  0.00  0.00    -0.084 Cl
ENDBRANCH  30  31
ENDBRANCH  26  30
ENDBRANCH  22  23
ENDBRANCH   3  22
TORSDOF 6
