REMARK  Name = ZINC45383094
REMARK  7 active torsions:
REMARK  status: ('A' for Active; 'I' for Inactive)
REMARK    1  A    between atoms: C_1  and  C_2
REMARK    2  A    between atoms: C_2  and  C_4
REMARK    3  A    between atoms: C_2  and  N_13
REMARK    4  A    between atoms: C_4  and  C_5
REMARK    5  A    between atoms: C_5  and  C_6
REMARK    6  A    between atoms: C_9  and  O_12
REMARK    7  A    between atoms: C_20  and  C_22
REMARK                            x       y       z     vdW  Elec       q    Type
REMARK                         _______ _______ _______ _____ _____    ______ ____
ROOT
ATOM      1  N   UNL     1       0.711  -0.489   1.189  0.00  0.00    -0.297 N 
ATOM      2  C   UNL     1       2.054  -0.600   1.174  0.00  0.00    +0.303 C 
ATOM      3  O   UNL     1       2.677  -0.297   0.175  0.00  0.00    -0.253 OA
ATOM      4  N   UNL     1       2.706  -1.046   2.266  0.00  0.00    -0.279 N 
ATOM      5  C   UNL     1       2.077  -1.453   3.535  0.00  0.00    +0.110 C 
ATOM      6  C   UNL     1       3.092  -2.424   4.188  0.00  0.00    +0.021 C 
ATOM      7  C   UNL     1       4.444  -1.770   3.797  0.00  0.00    +0.029 C 
ATOM      8  C   UNL     1       4.161  -1.215   2.385  0.00  0.00    +0.108 C 
ATOM      9  H   UNL     1       0.213  -0.731   1.986  0.00  0.00    +0.151 HD
ENDROOT
BRANCH   8  10
ATOM     10  C   UNL     1       4.847   0.116   2.215  0.00  0.00    -0.023 A 
ATOM     11  C   UNL     1       4.285   1.257   2.757  0.00  0.00    +0.009 A 
ATOM     12  C   UNL     1       4.910   2.479   2.602  0.00  0.00    +0.050 A 
ATOM     13  C   UNL     1       6.104   2.565   1.901  0.00  0.00    +0.162 A 
ATOM     14  C   UNL     1       6.670   1.419   1.357  0.00  0.00    +0.162 A 
ATOM     15  C   UNL     1       6.040   0.194   1.521  0.00  0.00    +0.055 A 
ATOM     16  O   UNL     1       7.845   1.479   0.672  0.00  0.00    -0.485 OA
ATOM     17  C   UNL     1       8.257   2.772   0.215  0.00  0.00    +0.270 C 
ATOM     18  C   UNL     1       8.085   3.768   1.370  0.00  0.00    +0.270 C 
ATOM     19  O   UNL     1       6.705   3.777   1.752  0.00  0.00    -0.485 OA
ENDBRANCH   8  10
BRANCH   1  21
ATOM     20  C   UNL     1      -0.019   1.526   0.010  0.00  0.00    +0.028 C 
ATOM     21  C   UNL     1       0.002  -0.004   0.002  0.00  0.00    +0.072 C 
BRANCH  21  22
ATOM     22  C   UNL     1      -1.433  -0.534   0.013  0.00  0.00    +0.026 C 
BRANCH  22  23
ATOM     23  C   UNL     1      -1.416  -2.058  -0.121  0.00  0.00    +0.037 C 
BRANCH  23  24
ATOM     24  C   UNL     1      -2.829  -2.579  -0.111  0.00  0.00    -0.047 A 
ATOM     25  C   UNL     1      -3.431  -2.917   1.087  0.00  0.00    +0.007 A 
ATOM     26  C   UNL     1      -4.727  -3.396   1.100  0.00  0.00    +0.045 A 
ATOM     27  C   UNL     1      -5.425  -3.537  -0.091  0.00  0.00    +0.117 A 
ATOM     28  C   UNL     1      -4.819  -3.197  -1.292  0.00  0.00    +0.045 A 
ATOM     29  C   UNL     1      -3.525  -2.714  -1.298  0.00  0.00    +0.007 A 
BRANCH  27  30
ATOM     30  O   UNL     1      -6.699  -4.008  -0.081  0.00  0.00    -0.507 OA
ATOM     31  H   UNL     1      -7.373  -3.320   0.002  0.00  0.00    +0.292 HD
ENDBRANCH  27  30
ENDBRANCH  23  24
ENDBRANCH  22  23
ENDBRANCH  21  22
ENDBRANCH   1  21
TORSDOF 6
