REMARK  Name = ZINC48655912
REMARK  8 active torsions:
REMARK  status: ('A' for Active; 'I' for Inactive)
REMARK    1  A    between atoms: C_1  and  C_2
REMARK    2  A    between atoms: C_2  and  C_3
REMARK    3  A    between atoms: C_6  and  S_8
REMARK    4  A    between atoms: S_8  and  N_11
REMARK    5  A    between atoms: N_11  and  C_12
REMARK    6  A    between atoms: N_11  and  C_13
REMARK    7  A    between atoms: C_15  and  C_20
REMARK    8  A    between atoms: C_18  and  C_19
REMARK                            x       y       z     vdW  Elec       q    Type
REMARK                         _______ _______ _______ _____ _____    ______ ____
ROOT
ATOM      1  S   UNL     1       1.776  -1.891  -5.176  0.00  0.00    +0.081 S 
ATOM      2  O   UNL     1       0.743  -1.309  -5.959  0.00  0.00    -0.149 OA
ATOM      3  O   UNL     1       3.150  -1.597  -5.386  0.00  0.00    -0.149 OA
ENDROOT
BRANCH   1   7
ATOM      4  C   UNL     1       0.443  -0.820  -1.076  0.00  0.00    -0.009 A 
ATOM      5  C   UNL     1       1.769  -1.069  -1.201  0.00  0.00    +0.013 A 
ATOM      6  C   UNL     1       2.272  -1.411  -2.442  0.00  0.00    +0.037 A 
ATOM      7  C   UNL     1       1.425  -1.486  -3.498  0.00  0.00    +0.146 A 
ATOM      8  S   UNL     1      -0.140  -1.073  -2.744  0.00  0.00    -0.073 S 
BRANCH   4  10
ATOM      9  C   UNL     1      -0.374   1.090   0.279  0.00  0.00    +0.009 C 
ATOM     10  C   UNL     1      -0.338  -0.434   0.154  0.00  0.00    +0.039 C 
ENDBRANCH   4  10
ENDBRANCH   1   7
BRANCH   1  11
ATOM     11  N   UNL     1       1.615  -3.533  -5.327  0.00  0.00    -0.205 N 
ATOM     12  C   UNL     1       0.296  -4.120  -5.574  0.00  0.00    +0.157 C 
BRANCH  11  13
ATOM     13  C   UNL     1       2.737  -4.357  -5.218  0.00  0.00    +0.054 A 
ATOM     14  C   UNL     1       3.062  -4.934  -3.996  0.00  0.00    +0.028 A 
ATOM     15  C   UNL     1       4.171  -5.749  -3.892  0.00  0.00    -0.049 A 
ATOM     16  C   UNL     1       4.960  -5.990  -5.002  0.00  0.00    +0.004 A 
ATOM     17  C   UNL     1       4.641  -5.418  -6.219  0.00  0.00    +0.005 A 
ATOM     18  C   UNL     1       3.529  -4.607  -6.331  0.00  0.00    -0.028 A 
ATOM     19  C   UNL     1       3.177  -3.988  -7.660  0.00  0.00    +0.046 C 
ATOM     20  C   UNL     1       4.524  -6.375  -2.567  0.00  0.00    +0.044 C 
ENDBRANCH  11  13
ENDBRANCH   1  11
TORSDOF 4
