REMARK  Name = ZINC08790138
REMARK  13 active torsions:
REMARK  status: ('A' for Active; 'I' for Inactive)
REMARK    1  A    between atoms: CD1_1  and  CG1_2
REMARK    2  A    between atoms: CG1_2  and  CB_3
REMARK    3  A    between atoms: CB_3  and  CG2_5
REMARK    4  A    between atoms: CB_3  and  CA_6
REMARK    5  A    between atoms: CA_6  and  C_8
REMARK    6  A    between atoms: CA_6  and  N_16
REMARK    7  A    between atoms: N_10  and  CA_11
REMARK    8  A    between atoms: CA_11  and  CB_13
REMARK    9  A    between atoms: CA_11  and  C_14
REMARK   10  A    between atoms: C_14  and  O_15
REMARK   11  A    between atoms: C_17  and  C_19
REMARK   12  A    between atoms: C_21  and  C_34
REMARK   13  A    between atoms: C_21  and  C_35
REMARK                            x       y       z     vdW  Elec       q    Type
REMARK                         _______ _______ _______ _____ _____    ______ ____
ROOT
ATOM      1  N   ALA A   1      -6.844   3.407  -0.022  0.00  0.00    -0.302 N 
ATOM      2  C   UNK A   0      -5.540   3.538  -0.336  0.00  0.00    +0.236 C 
ATOM      3  O   UNK A   0      -5.175   3.398  -1.484  0.00  0.00    -0.274 OA
ATOM      4  H   ALA A   1      -7.135   3.519   0.896  0.00  0.00    +0.150 HD
ENDROOT
BRANCH   2   5
ATOM      5  C   UNK A   0      -4.534   3.857   0.740  0.00  0.00    +0.179 C 
ATOM      6  C   UNK A   0      -4.685   5.348   1.127  0.00  0.00    +0.040 C 
ATOM      7  S   UNK A   0      -3.080   6.046   0.539  0.00  0.00    -0.125 S 
ATOM      8  C   UNK A   0      -2.605   4.634  -0.529  0.00  0.00    +0.167 C 
ATOM      9  N   UNK A   0      -3.199   3.512   0.251  0.00  0.00    -0.269 N 
ATOM     10  C   UNK A   0      -2.266   2.535   0.268  0.00  0.00    +0.249 C 
ATOM     11  O   UNK A   0      -2.490   1.358   0.473  0.00  0.00    -0.270 OA
ATOM     12  C   UNK A   0      -0.936   3.113  -0.003  0.00  0.00    +0.043 A 
ATOM     13  C   UNK A   0      -1.120   4.414  -0.484  0.00  0.00    -0.005 A 
ATOM     14  C   UNK A   0      -0.033   5.188  -0.819  0.00  0.00    +0.007 A 
ATOM     15  C   UNK A   0       1.248   4.679  -0.689  0.00  0.00    +0.000 A 
ATOM     16  C   UNK A   0       1.440   3.391  -0.221  0.00  0.00    +0.001 A 
ATOM     17  C   UNK A   0       0.358   2.608   0.124  0.00  0.00    +0.013 A 
ATOM     18  C   UNK A   0      -4.831   5.509   2.642  0.00  0.00    +0.025 C 
ATOM     19  C   UNK A   0      -5.865   5.988   0.394  0.00  0.00    +0.025 C 
ENDBRANCH   2   5
BRANCH   1  20
ATOM     20  CA  ALA A   1      -7.822   3.096  -1.068  0.00  0.00    +0.162 C 
BRANCH  20  21
ATOM     21  C   ALA A   1      -9.182   3.590  -0.647  0.00  0.00    +0.234 C 
ATOM     22  O   ALA A   1      -9.422   3.779   0.527  0.00  0.00    -0.274 OA
ATOM     23  N   ALA A   1     -10.131   3.822  -1.575  0.00  0.00    -0.309 N 
ATOM     24  H   ALA A   1      -9.964   3.603  -2.505  0.00  0.00    +0.149 HD
BRANCH  23  25
ATOM     25  CA  ALA A   1     -11.416   4.404  -1.179  0.00  0.00    +0.095 C 
ATOM     26  CB  ALA A   1     -11.293   5.929  -1.136  0.00  0.00    +0.030 C 
BRANCH  25  27
ATOM     27  C   ALA A   1     -12.490   4.008  -2.193  0.00  0.00    +0.177 C 
BRANCH  27  28
ATOM     28  O   ALA A   1     -12.186   4.591  -3.462  0.00  0.00    -0.393 OA
ATOM     29  H   ALA A   1     -12.827   4.381  -4.155  0.00  0.00    +0.209 HD
ENDBRANCH  27  28
ENDBRANCH  25  27
ENDBRANCH  23  25
ENDBRANCH  20  21
BRANCH  20  30
ATOM     30  CB  ALA A   1      -7.873   1.583  -1.285  0.00  0.00    +0.015 C 
ATOM     31  CG2 ALA A   1      -8.134   0.885   0.052  0.00  0.00    +0.010 C 
BRANCH  30  33
ATOM     32  CD1 ALA A   1      -6.336   1.704  -3.250  0.00  0.00    +0.004 C 
ATOM     33  CG1 ALA A   1      -6.538   1.104  -1.857  0.00  0.00    +0.002 C 
ENDBRANCH  30  33
ENDBRANCH  20  30
ENDBRANCH   1  20
TORSDOF 8
