REMARK  Name = ZINC20584860
REMARK  9 active torsions:
REMARK  status: ('A' for Active; 'I' for Inactive)
REMARK    1  A    between atoms: C_1  and  C_2
REMARK    2  A    between atoms: C_2  and  C_3
REMARK    3  A    between atoms: C_8  and  N_9
REMARK    4  A    between atoms: C_11  and  C_16
REMARK    5  A    between atoms: C_22  and  C_24
REMARK    6  A    between atoms: N_29  and  C_31
REMARK    7  A    between atoms: C_34  and  O_37
REMARK    8  A    between atoms: O_37  and  C_38
REMARK    9  A    between atoms: C_38  and  C_39
REMARK                            x       y       z     vdW  Elec       q    Type
REMARK                         _______ _______ _______ _____ _____    ______ ____
ROOT
ATOM      1  C   UNL     1      -5.552   6.318  -6.303  0.00  0.00    +0.109 A 
ATOM      2  N   UNL     1      -4.576   5.492  -5.981  0.00  0.00    -0.144 NA
ATOM      3  N   UNL     1      -4.152   5.430  -4.795  0.00  0.00    -0.126 NA
ATOM      4  C   UNL     1      -4.667   6.170  -3.828  0.00  0.00    +0.188 A 
ATOM      5  S   UNL     1      -5.876   7.059  -4.707  0.00  0.00    -0.035 S 
ATOM      6  N   UNL     1      -4.331   6.226  -2.480  0.00  0.00    -0.263 N 
ATOM      7  C   UNL     1      -3.349   5.440  -1.996  0.00  0.00    +0.224 C 
ATOM      8  O   UNL     1      -2.758   4.683  -2.737  0.00  0.00    -0.275 OA
ATOM      9  H   UNL     1      -4.867   6.913  -1.808  0.00  0.00    +0.157 HD
ENDROOT
BRANCH   1  12
ATOM     10  N   UNL     1      -5.613   6.370  -9.950  0.00  0.00    -0.270 N 
ATOM     11  C   UNL     1      -5.167   6.988  -8.696  0.00  0.00    +0.124 C 
ATOM     12  C   UNL     1      -6.209   6.566  -7.636  0.00  0.00    +0.073 C 
ATOM     13  C   UNL     1      -6.757   5.251  -8.237  0.00  0.00    +0.108 C 
ATOM     14  C   UNL     1      -6.502   5.388  -9.723  0.00  0.00    +0.220 C 
ATOM     15  O   UNL     1      -7.023   4.709 -10.582  0.00  0.00    -0.275 OA
BRANCH  10  21
ATOM     16  C   UNL     1      -5.772   7.822 -11.874  0.00  0.00    -0.026 A 
ATOM     17  C   UNL     1      -5.333   8.199 -13.128  0.00  0.00    +0.005 A 
ATOM     18  C   UNL     1      -4.294   7.516 -13.733  0.00  0.00    +0.000 A 
ATOM     19  C   UNL     1      -3.692   6.453 -13.085  0.00  0.00    +0.002 A 
ATOM     20  C   UNL     1      -4.123   6.074 -11.829  0.00  0.00    +0.024 A 
ATOM     21  C   UNL     1      -5.170   6.755 -11.221  0.00  0.00    +0.039 A 
BRANCH  16  23
ATOM     22  C   UNL     1      -8.226   7.856 -11.517  0.00  0.00    +0.009 C 
ATOM     23  C   UNL     1      -6.905   8.567 -11.216  0.00  0.00    +0.033 C 
ENDBRANCH  16  23
ENDBRANCH  10  21
ENDBRANCH   1  12
BRANCH   7  24
ATOM     24  C   UNL     1      -2.985   5.501  -0.535  0.00  0.00    +0.102 C 
ATOM     25  C   UNL     1      -2.343   6.863  -0.181  0.00  0.00    +0.110 C 
ATOM     26  C   UNL     1      -0.856   6.620  -0.316  0.00  0.00    +0.221 C 
ATOM     27  O   UNL     1      -0.014   7.489  -0.394  0.00  0.00    -0.275 OA
ATOM     28  N   UNL     1      -0.603   5.300  -0.340  0.00  0.00    -0.271 N 
ATOM     29  C   UNL     1      -1.839   4.518  -0.209  0.00  0.00    +0.127 C 
BRANCH  28  30
ATOM     30  C   UNL     1       0.675   4.741  -0.468  0.00  0.00    +0.036 A 
ATOM     31  C   UNL     1       1.771   5.561  -0.705  0.00  0.00    +0.027 A 
ATOM     32  C   UNL     1       3.030   5.010  -0.837  0.00  0.00    +0.047 A 
ATOM     33  C   UNL     1       3.202   3.638  -0.723  0.00  0.00    +0.121 A 
ATOM     34  C   UNL     1       2.109   2.819  -0.481  0.00  0.00    +0.047 A 
ATOM     35  C   UNL     1       0.849   3.369  -0.354  0.00  0.00    +0.027 A 
BRANCH  33  36
ATOM     36  O   UNL     1       4.443   3.097  -0.847  0.00  0.00    -0.492 OA
BRANCH  36  37
ATOM     37  C   UNL     1       4.547   1.677  -0.718  0.00  0.00    +0.225 C 
ATOM     38  C   UNL     1       6.008   1.256  -0.886  0.00  0.00    +0.048 C 
ENDBRANCH  36  37
ENDBRANCH  33  36
ENDBRANCH  28  30
ENDBRANCH   7  24
TORSDOF 7
