REMARK  Name = ZINC14959418
REMARK  6 active torsions:
REMARK  status: ('A' for Active; 'I' for Inactive)
REMARK    1  A    between atoms: C_3  and  C_9
REMARK    2  A    between atoms: C_9  and  N_10
REMARK    3  A    between atoms: C_14  and  C_17
REMARK    4  A    between atoms: C_14  and  O_22
REMARK    5  A    between atoms: C_17  and  N_44
REMARK    6  A    between atoms: C_18  and  N_44
REMARK                            x       y       z     vdW  Elec       q    Type
REMARK                         _______ _______ _______ _____ _____    ______ ____
ROOT
ATOM      1  N   UNL     1      -2.809   0.790   1.381  0.00  0.00    -0.295 N 
ATOM      2  C   UNL     1      -3.592   1.663   2.247  0.00  0.00    +0.108 C 
ATOM      3  C   UNL     1      -3.404   1.271   3.713  0.00  0.00    +0.022 C 
ATOM      4  C   UNL     1      -3.647  -0.237   3.853  0.00  0.00    +0.044 C 
ATOM      5  C   UNL     1      -2.523  -0.978   3.123  0.00  0.00    +0.127 C 
ATOM      6  C   UNL     1      -2.346  -0.406   1.746  0.00  0.00    +0.246 C 
ATOM      7  O   UNL     1      -1.745  -1.064   0.924  0.00  0.00    -0.273 OA
ENDROOT
BRANCH   5   8
ATOM      8  O   UNL     1      -1.306  -0.838   3.859  0.00  0.00    -0.381 OA
ATOM      9  H   UNL     1      -0.549  -1.283   3.455  0.00  0.00    +0.211 HD
ENDBRANCH   5   8
BRANCH   1  10
ATOM     10  C   UNL     1      -2.519   1.253   0.021  0.00  0.00    +0.146 C 
BRANCH  10  13
ATOM     11  C   UNL     1      -0.054   4.113   0.024  0.00  0.00    +0.003 A 
ATOM     12  C   UNL     1      -1.242   3.405   0.031  0.00  0.00    +0.008 A 
ATOM     13  C   UNL     1      -1.224   2.023   0.019  0.00  0.00    +0.008 A 
ATOM     14  C   UNL     1      -0.016   1.347   0.009  0.00  0.00    +0.163 A 
ATOM     15  C   UNL     1       1.175   2.057   0.002  0.00  0.00    +0.159 A 
ATOM     16  C   UNL     1       1.153   3.441   0.009  0.00  0.00    +0.041 A 
ATOM     17  F   UNL     1       2.354   1.399  -0.012  0.00  0.00    -0.202 F 
ATOM     18  F   UNL     1       0.002  -0.004   0.002  0.00  0.00    -0.202 F 
ENDBRANCH  10  13
ENDBRANCH   1  10
BRANCH   5  19
ATOM     19  C   UNL     1      -2.882  -2.461   3.012  0.00  0.00    -0.037 C 
BRANCH  19  20
ATOM     20  N   UNL     1      -1.796  -3.169   2.308  0.00  0.00    +0.383 N 
ATOM     21  H   UNL     1      -0.922  -3.060   2.837  0.00  0.00    -0.085 HD
ATOM     22  H   UNL     1      -1.680  -2.766   1.371  0.00  0.00    -0.085 HD
BRANCH  20  23
ATOM     23  C   UNL     1      -2.115  -4.604   2.186  0.00  0.00    -0.072 C 
ATOM     24  C   UNL     1      -1.298  -5.497   3.134  0.00  0.00    -0.016 C 
ATOM     25  C   UNL     1      -1.183  -6.494   1.967  0.00  0.00    -0.003 C 
ATOM     26  C   UNL     1      -1.379  -5.294   1.025  0.00  0.00    -0.016 C 
ENDBRANCH  20  23
ENDBRANCH  19  20
ENDBRANCH   5  19
TORSDOF 6
