REMARK  Name = ZINC16806057
REMARK  6 active torsions:
REMARK  status: ('A' for Active; 'I' for Inactive)
REMARK    1  A    between atoms: C_1  and  C_2
REMARK    2  A    between atoms: C_3  and  C_26
REMARK    3  A    between atoms: C_4  and  C_15
REMARK    4  A    between atoms: N_13  and  C_14
REMARK    5  A    between atoms: C_15  and  N_17
REMARK    6  A    between atoms: C_18  and  C_20
REMARK                            x       y       z     vdW  Elec       q    Type
REMARK                         _______ _______ _______ _____ _____    ______ ____
ROOT
ATOM      1  C   UNL     1       3.062   3.652  -2.670  0.00  0.00    +0.064 C 
ATOM      2  C   UNL     1       3.052   4.449  -1.391  0.00  0.00    +0.031 A 
ATOM      3  C   UNL     1       1.955   4.718  -0.645  0.00  0.00    +0.015 A 
ATOM      4  C   UNL     1       2.416   5.524   0.501  0.00  0.00    +0.054 A 
ATOM      5  C   UNL     1       3.794   5.664   0.339  0.00  0.00    +0.129 A 
ATOM      6  N   UNL     1       4.156   5.017  -0.801  0.00  0.00    -0.297 N 
ATOM      7  C   UNL     1       5.537   5.165  -0.962  0.00  0.00    +0.072 A 
ATOM      8  C   UNL     1       6.422   4.718  -1.933  0.00  0.00    +0.028 A 
ATOM      9  C   UNL     1       7.764   5.024  -1.832  0.00  0.00    +0.002 A 
ATOM     10  C   UNL     1       8.231   5.776  -0.766  0.00  0.00    +0.002 A 
ATOM     11  C   UNL     1       7.359   6.225   0.204  0.00  0.00    +0.028 A 
ATOM     12  C   UNL     1       6.006   5.922   0.112  0.00  0.00    +0.067 A 
ATOM     13  N   UNL     1       4.912   6.225   0.913  0.00  0.00    -0.328 N 
ATOM     14  C   UNL     1       4.943   7.006   2.152  0.00  0.00    +0.151 C 
ENDROOT
BRANCH   3  15
ATOM     15  C   UNL     1       0.564   4.290  -0.926  0.00  0.00    -0.015 A 
ATOM     16  C   UNL     1       0.230   2.937  -0.909  0.00  0.00    +0.008 A 
ATOM     17  C   UNL     1      -1.066   2.545  -1.173  0.00  0.00    +0.001 A 
ATOM     18  C   UNL     1      -2.033   3.492  -1.459  0.00  0.00    +0.000 A 
ATOM     19  C   UNL     1      -1.710   4.837  -1.472  0.00  0.00    +0.001 A 
ATOM     20  C   UNL     1      -0.416   5.240  -1.210  0.00  0.00    +0.008 A 
ENDBRANCH   3  15
BRANCH   4  21
ATOM     21  C   UNL     1       1.622   6.048   1.552  0.00  0.00    +0.090 C 
ATOM     22  S   UNL     1       2.359   6.914   2.832  0.00  0.00    -0.034 S 
BRANCH  21  23
ATOM     23  N   UNL     1       0.287   5.863   1.544  0.00  0.00    -0.275 N 
ATOM     24  C   UNL     1      -0.468   6.360   2.543  0.00  0.00    +0.249 C 
ATOM     25  O   UNL     1       0.055   6.975   3.452  0.00  0.00    -0.270 OA
ATOM     26  H   UNL     1      -0.131   5.372   0.819  0.00  0.00    +0.156 HD
BRANCH  24  27
ATOM     27  C   UNL     1      -1.932   6.158   2.535  0.00  0.00    +0.037 A 
ATOM     28  C   UNL     1      -2.537   5.457   1.490  0.00  0.00    +0.013 A 
ATOM     29  C   UNL     1      -3.903   5.266   1.491  0.00  0.00    +0.001 A 
ATOM     30  C   UNL     1      -4.675   5.778   2.518  0.00  0.00    +0.000 A 
ATOM     31  C   UNL     1      -4.083   6.479   3.554  0.00  0.00    +0.001 A 
ATOM     32  C   UNL     1      -2.717   6.672   3.568  0.00  0.00    +0.013 A 
ENDBRANCH  24  27
ENDBRANCH  21  23
ENDBRANCH   4  21
TORSDOF 4
