REMARK  Name = ZINC36555543
REMARK  11 active torsions:
REMARK  status: ('A' for Active; 'I' for Inactive)
REMARK    1  A    between atoms: C_1  and  C_2
REMARK    2  A    between atoms: C_5  and  C_7
REMARK    3  A    between atoms: C_7  and  N_8
REMARK    4  A    between atoms: N_8  and  C_9
REMARK    5  A    between atoms: C_9  and  C_11
REMARK    6  A    between atoms: C_9  and  C_18
REMARK    7  A    between atoms: C_14  and  O_17
REMARK    8  A    between atoms: N_20  and  C_21
REMARK    9  A    between atoms: C_27  and  C_29
REMARK   10  A    between atoms: C_34  and  O_35
REMARK   11  A    between atoms: O_35  and  C_36
REMARK                            x       y       z     vdW  Elec       q    Type
REMARK                         _______ _______ _______ _____ _____    ______ ____
ROOT
ATOM      1  C   UNL     1       3.861  -3.631  -0.690  0.00  0.00    +0.193 C 
ENDROOT
BRANCH   1   2
ATOM      2  C   UNL     1       4.083  -3.021  -2.050  0.00  0.00    -0.018 A 
ATOM      3  C   UNL     1       3.196  -3.283  -3.077  0.00  0.00    +0.009 A 
ATOM      4  C   UNL     1       3.397  -2.725  -4.325  0.00  0.00    +0.046 A 
ATOM      5  C   UNL     1       4.491  -1.902  -4.546  0.00  0.00    +0.117 A 
ATOM      6  C   UNL     1       5.380  -1.640  -3.514  0.00  0.00    +0.046 A 
ATOM      7  C   UNL     1       5.171  -2.196  -2.267  0.00  0.00    +0.009 A 
BRANCH   5   8
ATOM      8  O   UNL     1       4.692  -1.352  -5.773  0.00  0.00    -0.507 OA
ATOM      9  H   UNL     1       4.269  -0.491  -5.893  0.00  0.00    +0.292 HD
ENDBRANCH   5   8
ENDBRANCH   1   2
BRANCH   1  10
ATOM     10  C   UNL     1       5.176  -4.111  -0.133  0.00  0.00    +0.238 C 
ATOM     11  O   UNL     1       5.511  -5.268  -0.279  0.00  0.00    -0.273 OA
ATOM     12  N   UNL     1       5.981  -3.255   0.526  0.00  0.00    -0.311 N 
ATOM     13  H   UNL     1       5.714  -2.330   0.643  0.00  0.00    +0.149 HD
BRANCH  12  14
ATOM     14  C   UNL     1       7.260  -3.721   1.067  0.00  0.00    +0.073 C 
ATOM     15  C   UNL     1       7.034  -4.342   2.447  0.00  0.00    +0.022 C 
ATOM     16  C   UNL     1       8.370  -4.829   3.013  0.00  0.00    +0.002 C 
ATOM     17  C   UNL     1       9.333  -3.647   3.137  0.00  0.00    +0.000 C 
ATOM     18  C   UNL     1       9.559  -3.026   1.757  0.00  0.00    +0.002 C 
ATOM     19  C   UNL     1       8.223  -2.539   1.192  0.00  0.00    +0.022 C 
ENDBRANCH  12  14
ENDBRANCH   1  10
BRANCH   1  20
ATOM     20  N   UNL     1       2.938  -4.763  -0.807  0.00  0.00    -0.275 N 
ATOM     21  C   UNL     1       1.776  -4.759  -0.124  0.00  0.00    +0.251 C 
ATOM     22  O   UNL     1       0.967  -5.650  -0.296  0.00  0.00    -0.270 OA
BRANCH  21  23
ATOM     23  C   UNL     1       1.486  -3.674   0.831  0.00  0.00    +0.078 A 
ATOM     24  C   UNL     1       1.558  -2.340   0.423  0.00  0.00    +0.017 A 
ATOM     25  C   UNL     1       1.286  -1.330   1.320  0.00  0.00    +0.001 A 
ATOM     26  C   UNL     1       0.940  -1.632   2.627  0.00  0.00    +0.004 A 
ATOM     27  C   UNL     1       0.864  -2.946   3.045  0.00  0.00    +0.046 A 
ATOM     28  C   UNL     1       1.130  -3.974   2.153  0.00  0.00    +0.132 A 
BRANCH  28  29
ATOM     29  O   UNL     1       1.052  -5.266   2.560  0.00  0.00    -0.494 OA
ATOM     30  C   UNL     1       0.683  -5.496   3.922  0.00  0.00    +0.277 C 
ENDBRANCH  28  29
ENDBRANCH  21  23
BRANCH  20  31
ATOM     31  C   UNL     1       3.278  -5.899  -1.667  0.00  0.00    +0.183 C 
BRANCH  31  36
ATOM     32  C   UNL     1       4.809  -9.598   1.402  0.00  0.00    +0.086 C 
ATOM     33  C   UNL     1       3.943  -8.774   0.484  0.00  0.00    +0.102 A 
ATOM     34  C   UNL     1       2.684  -9.071   0.114  0.00  0.00    +0.045 A 
ATOM     35  C   UNL     1       2.255  -8.034  -0.747  0.00  0.00    +0.046 A 
ATOM     36  C   UNL     1       3.277  -7.166  -0.850  0.00  0.00    +0.122 A 
ATOM     37  O   UNL     1       4.295  -7.616  -0.098  0.00  0.00    -0.463 OA
ENDBRANCH  31  36
ENDBRANCH  20  31
ENDBRANCH   1  20
TORSDOF 9
