REMARK  Name = ZINC09222862
REMARK  10 active torsions:
REMARK  status: ('A' for Active; 'I' for Inactive)
REMARK    1  A    between atoms: C_1  and  C_2
REMARK    2  A    between atoms: C_2  and  N_3
REMARK    3  A    between atoms: N_3  and  C_4
REMARK    4  A    between atoms: C_5  and  N_20
REMARK    5  A    between atoms: N_6  and  C_13
REMARK    6  A    between atoms: C_13  and  C_14
REMARK    7  A    between atoms: C_21  and  C_23
REMARK    8  A    between atoms: C_23  and  S_24
REMARK    9  A    between atoms: S_24  and  C_25
REMARK   10  A    between atoms: C_28  and  C_30
REMARK                            x       y       z     vdW  Elec       q    Type
REMARK                         _______ _______ _______ _____ _____    ______ ____
ROOT
ATOM      1  C   UNL     1       0.074   1.425  -0.019  0.00  0.00    +0.140 A 
ATOM      2  C   UNL     1       0.427   2.131  -1.150  0.00  0.00    +0.128 A 
ATOM      3  N   UNL     1       0.417   3.506  -1.114  0.00  0.00    -0.276 N 
ATOM      4  C   UNL     1       0.076   4.154   0.014  0.00  0.00    +0.331 A 
ATOM      5  O   UNL     1       0.078   5.370   0.027  0.00  0.00    -0.246 OA
ATOM      6  N   UNL     1      -0.266   3.483   1.128  0.00  0.00    -0.273 N 
ATOM      7  H   UNL     1      -0.541   4.034   2.040  0.00  0.00    +0.173 HD
ATOM      8  C   UNL     1      -0.277   2.136   1.144  0.00  0.00    +0.277 A 
ATOM      9  O   UNL     1      -0.588   1.536   2.160  0.00  0.00    -0.266 OA
ENDROOT
BRANCH   1  10
ATOM     10  N   UNL     1       0.071   0.014  -0.025  0.00  0.00    -0.264 N 
ATOM     11  C   UNL     1      -1.091  -0.659   0.112  0.00  0.00    +0.230 C 
ATOM     12  O   UNL     1      -2.142  -0.053   0.152  0.00  0.00    -0.274 OA
BRANCH  10  14
ATOM     13  C   UNL     1       1.873  -1.099   1.197  0.00  0.00    +0.025 C 
ATOM     14  C   UNL     1       1.328  -0.721  -0.182  0.00  0.00    +0.110 C 
ENDBRANCH  10  14
BRANCH  11  15
ATOM     15  C   UNL     1      -1.084  -2.162   0.217  0.00  0.00    +0.175 C 
BRANCH  15  16
ATOM     16  S   UNL     1      -2.782  -2.763   0.392  0.00  0.00    -0.056 S 
BRANCH  16  17
ATOM     17  C   UNL     1      -2.484  -4.497   0.490  0.00  0.00    +0.278 A 
ATOM     18  N   UNL     1      -1.316  -5.090   0.435  0.00  0.00    -0.101 NA
ATOM     19  N   UNL     1      -1.479  -6.362   0.543  0.00  0.00    -0.111 NA
ATOM     20  C   UNL     1      -2.746  -6.630   0.660  0.00  0.00    +0.221 A 
ATOM     21  O   UNL     1      -3.414  -5.460   0.630  0.00  0.00    -0.415 OA
BRANCH  20  22
ATOM     22  C   UNL     1      -3.356  -8.001   0.804  0.00  0.00    +0.077 C 
ATOM     23  C   UNL     1      -2.808  -8.673   2.065  0.00  0.00    +0.013 C 
ATOM     24  C   UNL     1      -3.428 -10.064   2.211  0.00  0.00    +0.001 C 
ATOM     25  C   UNL     1      -3.074 -10.911   0.987  0.00  0.00    +0.000 C 
ATOM     26  C   UNL     1      -3.622 -10.239  -0.274  0.00  0.00    +0.001 C 
ATOM     27  C   UNL     1      -3.003  -8.848  -0.420  0.00  0.00    +0.013 C 
ENDBRANCH  20  22
ENDBRANCH  16  17
ENDBRANCH  15  16
ENDBRANCH  11  15
ENDBRANCH   1  10
BRANCH   2  28
ATOM     28  N   UNL     1       0.780   1.468  -2.301  0.00  0.00    -0.343 N 
ATOM     29  H   UNL     1       1.060   2.038  -3.200  0.00  0.00    +0.144 HD
ATOM     30  H   UNL     1       0.783   0.368  -2.324  0.00  0.00    +0.144 HD
ENDBRANCH   2  28
BRANCH   3  31
ATOM     31  C   UNL     1       0.785   4.269  -2.309  0.00  0.00    +0.163 C 
BRANCH  31  32
ATOM     32  C   UNL     1       2.271   4.523  -2.305  0.00  0.00    -0.028 A 
ATOM     33  C   UNL     1       2.774   5.665  -1.710  0.00  0.00    +0.005 A 
ATOM     34  C   UNL     1       4.137   5.896  -1.702  0.00  0.00    +0.000 A 
ATOM     35  C   UNL     1       4.995   4.991  -2.298  0.00  0.00    +0.000 A 
ATOM     36  C   UNL     1       4.491   3.852  -2.897  0.00  0.00    +0.000 A 
ATOM     37  C   UNL     1       3.129   3.618  -2.901  0.00  0.00    +0.005 A 
ENDBRANCH  31  32
ENDBRANCH   3  31
TORSDOF 9
