REMARK  Name = ZINC20749378
REMARK  8 active torsions:
REMARK  status: ('A' for Active; 'I' for Inactive)
REMARK    1  A    between atoms: C_1  and  C_2
REMARK    2  A    between atoms: C_2  and  C_3
REMARK    3  A    between atoms: C_2  and  C_4
REMARK    4  A    between atoms: C_2  and  N_5
REMARK    5  A    between atoms: C_6  and  C_8
REMARK    6  A    between atoms: C_15  and  C_24
REMARK    7  A    between atoms: C_29  and  O_30
REMARK    8  A    between atoms: O_30  and  C_31
REMARK                            x       y       z     vdW  Elec       q    Type
REMARK                         _______ _______ _______ _____ _____    ______ ____
ROOT
ATOM      1  C   UNL     1       2.124  -0.156   3.057  0.00  0.00    +0.058 A 
ATOM      2  C   UNL     1       3.157   0.555   3.666  0.00  0.00    +0.015 A 
ATOM      3  C   UNL     1       3.626   1.717   3.093  0.00  0.00    +0.001 A 
ATOM      4  C   UNL     1       3.075   2.172   1.907  0.00  0.00    +0.006 A 
ATOM      5  C   UNL     1       2.060   1.478   1.287  0.00  0.00    -0.019 A 
ATOM      6  C   UNL     1       1.552   0.305   1.853  0.00  0.00    +0.044 A 
ATOM      7  N   UNL     1       0.517  -0.437   1.311  0.00  0.00    -0.336 N 
ATOM      8  C   UNL     1       0.002  -0.004   0.002  0.00  0.00    +0.108 C 
ATOM      9  C   UNL     1      -0.018   1.510   0.010  0.00  0.00    +0.029 C 
ATOM     10  C   UNL     1       1.486   1.924  -0.002  0.00  0.00    +0.049 C 
ATOM     11  C   UNL     1       1.440   3.349  -0.409  0.00  0.00    -0.023 C 
ATOM     12  C   UNL     1       0.361   3.538  -1.160  0.00  0.00    -0.030 C 
ATOM     13  C   UNL     1      -0.428   2.232  -1.279  0.00  0.00    +0.033 C 
ATOM     14  H   UNL     1       0.080  -1.314   1.811  0.00  0.00    +0.147 HD
ENDROOT
BRANCH   8  15
ATOM     15  C   UNL     1       0.906  -0.499  -1.097  0.00  0.00    +0.015 A 
ATOM     16  C   UNL     1       2.192  -0.909  -0.802  0.00  0.00    +0.009 A 
ATOM     17  C   UNL     1       3.021  -1.369  -1.809  0.00  0.00    +0.001 A 
ATOM     18  C   UNL     1       2.568  -1.409  -3.116  0.00  0.00    +0.004 A 
ATOM     19  C   UNL     1       1.285  -0.995  -3.416  0.00  0.00    +0.046 A 
ATOM     20  C   UNL     1       0.450  -0.539  -2.406  0.00  0.00    +0.125 A 
BRANCH  20  21
ATOM     21  O   UNL     1      -0.813  -0.132  -2.700  0.00  0.00    -0.495 OA
ATOM     22  C   UNL     1      -1.215  -0.200  -4.069  0.00  0.00    +0.277 C 
ENDBRANCH  20  21
ENDBRANCH   8  15
BRANCH   1  24
ATOM     23  N   UNL     1       2.170  -1.842   4.827  0.00  0.00    -0.307 N 
ATOM     24  C   UNL     1       1.626  -1.397   3.677  0.00  0.00    +0.246 C 
ATOM     25  O   UNL     1       0.725  -2.021   3.150  0.00  0.00    -0.270 OA
ATOM     26  H   UNL     1       2.985  -1.278   5.304  0.00  0.00    +0.150 HD
BRANCH  23  28
ATOM     27  C   UNL     1       1.862  -4.242   4.471  0.00  0.00    +0.031 C 
ATOM     28  C   UNL     1       1.674  -3.075   5.443  0.00  0.00    +0.026 C 
ATOM     29  C   UNL     1       2.455  -3.353   6.729  0.00  0.00    +0.031 C 
ATOM     30  C   UNL     1       0.188  -2.920   5.772  0.00  0.00    +0.031 C 
ENDBRANCH  23  28
ENDBRANCH   1  24
TORSDOF 4
