REMARK  Name = ZINC64640431
REMARK  7 active torsions:
REMARK  status: ('A' for Active; 'I' for Inactive)
REMARK    1  A    between atoms: C_6  and  C_11
REMARK    2  A    between atoms: C_11  and  N_12
REMARK    3  A    between atoms: N_15  and  C_22
REMARK    4  A    between atoms: C_16  and  C_19
REMARK    5  A    between atoms: C_19  and  C_20
REMARK    6  A    between atoms: C_20  and  O_21
REMARK    7  A    between atoms: C_22  and  C_23
REMARK                            x       y       z     vdW  Elec       q    Type
REMARK                         _______ _______ _______ _____ _____    ______ ____
ROOT
ATOM      1  N   UNL     1       5.139  -2.921  -1.332  0.00  0.00    -0.303 NA
ATOM      2  C   UNL     1       5.276  -1.458  -1.363  0.00  0.00    +0.066 C 
ATOM      3  C   UNL     1       6.760  -1.087  -1.326  0.00  0.00    -0.063 C 
ATOM      4  N   UNL     1       7.444  -1.685  -2.480  0.00  0.00    +0.383 N 
ATOM      5  C   UNL     1       7.320  -3.147  -2.421  0.00  0.00    -0.052 C 
ATOM      6  C   UNL     1       5.840  -3.536  -2.468  0.00  0.00    +0.069 C 
ATOM      7  H   UNL     1       7.024  -1.346  -3.333  0.00  0.00    -0.081 HD
ENDROOT
BRANCH   1   8
ATOM      8  C   UNL     1       3.725  -3.317  -1.309  0.00  0.00    +0.113 C 
BRANCH   8  14
ATOM      9  C   UNL     1       1.022  -6.058   2.831  0.00  0.00    +0.001 A 
ATOM     10  C   UNL     1       2.268  -5.897   3.453  0.00  0.00    +0.002 A 
ATOM     11  C   UNL     1       3.374  -5.514   2.780  0.00  0.00    +0.026 A 
ATOM     12  C   UNL     1       3.312  -5.253   1.384  0.00  0.00    +0.043 A 
ATOM     13  N   UNL     1       4.228  -4.875   0.525  0.00  0.00    -0.377 N 
ATOM     14  C   UNL     1       3.606  -4.755  -0.799  0.00  0.00    +0.117 C 
ATOM     15  C   UNL     1       2.152  -5.124  -0.609  0.00  0.00    +0.008 C 
ATOM     16  C   UNL     1       2.007  -5.415   0.704  0.00  0.00    -0.004 A 
ATOM     17  C   UNL     1       0.854  -5.836   1.508  0.00  0.00    +0.010 A 
ATOM     18  H   UNL     1       5.160  -4.702   0.730  0.00  0.00    +0.160 HD
ENDBRANCH   8  14
ENDBRANCH   1   8
BRANCH   5  19
ATOM     19  C   UNL     1       8.048  -3.769  -3.614  0.00  0.00    +0.014 C 
BRANCH  19  20
ATOM     20  C   UNL     1       7.986  -5.294  -3.511  0.00  0.00    +0.154 C 
BRANCH  20  21
ATOM     21  O   UNL     1       8.769  -5.875  -4.556  0.00  0.00    -0.395 OA
ATOM     22  H   UNL     1       8.776  -6.842  -4.552  0.00  0.00    +0.209 HD
ENDBRANCH  20  21
ENDBRANCH  19  20
ENDBRANCH   5  19
BRANCH   4  23
ATOM     23  C   UNL     1       8.865  -1.313  -2.453  0.00  0.00    -0.075 C 
BRANCH  23  24
ATOM     24  C   UNL     1       9.001   0.198  -2.653  0.00  0.00    -0.028 C 
ATOM     25  C   UNL     1       8.510   0.574  -4.052  0.00  0.00    +0.002 C 
ATOM     26  C   UNL     1       8.646   2.085  -4.252  0.00  0.00    +0.000 C 
ATOM     27  C   UNL     1      10.113   2.490  -4.100  0.00  0.00    +0.000 C 
ATOM     28  C   UNL     1      10.604   2.114  -2.700  0.00  0.00    +0.000 C 
ATOM     29  C   UNL     1      10.468   0.603  -2.501  0.00  0.00    +0.002 C 
ENDBRANCH  23  24
ENDBRANCH   4  23
TORSDOF 7
