REMARK  Name = ZINC63174845
REMARK  4 active torsions:
REMARK  status: ('A' for Active; 'I' for Inactive)
REMARK    1  A    between atoms: C_5  and  S_7
REMARK    2  A    between atoms: S_7  and  N_10
REMARK    3  A    between atoms: N_10  and  C_11
REMARK    4  A    between atoms: C_16  and  N_18
REMARK                            x       y       z     vdW  Elec       q    Type
REMARK                         _______ _______ _______ _____ _____    ______ ____
ROOT
ATOM      1  N   UNL     1       1.982  -2.808  -1.454  0.00  0.00    -0.188 NA
ATOM      2  H   UNL     1       1.456  -3.136  -2.200  0.00  0.00    +0.148 HD
ENDROOT
BRANCH   1   3
ATOM      3  C   UNL     1       3.400  -2.491  -1.640  0.00  0.00    +0.062 C 
ATOM      4  C   UNL     1       3.568  -1.111  -2.324  0.00  0.00    +0.019 C 
ATOM      5  C   UNL     1       4.958  -1.185  -2.988  0.00  0.00    -0.000 C 
ATOM      6  C   UNL     1       5.265  -2.678  -3.201  0.00  0.00    -0.015 C 
ATOM      7  C   UNL     1       4.051  -3.462  -2.655  0.00  0.00    -0.056 C 
BRANCH   7   8
ATOM      8  N   UNL     1       4.489  -4.692  -1.982  0.00  0.00    +0.381 N 
ATOM      9  H   UNL     1       3.693  -5.145  -1.558  0.00  0.00    -0.090 HD
ATOM     10  H   UNL     1       4.911  -5.313  -2.656  0.00  0.00    -0.090 HD
ATOM     11  H   UNL     1       5.165  -4.463  -1.268  0.00  0.00    -0.090 HD
ENDBRANCH   7   8
ENDBRANCH   1   3
BRANCH   1  12
ATOM     12  S   UNL     1       1.277  -2.609   0.032  0.00  0.00    +0.060 S 
ATOM     13  O   UNL     1      -0.077  -3.017  -0.104  0.00  0.00    -0.153 OA
ATOM     14  O   UNL     1       1.640  -1.311   0.482  0.00  0.00    -0.153 OA
BRANCH  12  19
ATOM     15  C   UNL     1       3.390  -4.194   3.059  0.00  0.00    +0.002 A 
ATOM     16  C   UNL     1       3.243  -5.553   2.853  0.00  0.00    +0.001 A 
ATOM     17  C   UNL     1       2.494  -6.014   1.786  0.00  0.00    +0.017 A 
ATOM     18  C   UNL     1       1.893  -5.114   0.924  0.00  0.00    +0.044 A 
ATOM     19  C   UNL     1       2.042  -3.755   1.130  0.00  0.00    +0.119 A 
ATOM     20  C   UNL     1       2.790  -3.295   2.197  0.00  0.00    +0.029 A 
ATOM     21 BR   UNL     1       0.870  -5.744  -0.537  0.00  0.00    -0.048 Br
ENDBRANCH  12  19
ENDBRANCH   1  12
TORSDOF 4
