REMARK  Name = ZINC37441560
REMARK  5 active torsions:
REMARK  status: ('A' for Active; 'I' for Inactive)
REMARK    1  A    between atoms: C_1  and  C_2
REMARK    2  A    between atoms: C_2  and  N_3
REMARK    3  A    between atoms: C_11  and  C_12
REMARK    4  A    between atoms: C_17  and  N_18
REMARK    5  A    between atoms: N_18  and  C_19
REMARK                            x       y       z     vdW  Elec       q    Type
REMARK                         _______ _______ _______ _____ _____    ______ ____
ROOT
ATOM      1  N   UNL     1      -1.377  -0.537   0.010  0.00  0.00    -0.324 N 
ATOM      2  C   UNL     1      -2.108  -0.912   1.121  0.00  0.00    +0.069 A 
ATOM      3  C   UNL     1      -1.836  -0.956   2.481  0.00  0.00    +0.029 A 
ATOM      4  C   UNL     1      -2.804  -1.391   3.361  0.00  0.00    +0.017 A 
ATOM      5  C   UNL     1      -4.051  -1.788   2.897  0.00  0.00    +0.020 A 
ATOM      6  C   UNL     1      -4.339  -1.752   1.551  0.00  0.00    +0.045 A 
ATOM      7  C   UNL     1      -3.369  -1.312   0.644  0.00  0.00    +0.091 A 
ATOM      8  N   UNL     1      -3.352  -1.168  -0.703  0.00  0.00    -0.227 NA
ATOM      9  C   UNL     1      -2.184  -0.707  -1.083  0.00  0.00    +0.144 A 
ATOM     10 BR   UNL     1      -5.364  -2.382   4.121  0.00  0.00    -0.050 Br
ENDROOT
BRANCH   9  11
ATOM     11  C   UNL     1      -1.798  -0.417  -2.478  0.00  0.00    +0.038 A 
ATOM     12  C   UNL     1      -0.601  -0.917  -2.993  0.00  0.00    +0.013 A 
ATOM     13  C   UNL     1      -0.245  -0.644  -4.297  0.00  0.00    +0.001 A 
ATOM     14  C   UNL     1      -1.071   0.125  -5.100  0.00  0.00    +0.002 A 
ATOM     15  C   UNL     1      -2.258   0.626  -4.604  0.00  0.00    +0.023 A 
ATOM     16  C   UNL     1      -2.634   0.356  -3.296  0.00  0.00    +0.038 A 
BRANCH  16  17
ATOM     17  N   UNL     1      -3.833   0.856  -2.795  0.00  0.00    -0.346 N 
ATOM     18  C   UNL     1      -4.758   1.565  -3.683  0.00  0.00    +0.125 C 
ATOM     19  H   UNL     1      -4.056   0.735  -1.859  0.00  0.00    +0.146 HD
ENDBRANCH  16  17
ENDBRANCH   9  11
BRANCH   1  21
ATOM     20  C   UNL     1      -0.002   1.486   0.020  0.00  0.00    +0.027 C 
ATOM     21  C   UNL     1       0.003  -0.044   0.003  0.00  0.00    +0.120 C 
ENDBRANCH   1  21
TORSDOF 3
