REMARK  Name = ZINC14019061
REMARK  10 active torsions:
REMARK  status: ('A' for Active; 'I' for Inactive)
REMARK    1  A    between atoms: C_1  and  C_2
REMARK    2  A    between atoms: C_2  and  C_3
REMARK    3  A    between atoms: C_2  and  C_4
REMARK    4  A    between atoms: C_2  and  N_5
REMARK    5  A    between atoms: C_6  and  C_8
REMARK    6  A    between atoms: C_8  and  N_9
REMARK    7  A    between atoms: C_10  and  C_12
REMARK    8  A    between atoms: C_13  and  C_21
REMARK    9  A    between atoms: C_21  and  S_22
REMARK   10  A    between atoms: S_22  and  C_23
REMARK                            x       y       z     vdW  Elec       q    Type
REMARK                         _______ _______ _______ _____ _____    ______ ____
ROOT
ATOM      1  C   UNL     1       6.255   0.089  -3.708  0.00  0.00    +0.194 A 
ATOM      2  C   UNL     1       7.169  -0.152  -4.683  0.00  0.00    +0.021 A 
ATOM      3  C   UNL     1       8.388   0.546  -4.276  0.00  0.00    +0.025 A 
ATOM      4  C   UNL     1       9.661   0.688  -4.834  0.00  0.00    +0.012 A 
ATOM      5  C   UNL     1      10.606   1.430  -4.183  0.00  0.00    +0.001 A 
ATOM      6  C   UNL     1      10.310   2.042  -2.973  0.00  0.00    +0.004 A 
ATOM      7  C   UNL     1       9.061   1.914  -2.406  0.00  0.00    +0.047 A 
ATOM      8  C   UNL     1       8.082   1.165  -3.050  0.00  0.00    +0.136 A 
ATOM      9  O   UNL     1       6.801   0.871  -2.754  0.00  0.00    -0.450 OA
ENDROOT
BRANCH   1  11
ATOM     10  N   UNL     1       4.051  -0.111  -2.677  0.00  0.00    -0.300 N 
ATOM     11  C   UNL     1       4.876  -0.420  -3.698  0.00  0.00    +0.280 C 
ATOM     12  O   UNL     1       4.479  -1.120  -4.610  0.00  0.00    -0.267 OA
ATOM     13  H   UNL     1       4.368   0.447  -1.950  0.00  0.00    +0.150 HD
BRANCH  10  14
ATOM     14  C   UNL     1       2.677  -0.618  -2.667  0.00  0.00    +0.200 C 
BRANCH  14  16
ATOM     15  N   UNL     1       0.688  -0.476  -1.203  0.00  0.00    -0.309 N 
ATOM     16  C   UNL     1       1.972  -0.132  -1.427  0.00  0.00    +0.231 C 
ATOM     17  O   UNL     1       2.559   0.569  -0.630  0.00  0.00    -0.274 OA
ATOM     18  H   UNL     1       0.218  -1.037  -1.840  0.00  0.00    +0.149 HD
BRANCH  15  20
ATOM     19  C   UNL     1      -0.019   1.526   0.010  0.00  0.00    +0.031 C 
ATOM     20  C   UNL     1       0.002  -0.004   0.002  0.00  0.00    +0.026 C 
ATOM     21  C   UNL     1       0.742  -0.511   1.242  0.00  0.00    +0.031 C 
ATOM     22  C   UNL     1      -1.433  -0.534   0.013  0.00  0.00    +0.031 C 
ENDBRANCH  15  20
ENDBRANCH  14  16
ENDBRANCH  10  14
ENDBRANCH   1  11
BRANCH   2  23
ATOM     23  C   UNL     1       6.969  -0.973  -5.931  0.00  0.00    +0.117 C 
BRANCH  23  24
ATOM     24  S   UNL     1       6.367   0.095  -7.267  0.00  0.00    -0.082 S 
BRANCH  24  25
ATOM     25  C   UNL     1       6.184  -0.998  -8.637  0.00  0.00    +0.184 A 
ATOM     26  N   UNL     1       5.762  -0.659  -9.874  0.00  0.00    -0.254 N 
ATOM     27  H   UNL     1       5.502   0.225 -10.179  0.00  0.00    +0.191 HD
ATOM     28  N   UNL     1       5.773  -1.841 -10.633  0.00  0.00    -0.160 NA
ATOM     29  C   UNL     1       6.186  -2.796  -9.845  0.00  0.00    +0.245 A 
ATOM     30  N   UNL     1       6.441  -2.289  -8.639  0.00  0.00    -0.209 NA
ENDBRANCH  24  25
ENDBRANCH  23  24
ENDBRANCH   2  23
TORSDOF 7
