REMARK  Name = ZINC28057877
REMARK  4 active torsions:
REMARK  status: ('A' for Active; 'I' for Inactive)
REMARK    1  A    between atoms: C_1  and  O_2
REMARK    2  A    between atoms: O_2  and  C_3
REMARK    3  A    between atoms: C_8  and  C_9
REMARK    4  A    between atoms: C_20  and  C_22
REMARK                            x       y       z     vdW  Elec       q    Type
REMARK                         _______ _______ _______ _____ _____    ______ ____
ROOT
ATOM      1  C   UNL     1       0.688   3.740   0.035  0.00  0.00    +0.177 C 
ATOM      2  C   UNL     1       0.243   4.205   1.400  0.00  0.00    +0.026 C 
ATOM      3  C   UNL     1      -0.915   4.840   1.595  0.00  0.00    +0.050 C 
ATOM      4  C   UNL     1      -1.262   5.265   2.972  0.00  0.00    +0.038 A 
ATOM      5  C   UNL     1      -2.561   5.615   3.319  0.00  0.00    +0.013 A 
ATOM      6  C   UNL     1      -2.838   6.009   4.614  0.00  0.00    +0.001 A 
ATOM      7  C   UNL     1      -1.829   6.054   5.561  0.00  0.00    +0.004 A 
ATOM      8  C   UNL     1      -0.534   5.705   5.225  0.00  0.00    +0.046 A 
ATOM      9  C   UNL     1      -0.243   5.308   3.933  0.00  0.00    +0.131 A 
ATOM     10  O   UNL     1       1.015   4.957   3.563  0.00  0.00    -0.479 OA
ATOM     11  C   UNL     1       1.139   3.925   2.584  0.00  0.00    +0.234 C 
ATOM     12  N   UNL     1      -1.799   5.122   0.548  0.00  0.00    -0.282 N 
ATOM     13  C   UNL     1      -1.320   4.978  -0.744  0.00  0.00    +0.240 A 
ATOM     14  N   UNL     1      -0.149   4.337  -0.996  0.00  0.00    -0.201 N 
ATOM     15  N   UNL     1       0.016   4.396  -2.379  0.00  0.00    -0.042 NA
ATOM     16  N   UNL     1      -1.012   5.027  -2.846  0.00  0.00    -0.021 NA
ATOM     17  N   UNL     1      -1.802   5.371  -1.888  0.00  0.00    -0.092 NA
ATOM     18  H   UNL     1      -2.828   5.442   0.768  0.00  0.00    +0.155 HD
ENDROOT
BRANCH   1  24
ATOM     19  C   UNL     1       1.711   1.475  -0.294  0.00  0.00    +0.126 A 
ATOM     20  C   UNL     1       1.609   0.093  -0.365  0.00  0.00    +0.046 A 
ATOM     21  C   UNL     1       0.384  -0.519  -0.183  0.00  0.00    +0.004 A 
ATOM     22  C   UNL     1      -0.740   0.245   0.069  0.00  0.00    +0.001 A 
ATOM     23  C   UNL     1      -0.642   1.623   0.139  0.00  0.00    +0.009 A 
ATOM     24  C   UNL     1       0.582   2.239  -0.042  0.00  0.00    +0.023 A 
BRANCH  19  26
ATOM     25  C   UNL     1       4.035   1.229  -0.729  0.00  0.00    +0.277 C 
ATOM     26  O   UNL     1       2.916   2.079  -0.473  0.00  0.00    -0.495 OA
ENDBRANCH  19  26
ENDBRANCH   1  24
BRANCH  11  27
ATOM     27  C   UNL     1       0.751   2.606   3.201  0.00  0.00    -0.003 A 
ATOM     28  C   UNL     1      -0.407   2.507   3.949  0.00  0.00    +0.007 A 
ATOM     29  C   UNL     1      -0.765   1.296   4.511  0.00  0.00    +0.000 A 
ATOM     30  C   UNL     1       0.040   0.186   4.333  0.00  0.00    +0.000 A 
ATOM     31  C   UNL     1       1.201   0.286   3.589  0.00  0.00    +0.000 A 
ATOM     32  C   UNL     1       1.557   1.496   3.023  0.00  0.00    +0.007 A 
ENDBRANCH  11  27
TORSDOF 3
