REMARK  Name = ZINC10698252
REMARK  9 active torsions:
REMARK  status: ('A' for Active; 'I' for Inactive)
REMARK    1  A    between atoms: C_1  and  C_2
REMARK    2  A    between atoms: C_6  and  C_37
REMARK    3  A    between atoms: C_7  and  C_13
REMARK    4  A    between atoms: C_13  and  C_14
REMARK    5  A    between atoms: C_14  and  C_15
REMARK    6  A    between atoms: N_17  and  C_18
REMARK    7  A    between atoms: C_18  and  C_19
REMARK    8  A    between atoms: C_19  and  C_21
REMARK    9  A    between atoms: C_19  and  C_27
REMARK                            x       y       z     vdW  Elec       q    Type
REMARK                         _______ _______ _______ _____ _____    ______ ____
ROOT
ATOM      1  C   UNL     1       1.252   6.142   2.355  0.00  0.00    +0.213 C 
ATOM      2  O   UNL     1       0.525   5.719   3.228  0.00  0.00    -0.276 OA
ATOM      3  N   UNL     1       1.603   5.346   1.326  0.00  0.00    -0.314 N 
ATOM      4  H   UNL     1       2.185   5.685   0.627  0.00  0.00    +0.149 HD
ENDROOT
BRANCH   1   5
ATOM      5  C   UNL     1       1.764   7.558   2.421  0.00  0.00    +0.100 C 
BRANCH   5   6
ATOM      6  C   UNL     1       1.221   8.239   3.679  0.00  0.00    +0.052 C 
BRANCH   6  13
ATOM      7  C   UNL     1       3.172  15.968   3.550  0.00  0.00    +0.044 C 
ATOM      8  C   UNL     1       2.610  14.573   3.452  0.00  0.00    -0.047 A 
ATOM      9  C   UNL     1       1.408  14.362   2.790  0.00  0.00    +0.004 A 
ATOM     10  C   UNL     1       0.883  13.104   2.691  0.00  0.00    +0.012 A 
ATOM     11  C   UNL     1       1.562  12.023   3.260  0.00  0.00    +0.021 A 
ATOM     12  C   UNL     1       1.025  10.661   3.171  0.00  0.00    -0.030 A 
ATOM     13  C   UNL     1       1.732   9.655   3.745  0.00  0.00    +0.041 A 
ATOM     14  C   UNL     1       2.946   9.939   4.408  0.00  0.00    +0.341 A 
ATOM     15  O   UNL     1       3.568   9.028   4.923  0.00  0.00    -0.245 OA
ATOM     16  O   UNL     1       3.433  11.187   4.481  0.00  0.00    -0.422 OA
ATOM     17  C   UNL     1       2.779  12.233   3.931  0.00  0.00    +0.140 A 
ATOM     18  C   UNL     1       3.294  13.520   4.020  0.00  0.00    +0.050 A 
ATOM     19  C   UNL     1      -0.276  10.387   2.462  0.00  0.00    +0.045 C 
ENDBRANCH   6  13
ENDBRANCH   5   6
ENDBRANCH   1   5
BRANCH   3  20
ATOM     20  C   UNL     1       1.106   3.970   1.262  0.00  0.00    +0.117 C 
BRANCH  20  21
ATOM     21  C   UNL     1       1.649   3.289   0.004  0.00  0.00    +0.068 C 
BRANCH  21  22
ATOM     22  C   UNL     1       1.239   1.839   0.000  0.00  0.00    -0.013 A 
ATOM     23  C   UNL     1      -0.017   1.364   0.009  0.00  0.00    +0.088 A 
ATOM     24  N   UNL     1       0.002  -0.004   0.002  0.00  0.00    -0.360 N 
ATOM     25  H   UNL     1      -0.784  -0.572   0.006  0.00  0.00    +0.165 HD
ATOM     26  C   UNL     1       1.303  -0.455  -0.013  0.00  0.00    +0.047 A 
ATOM     27  C   UNL     1       2.135   0.680  -0.015  0.00  0.00    +0.003 A 
ATOM     28  C   UNL     1       3.522   0.527  -0.029  0.00  0.00    +0.010 A 
ATOM     29  C   UNL     1       4.066  -0.727  -0.041  0.00  0.00    +0.001 A 
ATOM     30  C   UNL     1       3.250  -1.850  -0.038  0.00  0.00    +0.002 A 
ATOM     31  C   UNL     1       1.878  -1.721  -0.025  0.00  0.00    +0.026 A 
ENDBRANCH  21  22
BRANCH  21  32
ATOM     32  C   UNL     1       1.090   3.972  -1.218  0.00  0.00    -0.038 A 
ATOM     33  C   UNL     1      -0.276   4.007  -1.426  0.00  0.00    +0.004 A 
ATOM     34  C   UNL     1      -0.789   4.637  -2.544  0.00  0.00    +0.000 A 
ATOM     35  C   UNL     1       0.064   5.225  -3.459  0.00  0.00    +0.000 A 
ATOM     36  C   UNL     1       1.431   5.185  -3.254  0.00  0.00    +0.000 A 
ATOM     37  C   UNL     1       1.944   4.559  -2.133  0.00  0.00    +0.004 A 
ENDBRANCH  21  32
ENDBRANCH  20  21
ENDBRANCH   3  20
TORSDOF 7
