REMARK  Name = ZINC40157807
REMARK  6 active torsions:
REMARK  status: ('A' for Active; 'I' for Inactive)
REMARK    1  A    between atoms: C_1  and  C_2
REMARK    2  A    between atoms: C_5  and  C_7
REMARK    3  A    between atoms: C_7  and  S_8
REMARK    4  A    between atoms: S_8  and  C_9
REMARK    5  A    between atoms: C_12  and  C_15
REMARK    6  A    between atoms: N_13  and  N_14
REMARK                            x       y       z     vdW  Elec       q    Type
REMARK                         _______ _______ _______ _____ _____    ______ ____
ROOT
ATOM      1  C   UNL     1       1.627  -6.242   1.608  0.00  0.00    +0.209 A 
ATOM      2  N   UNL     1       0.518  -6.839   1.985  0.00  0.00    -0.121 NA
ATOM      3  N   UNL     1       0.782  -8.007   2.452  0.00  0.00    -0.127 NA
ATOM      4  C   UNL     1       2.075  -8.228   2.401  0.00  0.00    +0.183 A 
ATOM      5  N   UNL     1       2.655  -7.107   1.854  0.00  0.00    -0.224 N 
ENDROOT
BRANCH   4   6
ATOM      6  C   UNL     1       2.775  -9.453   2.844  0.00  0.00    +0.039 A 
ATOM      7  C   UNL     1       3.913  -9.359   3.646  0.00  0.00    +0.014 A 
ATOM      8  C   UNL     1       4.561 -10.505   4.056  0.00  0.00    +0.021 A 
ATOM      9  C   UNL     1       4.085 -11.748   3.673  0.00  0.00    +0.042 A 
ATOM     10  C   UNL     1       2.958 -11.849   2.877  0.00  0.00    +0.040 A 
ATOM     11  C   UNL     1       2.296 -10.709   2.465  0.00  0.00    +0.053 A 
ATOM     12 CL   UNL     1       0.877 -10.837   1.472  0.00  0.00    -0.083 Cl
ATOM     13 CL   UNL     1       4.908 -13.186   4.193  0.00  0.00    -0.083 Cl
ENDBRANCH   4   6
BRANCH   5  14
ATOM     14  N   UNL     1       3.983  -6.901   1.611  0.00  0.00    -0.295 N 
ATOM     15  H   UNL     1       4.454  -6.560   2.436  0.00  0.00    +0.163 HD
ATOM     16  H   UNL     1       4.423  -7.741   1.266  0.00  0.00    +0.163 HD
ENDBRANCH   5  14
BRANCH   1  17
ATOM     17  S   UNL     1       1.761  -4.631   0.909  0.00  0.00    -0.079 S 
BRANCH  17  18
ATOM     18  C   UNL     1       0.050  -4.032   0.856  0.00  0.00    +0.121 C 
BRANCH  18  23
ATOM     19  C   UNL     1       0.051   1.419  -0.366  0.00  0.00    +0.073 C 
ATOM     20  C   UNL     1       0.024  -0.086  -0.282  0.00  0.00    +0.075 A 
ATOM     21  N   UNL     1      -0.101  -0.953  -1.256  0.00  0.00    -0.252 NA
ATOM     22  C   UNL     1      -0.107  -2.250  -1.022  0.00  0.00    +0.123 A 
ATOM     23  C   UNL     1       0.021  -2.643   0.271  0.00  0.00    +0.020 A 
ATOM     24  S   UNL     1       0.154  -1.060   1.085  0.00  0.00    -0.077 S 
ENDBRANCH  18  23
ENDBRANCH  17  18
ENDBRANCH   1  17
TORSDOF 5
