REMARK  Name = ZINC08856567
REMARK  5 active torsions:
REMARK  status: ('A' for Active; 'I' for Inactive)
REMARK    1  A    between atoms: C_1  and  N_53
REMARK    2  A    between atoms: C_3  and  C_26
REMARK    3  A    between atoms: C_5  and  C_18
REMARK    4  A    between atoms: C_18  and  C_20
REMARK    5  A    between atoms: C_29  and  N_32
REMARK                            x       y       z     vdW  Elec       q    Type
REMARK                         _______ _______ _______ _____ _____    ______ ____
ROOT
ATOM      1  C   UNL     1      -0.087  -0.070  -0.148  0.00  0.00    -0.094 C 
ATOM      2  C   UNL     1       1.275   1.944   0.010  0.00  0.00    -0.068 C 
ATOM      3  C   UNL     1       1.111   3.409  -0.469  0.00  0.00    +0.012 C 
ATOM      4  C   UNL     1       0.052   3.289  -1.592  0.00  0.00    +0.068 C 
ATOM      5  C   UNL     1      -0.686   1.977  -1.298  0.00  0.00    +0.051 C 
ATOM      6  C   UNL     1      -0.576   1.023  -2.457  0.00  0.00    -0.025 A 
ATOM      7  C   UNL     1       0.491   0.431  -3.095  0.00  0.00    +0.043 A 
ATOM      8  C   UNL     1       0.271  -0.425  -4.162  0.00  0.00    +0.124 A 
ATOM      9  C   UNL     1      -1.023  -0.682  -4.583  0.00  0.00    +0.040 A 
ATOM     10  C   UNL     1      -2.093  -0.090  -3.945  0.00  0.00    +0.026 A 
ATOM     11  C   UNL     1      -1.880   0.773  -2.872  0.00  0.00    +0.036 A 
ATOM     12  N   UNL     1      -2.784   1.483  -2.079  0.00  0.00    -0.286 N 
ATOM     13  C   UNL     1      -2.164   2.215  -1.134  0.00  0.00    +0.212 C 
ATOM     14  O   UNL     1      -2.695   2.928  -0.308  0.00  0.00    -0.277 OA
ATOM     15  F   UNL     1       1.316  -1.008  -4.789  0.00  0.00    -0.205 F 
ATOM     16  H   UNL     1      -3.747   1.453  -2.195  0.00  0.00    +0.155 HD
ATOM     17  N   UNL     1      -0.095   1.424  -0.085  0.00  0.00    +0.391 N 
ATOM     18  H   UNL     1      -0.637   1.723   0.734  0.00  0.00    -0.080 HD
ENDROOT
BRANCH   3  19
ATOM     19  C   UNL     1       2.411   3.941  -1.013  0.00  0.00    -0.045 A 
ATOM     20  C   UNL     1       3.033   3.301  -2.068  0.00  0.00    +0.006 A 
ATOM     21  C   UNL     1       4.224   3.793  -2.570  0.00  0.00    +0.033 A 
ATOM     22  C   UNL     1       4.798   4.918  -2.009  0.00  0.00    +0.126 A 
ATOM     23  C   UNL     1       4.179   5.555  -0.950  0.00  0.00    +0.033 A 
ATOM     24  C   UNL     1       2.986   5.067  -0.452  0.00  0.00    +0.006 A 
BRANCH  22  25
ATOM     25  N   UNL     1       6.076   5.441  -2.542  0.00  0.00    +0.056 N 
ATOM     26  O   UNL     1       6.582   6.433  -2.048  0.00  0.00    -0.126 OA
ATOM     27  O   UNL     1       6.622   4.880  -3.475  0.00  0.00    -0.126 OA
ENDBRANCH  22  25
ENDBRANCH   3  19
BRANCH   4  28
ATOM     28  C   UNL     1      -0.905   4.452  -1.537  0.00  0.00    +0.166 C 
ATOM     29  O   UNL     1      -1.098   5.029  -0.488  0.00  0.00    -0.292 OA
BRANCH  28  30
ATOM     30  C   UNL     1      -1.604   4.887  -2.756  0.00  0.00    +0.018 A 
ATOM     31  C   UNL     1      -1.380   4.228  -3.969  0.00  0.00    +0.011 A 
ATOM     32  C   UNL     1      -2.043   4.639  -5.106  0.00  0.00    +0.001 A 
ATOM     33  C   UNL     1      -2.921   5.707  -5.052  0.00  0.00    +0.000 A 
ATOM     34  C   UNL     1      -3.144   6.369  -3.856  0.00  0.00    +0.001 A 
ATOM     35  C   UNL     1      -2.493   5.966  -2.710  0.00  0.00    +0.011 A 
ENDBRANCH  28  30
ENDBRANCH   4  28
TORSDOF 4
