REMARK  Name = ZINC36948527
REMARK  6 active torsions:
REMARK  status: ('A' for Active; 'I' for Inactive)
REMARK    1  A    between atoms: C_1  and  C_2
REMARK    2  A    between atoms: C_2  and  C_3
REMARK    3  A    between atoms: C_2  and  O_4
REMARK    4  A    between atoms: O_4  and  C_5
REMARK    5  A    between atoms: C_6  and  S_13
REMARK    6  A    between atoms: S_13  and  N_16
REMARK                            x       y       z     vdW  Elec       q    Type
REMARK                         _______ _______ _______ _____ _____    ______ ____
ROOT
ATOM      1  C   UNL     1       1.921  -0.535  -1.036  0.00  0.00    +0.165 A 
ATOM      2  C   UNL     1       2.701   0.611  -1.085  0.00  0.00    +0.149 A 
ATOM      3  C   UNL     1       4.057   0.534  -0.830  0.00  0.00    +0.047 A 
ATOM      4  C   UNL     1       4.637  -0.684  -0.526  0.00  0.00    +0.021 A 
ATOM      5  C   UNL     1       3.862  -1.829  -0.477  0.00  0.00    +0.039 A 
ATOM      6  C   UNL     1       2.504  -1.756  -0.726  0.00  0.00    +0.086 A 
ATOM      7 CL   UNL     1       1.530  -3.191  -0.658  0.00  0.00    -0.080 Cl
ATOM      8 BR   UNL     1       6.493  -0.785  -0.178  0.00  0.00    -0.050 Br
ENDROOT
BRANCH   2   9
ATOM      9  S   UNL     1       1.963   2.163  -1.473  0.00  0.00    +0.060 S 
ATOM     10  O   UNL     1       0.800   2.274  -0.664  0.00  0.00    -0.153 OA
ATOM     11  O   UNL     1       3.007   3.128  -1.442  0.00  0.00    -0.153 OA
BRANCH   9  12
ATOM     12  N   UNL     1       1.442   2.079  -3.042  0.00  0.00    -0.203 NA
ATOM     13  H   UNL     1       0.669   2.593  -3.325  0.00  0.00    +0.144 HD
ATOM     14  H   UNL     1       1.909   1.517  -3.679  0.00  0.00    +0.144 HD
ENDBRANCH   9  12
ENDBRANCH   2   9
BRANCH   1  15
ATOM     15  O   UNL     1       0.587  -0.462  -1.287  0.00  0.00    -0.486 OA
BRANCH  15  17
ATOM     16  C   UNL     1      -0.070  -2.015  -3.017  0.00  0.00    +0.051 C 
ATOM     17  C   UNL     1       0.177  -0.550  -2.653  0.00  0.00    +0.167 C 
ATOM     18  C   UNL     1      -1.112   0.250  -2.851  0.00  0.00    +0.051 C 
ENDBRANCH  15  17
ENDBRANCH   1  15
TORSDOF 4
