REMARK  Name = ZINC00628710
REMARK  11 active torsions:
REMARK  status: ('A' for Active; 'I' for Inactive)
REMARK    1  A    between atoms: C_1  and  C_2
REMARK    2  A    between atoms: C_2  and  C_32
REMARK    3  A    between atoms: C_6  and  C_17
REMARK    4  A    between atoms: C_11  and  C_15
REMARK    5  A    between atoms: C_11  and  C_16
REMARK    6  A    between atoms: C_19  and  O_27
REMARK    7  A    between atoms: C_20  and  O_25
REMARK    8  A    between atoms: C_22  and  O_23
REMARK    9  A    between atoms: O_23  and  C_24
REMARK   10  A    between atoms: O_25  and  C_26
REMARK   11  A    between atoms: O_27  and  C_28
REMARK                            x       y       z     vdW  Elec       q    Type
REMARK                         _______ _______ _______ _____ _____    ______ ____
ROOT
ATOM      1  C   UNL     1       1.412   4.358   6.615  0.00  0.00    +0.011 C 
ATOM      2  C   UNL     1       2.271   3.924   7.805  0.00  0.00    -0.023 C 
ATOM      3  C   UNL     1       1.472   2.969   8.694  0.00  0.00    +0.058 C 
ATOM      4  C   UNL     1       1.107   1.733   7.910  0.00  0.00    +0.016 C 
ATOM      5  C   UNL     1       1.901   1.276   6.919  0.00  0.00    +0.024 C 
ATOM      6  C   UNL     1       1.526   0.037   6.149  0.00  0.00    +0.092 C 
ATOM      7  C   UNL     1       0.521  -0.793   6.904  0.00  0.00    +0.024 C 
ATOM      8  C   UNL     1      -0.213  -0.245   7.895  0.00  0.00    +0.016 C 
ATOM      9  N   UNL     1      -0.050   1.073   8.224  0.00  0.00    -0.320 N 
ATOM     10  C   UNL     1      -1.220  -1.065   8.662  0.00  0.00    +0.058 C 
ATOM     11  C   UNL     1      -1.788  -2.160   7.756  0.00  0.00    -0.023 C 
ATOM     12  C   UNL     1      -0.628  -3.025   7.254  0.00  0.00    +0.086 C 
ATOM     13  C   UNL     1       0.370  -2.145   6.551  0.00  0.00    +0.162 C 
ATOM     14  O   UNL     1       1.056  -2.611   5.664  0.00  0.00    -0.292 OA
ATOM     15  C   UNL     1      -2.507  -1.521   6.566  0.00  0.00    +0.011 C 
ATOM     16  C   UNL     1      -2.772  -3.026   8.546  0.00  0.00    +0.011 C 
ATOM     17  C   UNL     1       3.093   1.940   6.580  0.00  0.00    +0.162 C 
ATOM     18  O   UNL     1       3.791   1.497   5.690  0.00  0.00    -0.292 OA
ATOM     19  C   UNL     1       3.518   3.191   7.300  0.00  0.00    +0.086 C 
ATOM     20  C   UNL     1       2.686   5.154   8.615  0.00  0.00    +0.011 C 
ATOM     21  H   UNL     1      -0.861   1.601   8.747  0.00  0.00    +0.152 HD
ENDROOT
BRANCH   6  22
ATOM     22  C   UNL     1       0.935   0.441   4.822  0.00  0.00    +0.010 A 
ATOM     23  C   UNL     1      -0.204   1.224   4.784  0.00  0.00    +0.057 A 
ATOM     24  C   UNL     1      -0.746   1.601   3.566  0.00  0.00    +0.162 A 
ATOM     25  C   UNL     1      -0.148   1.182   2.380  0.00  0.00    +0.165 A 
ATOM     26  C   UNL     1       0.993   0.398   2.421  0.00  0.00    +0.095 A 
ATOM     27  C   UNL     1       1.535   0.028   3.643  0.00  0.00    +0.128 A 
BRANCH  27  28
ATOM     28  O   UNL     1       2.655  -0.742   3.683  0.00  0.00    -0.495 OA
ATOM     29  C   UNL     1       3.220  -1.132   2.430  0.00  0.00    +0.277 C 
ENDBRANCH  27  28
BRANCH  25  30
ATOM     30  O   UNL     1      -0.682   1.547   1.184  0.00  0.00    -0.491 OA
ATOM     31  C   UNL     1      -0.013   1.086   0.008  0.00  0.00    +0.277 C 
ENDBRANCH  25  30
BRANCH  24  32
ATOM     32  O   UNL     1      -1.863   2.375   3.528  0.00  0.00    -0.491 OA
ATOM     33  C   UNL     1      -2.423   2.768   4.783  0.00  0.00    +0.277 C 
ENDBRANCH  24  32
ENDBRANCH   6  22
TORSDOF 4
