REMARK  Name = ZINC39466699
REMARK  5 active torsions:
REMARK  status: ('A' for Active; 'I' for Inactive)
REMARK    1  A    between atoms: C_1  and  S_2
REMARK    2  A    between atoms: S_2  and  C_3
REMARK    3  A    between atoms: C_15  and  O_16
REMARK    4  A    between atoms: P_19  and  C_22
REMARK    5  A    between atoms: C_22  and  C_23
REMARK                            x       y       z     vdW  Elec       q    Type
REMARK                         _______ _______ _______ _____ _____    ______ ____
ROOT
ATOM      1  C   UNL     1       0.848  -0.411  -1.489  0.00  0.00    +0.045 C 
ATOM      2  C   UNL     1       1.300   0.557  -2.296  0.00  0.00    -0.006 C 
ATOM      3  C   UNL     1       2.010   0.188  -3.570  0.00  0.00    +0.006 C 
ATOM      4  C   UNL     1       1.936   1.328  -4.576  0.00  0.00    -0.046 C 
ATOM      5  N   UNL     1       0.542   1.620  -4.946  0.00  0.00    +0.397 N 
ATOM      6  C   UNL     1      -0.078   0.445  -5.562  0.00  0.00    -0.020 C 
ATOM      7  C   UNL     1      -0.063  -0.735  -4.583  0.00  0.00    -0.002 C 
ATOM      8  C   UNL     1       1.357  -1.055  -4.180  0.00  0.00    +0.019 C 
ATOM      9  C   UNL     1       1.304  -2.143  -3.135  0.00  0.00    +0.023 C 
ATOM     10  C   UNL     1       1.073  -1.826  -1.859  0.00  0.00    +0.126 C 
ATOM     11  C   UNL     1      -1.546   0.706  -5.923  0.00  0.00    +0.156 C 
ATOM     12  O   UNL     1      -1.623   1.776  -6.882  0.00  0.00    -0.319 OA
ATOM     13  P   UNL     1      -0.821   3.151  -6.543  0.00  0.00    +0.262 P 
ATOM     14  O   UNL     1      -1.602   3.982  -5.601  0.00  0.00    -0.274 OA
ATOM     15  N   UNL     1       0.599   2.664  -5.845  0.00  0.00    -0.291 NA
ATOM     16  H   UNL     1       1.440   3.099  -6.055  0.00  0.00    +0.111 HD
ATOM     17  H   UNL     1       0.024   1.904  -4.127  0.00  0.00    -0.055 HD
ENDROOT
BRANCH   1  19
ATOM     18  C   UNL     1      -0.022   1.810   0.012  0.00  0.00    +0.090 C 
ATOM     19  S   UNL     1       0.002  -0.004   0.002  0.00  0.00    -0.125 S 
ENDBRANCH   1  19
BRANCH  10  20
ATOM     20  O   UNL     1       1.038  -2.795  -0.907  0.00  0.00    -0.506 OA
ATOM     21  H   UNL     1       0.860  -2.464  -0.016  0.00  0.00    +0.292 HD
ENDBRANCH  10  20
BRANCH  13  22
ATOM     22  C   UNL     1      -0.485   4.080  -8.075  0.00  0.00    +0.147 C 
BRANCH  22  23
ATOM     23  C   UNL     1      -1.788   4.424  -8.750  0.00  0.00    -0.037 A 
ATOM     24  C   UNL     1      -2.342   3.552  -9.668  0.00  0.00    +0.004 A 
ATOM     25  C   UNL     1      -3.537   3.867 -10.287  0.00  0.00    +0.000 A 
ATOM     26  C   UNL     1      -4.178   5.054  -9.988  0.00  0.00    +0.000 A 
ATOM     27  C   UNL     1      -3.625   5.926  -9.069  0.00  0.00    +0.000 A 
ATOM     28  C   UNL     1      -2.432   5.609  -8.447  0.00  0.00    +0.004 A 
ENDBRANCH  22  23
ENDBRANCH  13  22
TORSDOF 4
