REMARK  Name = ZINC59912186
REMARK  8 active torsions:
REMARK  status: ('A' for Active; 'I' for Inactive)
REMARK    1  A    between atoms: C_3  and  C_8
REMARK    2  A    between atoms: C_8  and  S_9
REMARK    3  A    between atoms: S_9  and  C_10
REMARK    4  A    between atoms: C_16  and  C_18
REMARK    5  A    between atoms: C_18  and  S_19
REMARK    6  A    between atoms: S_19  and  C_20
REMARK    7  A    between atoms: C_23  and  C_26
REMARK    8  A    between atoms: N_24  and  N_25
REMARK                            x       y       z     vdW  Elec       q    Type
REMARK                         _______ _______ _______ _____ _____    ______ ____
ROOT
ATOM      1  C   UNL     1       5.713   3.383   1.506  0.00  0.00    +0.160 A 
ATOM      2  N   UNL     1       6.344   3.779   0.411  0.00  0.00    -0.133 NA
ATOM      3  N   UNL     1       7.427   4.423   0.461  0.00  0.00    -0.125 NA
ATOM      4  C   UNL     1       8.000   4.744   1.610  0.00  0.00    +0.189 A 
ATOM      5  S   UNL     1       6.822   4.031   2.754  0.00  0.00    -0.024 S 
ATOM      6  N   UNL     1       9.179   5.441   1.858  0.00  0.00    -0.263 N 
ATOM      7  C   UNL     1       9.920   5.901   0.830  0.00  0.00    +0.229 C 
ATOM      8  O   UNL     1       9.559   5.707  -0.312  0.00  0.00    -0.275 OA
ATOM      9  H   UNL     1       9.468   5.596   2.771  0.00  0.00    +0.157 HD
ENDROOT
BRANCH   1  10
ATOM     10  S   UNL     1       4.208   2.484   1.684  0.00  0.00    -0.092 S 
BRANCH  10  11
ATOM     11  C   UNL     1       3.672   2.183  -0.022  0.00  0.00    +0.111 C 
BRANCH  11  14
ATOM     12  C   UNL     1      -0.017   1.378   0.010  0.00  0.00    +0.001 A 
ATOM     13  C   UNL     1       1.171   2.086   0.002  0.00  0.00    +0.004 A 
ATOM     14  C   UNL     1       2.378   1.411  -0.013  0.00  0.00    -0.036 A 
ATOM     15  C   UNL     1       2.397   0.029  -0.022  0.00  0.00    +0.019 A 
ATOM     16  C   UNL     1       1.210  -0.679  -0.014  0.00  0.00    +0.018 A 
ATOM     17  C   UNL     1       0.002  -0.004   0.002  0.00  0.00    +0.015 A 
ATOM     18 BR   UNL     1       1.236  -2.570  -0.025  0.00  0.00    -0.050 Br
ENDBRANCH  11  14
ENDBRANCH  10  11
ENDBRANCH   1  10
BRANCH   7  19
ATOM     19  C   UNL     1      11.196   6.656   1.099  0.00  0.00    +0.173 C 
BRANCH  19  20
ATOM     20  S   UNL     1      11.957   7.137  -0.476  0.00  0.00    -0.075 S 
BRANCH  20  21
ATOM     21  C   UNL     1      13.418   7.998   0.002  0.00  0.00    +0.209 A 
ATOM     22  N   UNL     1      13.830   8.215   1.230  0.00  0.00    -0.121 NA
ATOM     23  N   UNL     1      14.933   8.874   1.210  0.00  0.00    -0.132 NA
ATOM     24  C   UNL     1      15.288   9.116  -0.020  0.00  0.00    +0.154 A 
ATOM     25  N   UNL     1      14.338   8.562  -0.834  0.00  0.00    -0.228 N 
BRANCH  25  26
ATOM     26  N   UNL     1      14.315   8.573  -2.200  0.00  0.00    -0.295 N 
ATOM     27  H   UNL     1      13.827   9.385  -2.546  0.00  0.00    +0.163 HD
ATOM     28  H   UNL     1      15.249   8.523  -2.578  0.00  0.00    +0.163 HD
ENDBRANCH  25  26
BRANCH  24  29
ATOM     29  C   UNL     1      16.519   9.862  -0.464  0.00  0.00    +0.059 C 
ATOM     30  C   UNL     1      17.555  10.217   0.605  0.00  0.00    +0.012 C 
ATOM     31  C   UNL     1      16.673  11.312   0.001  0.00  0.00    +0.012 C 
ENDBRANCH  24  29
ENDBRANCH  20  21
ENDBRANCH  19  20
ENDBRANCH   7  19
TORSDOF 8
