REMARK  Name = ZINC40057066
REMARK  4 active torsions:
REMARK  status: ('A' for Active; 'I' for Inactive)
REMARK    1  A    between atoms: C_1  and  C_2
REMARK    2  A    between atoms: C_9  and  C_26
REMARK    3  A    between atoms: C_15  and  C_25
REMARK    4  A    between atoms: C_17  and  C_24
REMARK                            x       y       z     vdW  Elec       q    Type
REMARK                         _______ _______ _______ _____ _____    ______ ____
ROOT
ATOM      1  C   UNL     1      -0.018   1.503   0.010  0.00  0.00    +0.045 C 
ATOM      2  C   UNL     1       0.002  -0.004   0.002  0.00  0.00    -0.032 A 
ATOM      3  C   UNL     1       0.006  -0.699  -1.200  0.00  0.00    +0.008 A 
ATOM      4  C   UNL     1       0.025  -2.082  -1.163  0.00  0.00    +0.044 A 
ATOM      5  C   UNL     1       0.039  -2.725   0.070  0.00  0.00    +0.129 A 
ATOM      6  N   UNL     1       0.035  -2.027   1.194  0.00  0.00    -0.240 NA
ATOM      7  C   UNL     1       0.023  -0.708   1.190  0.00  0.00    +0.116 A 
ATOM      8  N   UNL     1       0.058  -4.117   0.121  0.00  0.00    -0.238 N 
ATOM      9  C   UNL     1      -0.035  -4.938   1.339  0.00  0.00    +0.151 C 
ATOM     10  C   UNL     1       0.031  -6.358   0.879  0.00  0.00    +0.072 A 
ATOM     11  C   UNL     1      -0.003  -7.619   1.627  0.00  0.00    +0.199 A 
ATOM     12  O   UNL     1      -0.274  -7.684   2.813  0.00  0.00    -0.287 OA
ATOM     13  C   UNL     1       0.324  -8.809   0.801  0.00  0.00    +0.067 A 
ATOM     14  C   UNL     1       0.528 -10.051   1.401  0.00  0.00    -0.036 A 
ATOM     15  C   UNL     1       0.833 -11.136   0.628  0.00  0.00    +0.007 A 
ATOM     16  C   UNL     1       0.941 -11.003  -0.750  0.00  0.00    -0.047 A 
ATOM     17  C   UNL     1       0.740  -9.785  -1.359  0.00  0.00    +0.050 A 
ATOM     18  C   UNL     1       0.425  -8.664  -0.592  0.00  0.00    +0.140 A 
ATOM     19  O   UNL     1       0.223  -7.479  -1.212  0.00  0.00    -0.450 OA
ATOM     20  C   UNL     1       0.146  -6.349  -0.482  0.00  0.00    +0.199 A 
ATOM     21  C   UNL     1       0.158  -4.948  -0.936  0.00  0.00    +0.288 C 
ATOM     22  O   UNL     1       0.249  -4.592  -2.094  0.00  0.00    -0.266 OA
ATOM     23  C   UNL     1       1.280 -12.208  -1.589  0.00  0.00    +0.044 C 
ATOM     24  C   UNL     1       0.414 -10.196   2.897  0.00  0.00    +0.044 C 
ENDROOT
BRANCH   9  25
ATOM     25  C   UNL     1      -1.342  -4.679   2.043  0.00  0.00    -0.022 A 
ATOM     26  C   UNL     1      -2.498  -4.496   1.308  0.00  0.00    +0.007 A 
ATOM     27  C   UNL     1      -3.697  -4.258   1.952  0.00  0.00    +0.020 A 
ATOM     28  C   UNL     1      -3.740  -4.202   3.334  0.00  0.00    +0.041 A 
ATOM     29  C   UNL     1      -2.583  -4.385   4.070  0.00  0.00    +0.020 A 
ATOM     30  C   UNL     1      -1.385  -4.629   3.424  0.00  0.00    +0.007 A 
ATOM     31 CL   UNL     1      -5.246  -3.903   4.145  0.00  0.00    -0.084 Cl
ENDBRANCH   9  25
TORSDOF 1
