REMARK  Name = ZINC39631283
REMARK  12 active torsions:
REMARK  status: ('A' for Active; 'I' for Inactive)
REMARK    1  A    between atoms: C_1  and  C_2
REMARK    2  A    between atoms: C_2  and  C_4
REMARK    3  A    between atoms: C_2  and  N_11
REMARK    4  A    between atoms: C_4  and  C_5
REMARK    5  A    between atoms: C_5  and  C_6
REMARK    6  A    between atoms: C_6  and  C_7
REMARK    7  A    between atoms: C_7  and  C_8
REMARK    8  A    between atoms: C_7  and  C_9
REMARK    9  A    between atoms: C_7  and  O_10
REMARK   10  A    between atoms: C_12  and  C_14
REMARK   11  A    between atoms: C_25  and  C_27
REMARK   12  A    between atoms: C_30  and  C_33
REMARK                            x       y       z     vdW  Elec       q    Type
REMARK                         _______ _______ _______ _____ _____    ______ ____
ROOT
ATOM      1  C   UNL     1       0.557  -0.464  -3.539  0.00  0.00    +0.100 C 
ATOM      2  C   UNL     1       1.778   0.307  -4.088  0.00  0.00    +0.121 C 
ATOM      3  N   UNL     1       1.670   0.181  -5.561  0.00  0.00    -0.296 N 
ATOM      4  C   UNL     1       0.219   0.313  -5.837  0.00  0.00    +0.115 C 
ATOM      5  C   UNL     1      -0.464  -0.458  -4.689  0.00  0.00    -0.004 C 
ATOM      6  C   UNL     1      -0.777  -1.885  -5.126  0.00  0.00    -0.010 C 
ATOM      7  C   UNL     1      -1.836  -1.855  -6.231  0.00  0.00    -0.082 C 
ATOM      8  N   UNL     1      -3.050  -1.198  -5.731  0.00  0.00    +0.379 N 
ATOM      9  C   UNL     1      -2.761   0.202  -5.400  0.00  0.00    -0.082 C 
ATOM     10  C   UNL     1      -1.740   0.259  -4.259  0.00  0.00    -0.010 C 
ATOM     11  C   UNL     1       2.665  -0.011  -6.449  0.00  0.00    +0.247 C 
ATOM     12  O   UNL     1       3.799  -0.211  -6.058  0.00  0.00    -0.270 OA
ATOM     13  H   UNL     1      -3.767  -1.234  -6.440  0.00  0.00    -0.086 HD
ATOM     14  H   UNL     1      -3.374  -1.678  -4.904  0.00  0.00    -0.086 HD
ENDROOT
BRANCH  11  15
ATOM     15  C   UNL     1       2.379   0.021  -7.899  0.00  0.00    +0.037 A 
ATOM     16  C   UNL     1       1.239   0.671  -8.374  0.00  0.00    +0.013 A 
ATOM     17  C   UNL     1       0.977   0.698  -9.728  0.00  0.00    +0.013 A 
ATOM     18  C   UNL     1       1.842   0.082 -10.615  0.00  0.00    +0.055 A 
ATOM     19  C   UNL     1       2.974  -0.565 -10.151  0.00  0.00    +0.013 A 
ATOM     20  C   UNL     1       3.250  -0.594  -8.800  0.00  0.00    +0.013 A 
BRANCH  18  21
ATOM     21  C   UNL     1       1.550   0.115 -12.093  0.00  0.00    +0.417 C 
ATOM     22  F   UNL     1       2.145   1.246 -12.661  0.00  0.00    -0.166 F 
ATOM     23  F   UNL     1       2.067  -1.036 -12.696  0.00  0.00    -0.166 F 
ATOM     24  F   UNL     1       0.167   0.165 -12.294  0.00  0.00    -0.166 F 
ENDBRANCH  18  21
ENDBRANCH  11  15
BRANCH   1  26
ATOM     25  N   UNL     1      -0.636  -0.469  -1.372  0.00  0.00    -0.312 N 
ATOM     26  C   UNL     1      -0.008   0.239  -2.332  0.00  0.00    +0.218 C 
ATOM     27  O   UNL     1       0.102   1.442  -2.224  0.00  0.00    -0.275 OA
ATOM     28  H   UNL     1      -0.724  -1.431  -1.459  0.00  0.00    +0.149 HD
BRANCH  25  30
ATOM     29  C   UNL     1      -0.086   0.386   0.852  0.00  0.00    +0.028 C 
ATOM     30  C   UNL     1      -1.185   0.214  -0.199  0.00  0.00    +0.070 C 
BRANCH  30  31
ATOM     31  C   UNL     1      -2.326  -0.619   0.389  0.00  0.00    +0.022 C 
BRANCH  31  32
ATOM     32  C   UNL     1      -3.478  -0.686  -0.617  0.00  0.00    +0.005 C 
BRANCH  32  33
ATOM     33  C   UNL     1      -4.619  -1.519  -0.029  0.00  0.00    +0.034 C 
BRANCH  33  34
ATOM     34  C   UNL     1      -5.771  -1.586  -1.035  0.00  0.00    +0.061 C 
ATOM     35  C   UNL     1      -6.959  -2.312  -0.401  0.00  0.00    +0.041 C 
ATOM     36  C   UNL     1      -6.189  -0.167  -1.426  0.00  0.00    +0.041 C 
BRANCH  34  37
ATOM     37  O   UNL     1      -5.346  -2.296  -2.200  0.00  0.00    -0.389 OA
ATOM     38  H   UNL     1      -5.065  -3.205  -2.026  0.00  0.00    +0.210 HD
ENDBRANCH  34  37
ENDBRANCH  33  34
ENDBRANCH  32  33
ENDBRANCH  31  32
ENDBRANCH  30  31
ENDBRANCH  25  30
ENDBRANCH   1  26
TORSDOF 9
