REMARK  Name = ZINC20536870
REMARK  9 active torsions:
REMARK  status: ('A' for Active; 'I' for Inactive)
REMARK    1  A    between atoms: C_4  and  C_7
REMARK    2  A    between atoms: C_7  and  N_8
REMARK    3  A    between atoms: C_11  and  N_14
REMARK    4  A    between atoms: C_17  and  C_20
REMARK    5  A    between atoms: C_17  and  C_29
REMARK    6  A    between atoms: C_20  and  C_21
REMARK    7  A    between atoms: C_21  and  O_22
REMARK    8  A    between atoms: O_22  and  C_23
REMARK    9  A    between atoms: C_29  and  O_30
REMARK                            x       y       z     vdW  Elec       q    Type
REMARK                         _______ _______ _______ _____ _____    ______ ____
ROOT
ATOM      1  N   UNL     1       6.420  -2.122   3.960  0.00  0.00    +0.380 N 
ATOM      2  C   UNL     1       7.642  -2.130   3.146  0.00  0.00    -0.078 C 
ATOM      3  C   UNL     1       8.829  -1.676   3.998  0.00  0.00    -0.010 C 
ATOM      4  C   UNL     1       8.997  -2.632   5.182  0.00  0.00    -0.006 C 
ATOM      5  C   UNL     1       7.691  -2.673   5.981  0.00  0.00    -0.010 C 
ATOM      6  C   UNL     1       6.546  -3.090   5.056  0.00  0.00    -0.078 C 
ATOM      7  H   UNL     1       6.279  -1.199   4.342  0.00  0.00    -0.082 HD
ENDROOT
BRANCH   1  11
ATOM      8  N   UNL     1       3.749  -0.826   2.208  0.00  0.00    +0.381 N 
ATOM      9  C   UNL     1       2.946  -1.833   2.948  0.00  0.00    -0.080 C 
ATOM     10  C   UNL     1       3.966  -2.437   3.945  0.00  0.00    -0.036 C 
ATOM     11  C   UNL     1       5.271  -2.483   3.119  0.00  0.00    -0.087 C 
ATOM     12  C   UNL     1       5.077  -1.443   2.000  0.00  0.00    -0.094 C 
ATOM     13  H   UNL     1       3.839   0.018   2.754  0.00  0.00    -0.081 HD
BRANCH   8  14
ATOM     14  C   UNL     1       3.120  -0.528   0.914  0.00  0.00    -0.043 C 
BRANCH  14  18
ATOM     15  C   UNL     1      -0.548   1.563   1.558  0.00  0.00    +0.000 A 
ATOM     16  C   UNL     1       0.632   2.268   1.411  0.00  0.00    +0.000 A 
ATOM     17  C   UNL     1       1.819   1.591   1.202  0.00  0.00    +0.002 A 
ATOM     18  C   UNL     1       1.826   0.210   1.142  0.00  0.00    -0.064 A 
ATOM     19  C   UNL     1       0.646  -0.495   1.291  0.00  0.00    +0.002 A 
ATOM     20  C   UNL     1      -0.541   0.182   1.498  0.00  0.00    +0.000 A 
ENDBRANCH  14  18
ENDBRANCH   8  14
ENDBRANCH   1  11
BRANCH   4  21
ATOM     21  C   UNL     1       9.324  -4.035   4.664  0.00  0.00    +0.050 C 
BRANCH  21  22
ATOM     22  C   UNL     1      10.662  -4.006   3.922  0.00  0.00    +0.229 C 
BRANCH  22  23
ATOM     23  O   UNL     1      10.963  -5.314   3.432  0.00  0.00    -0.492 OA
BRANCH  23  24
ATOM     24  C   UNL     1      12.126  -5.462   2.744  0.00  0.00    +0.120 A 
ATOM     25  C   UNL     1      12.962  -4.372   2.551  0.00  0.00    +0.045 A 
ATOM     26  C   UNL     1      14.144  -4.526   1.852  0.00  0.00    +0.004 A 
ATOM     27  C   UNL     1      14.493  -5.764   1.345  0.00  0.00    +0.000 A 
ATOM     28  C   UNL     1      13.660  -6.851   1.536  0.00  0.00    +0.004 A 
ATOM     29  C   UNL     1      12.480  -6.705   2.240  0.00  0.00    +0.045 A 
ENDBRANCH  23  24
ENDBRANCH  22  23
ENDBRANCH  21  22
ENDBRANCH   4  21
BRANCH   4  30
ATOM     30  C   UNL     1      10.132  -2.140   6.081  0.00  0.00    +0.162 C 
BRANCH  30  31
ATOM     31  O   UNL     1      10.366  -3.094   7.119  0.00  0.00    -0.394 OA
ATOM     32  H   UNL     1      11.075  -2.846   7.728  0.00  0.00    +0.209 HD
ENDBRANCH  30  31
ENDBRANCH   4  30
TORSDOF 9
