REMARK  Name = ZINC12663489
REMARK  8 active torsions:
REMARK  status: ('A' for Active; 'I' for Inactive)
REMARK    1  A    between atoms: C_1  and  O_2
REMARK    2  A    between atoms: O_2  and  C_3
REMARK    3  A    between atoms: C_6  and  O_25
REMARK    4  A    between atoms: C_7  and  C_9
REMARK    5  A    between atoms: C_9  and  N_11
REMARK    6  A    between atoms: N_13  and  C_22
REMARK    7  A    between atoms: C_22  and  C_23
REMARK    8  A    between atoms: O_25  and  C_26
REMARK                            x       y       z     vdW  Elec       q    Type
REMARK                         _______ _______ _______ _____ _____    ______ ____
ROOT
ATOM      1  N   UNL     1      -1.800   2.667   5.647  0.00  0.00    -0.152 NA
ATOM      2  C   UNL     1      -1.896   3.700   6.476  0.00  0.00    +0.168 A 
ATOM      3  N   UNL     1      -0.951   4.198   7.318  0.00  0.00    -0.310 N 
ATOM      4  C   UNL     1      -1.237   5.295   8.110  0.00  0.00    +0.059 A 
ATOM      5  C   UNL     1      -0.399   5.948   9.028  0.00  0.00    +0.028 A 
ATOM      6  C   UNL     1      -0.850   7.032   9.744  0.00  0.00    +0.017 A 
ATOM      7  C   UNL     1      -2.140   7.512   9.584  0.00  0.00    +0.019 A 
ATOM      8  C   UNL     1      -2.987   6.886   8.685  0.00  0.00    +0.032 A 
ATOM      9  C   UNL     1      -2.536   5.803   7.969  0.00  0.00    +0.040 A 
ATOM     10  S   UNL     1      -3.261   4.734   6.750  0.00  0.00    -0.052 S 
ATOM     11 BR   UNL     1      -2.736   9.004  10.581  0.00  0.00    -0.050 Br
ENDROOT
BRANCH   1  12
ATOM     12  C   UNL     1      -0.742   1.850   5.717  0.00  0.00    +0.273 C 
ATOM     13  O   UNL     1      -0.482   1.278   6.762  0.00  0.00    -0.268 OA
BRANCH  12  18
ATOM     14  C   UNL     1       0.616   2.093   2.220  0.00  0.00    +0.121 A 
ATOM     15  C   UNL     1       1.713   1.244   2.296  0.00  0.00    +0.049 A 
ATOM     16  C   UNL     1       2.012   0.595   3.477  0.00  0.00    +0.050 A 
ATOM     17  C   UNL     1       1.217   0.786   4.597  0.00  0.00    +0.132 A 
ATOM     18  C   UNL     1       0.110   1.640   4.527  0.00  0.00    +0.084 A 
ATOM     19  C   UNL     1      -0.182   2.297   3.331  0.00  0.00    +0.062 A 
BRANCH  14  21
ATOM     20  C   UNL     1       1.198   2.476  -0.053  0.00  0.00    +0.277 C 
ATOM     21  O   UNL     1       0.329   2.728   1.053  0.00  0.00    -0.495 OA
ENDBRANCH  14  21
BRANCH  17  22
ATOM     22  O   UNL     1       1.511   0.147   5.758  0.00  0.00    -0.494 OA
ATOM     23  C   UNL     1       2.655  -0.709   5.755  0.00  0.00    +0.277 C 
ENDBRANCH  17  22
ENDBRANCH  12  18
ENDBRANCH   1  12
BRANCH   3  24
ATOM     24  C   UNL     1       0.373   3.574   7.383  0.00  0.00    +0.212 C 
BRANCH  24  25
ATOM     25  C   UNL     1       0.412   2.620   8.503  0.00  0.00    -0.084 C 
ATOM     26  C   UNL     1       0.443   1.859   9.397  0.00  0.00    +0.005 C 
ENDBRANCH  24  25
ENDBRANCH   3  24
TORSDOF 6
