REMARK  Name = ZINC47146951
REMARK  6 active torsions:
REMARK  status: ('A' for Active; 'I' for Inactive)
REMARK    1  A    between atoms: C_1  and  C_2
REMARK    2  A    between atoms: C_7  and  C_8
REMARK    3  A    between atoms: C_8  and  O_9
REMARK    4  A    between atoms: O_9  and  C_10
REMARK    5  A    between atoms: C_15  and  C_16
REMARK    6  A    between atoms: N_32  and  C_35
REMARK                            x       y       z     vdW  Elec       q    Type
REMARK                         _______ _______ _______ _____ _____    ______ ____
ROOT
ATOM      1  C   UNL     1       0.094  -2.720   5.737  0.00  0.00    +0.075 C 
ATOM      2  C   UNL     1       1.329  -3.300   6.367  0.00  0.00    +0.033 A 
ATOM      3  C   UNL     1       1.478  -4.444   7.070  0.00  0.00    +0.088 A 
ATOM      4  N   UNL     1       2.749  -4.680   7.531  0.00  0.00    -0.311 N 
ATOM      5  H   UNL     1       2.935  -5.476   8.054  0.00  0.00    +0.170 HD
ATOM      6  C   UNL     1       3.738  -3.808   7.257  0.00  0.00    +0.289 A 
ATOM      7  O   UNL     1       4.910  -3.868   7.582  0.00  0.00    -0.260 OA
ATOM      8  S   UNL     1       2.965  -2.616   6.356  0.00  0.00    -0.030 S 
ATOM      9  S   UNL     1       0.098  -5.545   7.342  0.00  0.00    -0.093 S 
ATOM     10  C   UNL     1      -1.087  -4.874   6.147  0.00  0.00    +0.152 C 
ATOM     11  C   UNL     1      -1.117  -3.336   6.391  0.00  0.00    +0.110 C 
ATOM     12  C   UNL     1      -2.479  -2.999   5.872  0.00  0.00    +0.232 C 
ATOM     13  O   UNL     1      -2.829  -1.955   5.366  0.00  0.00    -0.274 OA
ATOM     14  N   UNL     1      -3.245  -4.102   6.083  0.00  0.00    -0.209 N 
ATOM     15  C   UNL     1      -2.523  -5.228   6.419  0.00  0.00    +0.240 C 
ATOM     16  O   UNL     1      -2.945  -6.280   6.847  0.00  0.00    -0.274 OA
ENDROOT
BRANCH   1  22
ATOM     17  C   UNL     1       0.053  -0.377   4.844  0.00  0.00    +0.125 A 
ATOM     18  C   UNL     1       0.031   0.997   5.035  0.00  0.00    +0.046 A 
ATOM     19  C   UNL     1       0.035   1.516   6.315  0.00  0.00    +0.004 A 
ATOM     20  C   UNL     1       0.062   0.667   7.406  0.00  0.00    +0.001 A 
ATOM     21  C   UNL     1       0.086  -0.703   7.218  0.00  0.00    +0.008 A 
ATOM     22  C   UNL     1       0.075  -1.226   5.940  0.00  0.00    +0.003 A 
BRANCH  17  23
ATOM     23  O   UNL     1       0.048  -0.889   3.585  0.00  0.00    -0.487 OA
BRANCH  23  24
ATOM     24  C   UNL     1       0.025   0.045   2.504  0.00  0.00    +0.264 C 
BRANCH  24  31
ATOM     25  C   UNL     1      -0.018   1.503   0.010  0.00  0.00    +0.044 C 
ATOM     26  C   UNL     1       0.002  -0.004   0.002  0.00  0.00    -0.044 A 
ATOM     27  C   UNL     1       0.006  -0.689  -1.199  0.00  0.00    +0.004 A 
ATOM     28  C   UNL     1       0.025  -2.071  -1.207  0.00  0.00    +0.000 A 
ATOM     29  C   UNL     1       0.040  -2.768  -0.013  0.00  0.00    +0.000 A 
ATOM     30  C   UNL     1       0.037  -2.084   1.188  0.00  0.00    +0.007 A 
ATOM     31  C   UNL     1       0.023  -0.702   1.195  0.00  0.00    -0.007 A 
ENDBRANCH  24  31
ENDBRANCH  23  24
ENDBRANCH  17  23
ENDBRANCH   1  22
BRANCH  14  32
ATOM     32  C   UNL     1      -4.642  -4.101   5.959  0.00  0.00    +0.044 A 
ATOM     33  C   UNL     1      -5.308  -2.937   5.600  0.00  0.00    +0.024 A 
ATOM     34  C   UNL     1      -6.684  -2.940   5.479  0.00  0.00    +0.002 A 
ATOM     35  C   UNL     1      -7.398  -4.101   5.715  0.00  0.00    +0.000 A 
ATOM     36  C   UNL     1      -6.737  -5.261   6.072  0.00  0.00    +0.002 A 
ATOM     37  C   UNL     1      -5.361  -5.266   6.190  0.00  0.00    +0.024 A 
ENDBRANCH  14  32
TORSDOF 5
