REMARK  Name = ZINC39661337
REMARK  6 active torsions:
REMARK  status: ('A' for Active; 'I' for Inactive)
REMARK    1  A    between atoms: C_4  and  C_7
REMARK    2  A    between atoms: C_7  and  O_8
REMARK    3  A    between atoms: O_8  and  C_9
REMARK    4  A    between atoms: C_14  and  C_17
REMARK    5  A    between atoms: C_21  and  C_30
REMARK    6  A    between atoms: N_32  and  C_33
REMARK                            x       y       z     vdW  Elec       q    Type
REMARK                         _______ _______ _______ _____ _____    ______ ____
ROOT
ATOM      1  C   UNL     1       8.120  -0.541   6.063  0.00  0.00    +0.219 C 
ATOM      2  O   UNL     1       7.858   0.604   6.363  0.00  0.00    -0.275 OA
ATOM      3  N   UNL     1       9.232  -1.129   6.548  0.00  0.00    -0.300 N 
ATOM      4  C   UNL     1       9.776  -2.464   6.208  0.00  0.00    +0.121 C 
ATOM      5  C   UNL     1      11.306  -2.260   6.153  0.00  0.00    +0.100 C 
ATOM      6  C   UNL     1      11.569  -1.026   7.032  0.00  0.00    -0.004 C 
ATOM      7  C   UNL     1      10.190  -0.581   7.539  0.00  0.00    +0.115 C 
ATOM      8  C   UNL     1      12.204   0.087   6.204  0.00  0.00    -0.010 C 
ATOM      9  C   UNL     1      12.508   1.282   7.112  0.00  0.00    -0.082 C 
ATOM     10  N   UNL     1      13.418   0.864   8.186  0.00  0.00    +0.379 N 
ATOM     11  C   UNL     1      12.764  -0.140   9.033  0.00  0.00    -0.082 C 
ATOM     12  C   UNL     1      12.470  -1.395   8.207  0.00  0.00    -0.010 C 
ATOM     13  H   UNL     1      14.254   0.469   7.782  0.00  0.00    -0.086 HD
ATOM     14  H   UNL     1      13.665   1.666   8.747  0.00  0.00    -0.086 HD
ENDROOT
BRANCH   1  20
ATOM     15  C   UNL     1       3.332  -1.985   3.946  0.00  0.00    +0.403 C 
ATOM     16  O   UNL     1       2.821  -1.222   3.150  0.00  0.00    -0.226 OA
ATOM     17  N   UNL     1       4.671  -2.008   4.093  0.00  0.00    -0.267 N 
ATOM     18  C   UNL     1       5.304  -2.929   5.047  0.00  0.00    +0.112 C 
ATOM     19  C   UNL     1       6.213  -2.125   5.981  0.00  0.00    +0.032 C 
ATOM     20  C   UNL     1       7.202  -1.308   5.146  0.00  0.00    +0.078 C 
ATOM     21  C   UNL     1       6.433  -0.328   4.257  0.00  0.00    +0.032 C 
ATOM     22  C   UNL     1       5.527  -1.116   3.299  0.00  0.00    +0.112 C 
BRANCH  15  23
ATOM     23  O   UNL     1       2.560  -2.808   4.680  0.00  0.00    -0.445 OA
BRANCH  23  24
ATOM     24  C   UNL     1       1.148  -2.731   4.472  0.00  0.00    +0.269 C 
BRANCH  24  28
ATOM     25  C   UNL     1      -0.826  -5.526   7.028  0.00  0.00    +0.000 A 
ATOM     26  C   UNL     1      -0.586  -4.238   7.468  0.00  0.00    +0.000 A 
ATOM     27  C   UNL     1       0.053  -3.333   6.641  0.00  0.00    +0.007 A 
ATOM     28  C   UNL     1       0.452  -3.717   5.374  0.00  0.00    -0.010 A 
ATOM     29  C   UNL     1       0.213  -5.006   4.935  0.00  0.00    +0.007 A 
ATOM     30  C   UNL     1      -0.428  -5.910   5.761  0.00  0.00    +0.000 A 
ENDBRANCH  24  28
ENDBRANCH  23  24
ENDBRANCH  15  23
ENDBRANCH   1  20
BRANCH   5  31
ATOM     31  C   UNL     1      11.750  -2.002   4.736  0.00  0.00    +0.219 C 
ATOM     32  O   UNL     1      11.025  -1.398   3.974  0.00  0.00    -0.275 OA
ATOM     33  N   UNL     1      12.953  -2.442   4.316  0.00  0.00    -0.304 N 
ATOM     34  H   UNL     1      13.532  -2.925   4.925  0.00  0.00    +0.149 HD
BRANCH  33  35
ATOM     35  C   UNL     1      13.384  -2.191   2.938  0.00  0.00    +0.151 C 
ATOM     36  C   UNL     1      14.368  -3.285   2.518  0.00  0.00    +0.042 C 
ATOM     37  C   UNL     1      15.229  -2.724   1.361  0.00  0.00    +0.079 C 
ATOM     38  S   UNL     1      15.253  -0.932   1.750  0.00  0.00    -0.086 S 
ATOM     39  C   UNL     1      14.003  -0.815   2.860  0.00  0.00    +0.209 C 
ATOM     40  O   UNL     1      13.663   0.174   3.475  0.00  0.00    -0.283 OA
ENDBRANCH  33  35
ENDBRANCH   5  31
TORSDOF 6
