REMARK  Name = ZINC35165507
REMARK  14 active torsions:
REMARK  status: ('A' for Active; 'I' for Inactive)
REMARK    1  A    between atoms: C_1  and  C_2
REMARK    2  A    between atoms: C_2  and  C_3
REMARK    3  A    between atoms: C_2  and  C_4
REMARK    4  A    between atoms: C_7  and  C_10
REMARK    5  A    between atoms: C_12  and  C_32
REMARK    6  A    between atoms: C_17  and  C_30
REMARK    7  A    between atoms: C_17  and  O_31
REMARK    8  A    between atoms: C_18  and  C_20
REMARK    9  A    between atoms: C_20  and  O_22
REMARK   10  A    between atoms: O_22  and  C_23
REMARK   11  A    between atoms: C_23  and  C_24
REMARK   12  A    between atoms: C_32  and  O_34
REMARK   13  A    between atoms: O_34  and  C_35
REMARK   14  A    between atoms: C_35  and  C_36
REMARK                            x       y       z     vdW  Elec       q    Type
REMARK                         _______ _______ _______ _____ _____    ______ ____
ROOT
ATOM      1  C   UNL     1      -5.479  -0.293  -0.357  0.00  0.00    +0.056 C 
ATOM      2  C   UNL     1      -6.196  -1.403  -1.133  0.00  0.00    +0.172 C 
ATOM      3  C   UNL     1      -6.216  -2.651  -0.278  0.00  0.00    +0.150 C 
ATOM      4  O   UNL     1      -7.248  -3.246  -0.076  0.00  0.00    -0.296 OA
ATOM      5  C   UNL     1      -4.913  -3.135   0.317  0.00  0.00    +0.110 C 
ATOM      6  C   UNL     1      -4.242  -1.962   1.040  0.00  0.00    +0.083 C 
ATOM      7  C   UNL     1      -4.096  -0.785   0.074  0.00  0.00    +0.138 C 
ATOM      8  C   UNL     1      -5.103  -1.538   2.232  0.00  0.00    +0.042 C 
ENDROOT
BRANCH   1  12
ATOM      9  C   UNL     1      -5.054   3.143  -2.859  0.00  0.00    -0.045 A 
ATOM     10  C   UNL     1      -4.213   2.059  -3.026  0.00  0.00    +0.004 A 
ATOM     11  C   UNL     1      -4.351   0.947  -2.216  0.00  0.00    +0.004 A 
ATOM     12  C   UNL     1      -5.328   0.919  -1.239  0.00  0.00    -0.042 A 
ATOM     13  C   UNL     1      -6.168   2.005  -1.071  0.00  0.00    +0.004 A 
ATOM     14  C   UNL     1      -6.028   3.118  -1.878  0.00  0.00    +0.004 A 
BRANCH   9  16
ATOM     15  C   UNL     1      -3.500   4.940  -3.572  0.00  0.00    +0.012 C 
ATOM     16  C   UNL     1      -4.904   4.356  -3.741  0.00  0.00    +0.013 C 
ATOM     17  C   UNL     1      -5.116   3.953  -5.202  0.00  0.00    +0.012 C 
ENDBRANCH   9  16
ENDBRANCH   1  12
BRANCH   7  18
ATOM     18  C   UNL     1      -3.356   0.336   0.757  0.00  0.00    +0.314 C 
ATOM     19  O   UNL     1      -3.881   1.416   0.885  0.00  0.00    -0.250 OA
BRANCH  18  20
ATOM     20  O   UNL     1      -2.114   0.134   1.223  0.00  0.00    -0.460 OA
BRANCH  20  21
ATOM     21  C   UNL     1      -1.472   1.240   1.860  0.00  0.00    +0.267 C 
BRANCH  21  22
ATOM     22  C   UNL     1      -0.095   0.829   2.314  0.00  0.00    -0.010 A 
ATOM     23  C   UNL     1       0.084   0.290   3.575  0.00  0.00    +0.007 A 
ATOM     24  C   UNL     1       1.347  -0.087   3.992  0.00  0.00    +0.000 A 
ATOM     25  C   UNL     1       2.430   0.074   3.148  0.00  0.00    +0.000 A 
ATOM     26  C   UNL     1       2.251   0.611   1.888  0.00  0.00    +0.000 A 
ATOM     27  C   UNL     1       0.987   0.985   1.469  0.00  0.00    +0.007 A 
ENDBRANCH  21  22
ENDBRANCH  20  21
ENDBRANCH  18  20
ENDBRANCH   7  18
BRANCH   6  28
ATOM     28  O   UNL     1      -2.951  -2.362   1.503  0.00  0.00    -0.388 OA
ATOM     29  H   UNL     1      -2.967  -3.106   2.120  0.00  0.00    +0.210 HD
ENDBRANCH   6  28
BRANCH   2  30
ATOM     30  C   UNL     1      -5.460  -1.679  -2.419  0.00  0.00    +0.318 C 
ATOM     31  O   UNL     1      -4.468  -2.369  -2.412  0.00  0.00    -0.250 OA
BRANCH  30  32
ATOM     32  O   UNL     1      -5.905  -1.157  -3.572  0.00  0.00    -0.459 OA
BRANCH  32  33
ATOM     33  C   UNL     1      -5.159  -1.459  -4.753  0.00  0.00    +0.267 C 
BRANCH  33  34
ATOM     34  C   UNL     1      -5.804  -0.792  -5.940  0.00  0.00    -0.010 A 
ATOM     35  C   UNL     1      -6.780  -1.455  -6.660  0.00  0.00    +0.007 A 
ATOM     36  C   UNL     1      -7.372  -0.844  -7.749  0.00  0.00    +0.000 A 
ATOM     37  C   UNL     1      -6.988   0.432  -8.118  0.00  0.00    +0.000 A 
ATOM     38  C   UNL     1      -6.013   1.096  -7.397  0.00  0.00    +0.000 A 
ATOM     39  C   UNL     1      -5.424   0.486  -6.306  0.00  0.00    +0.007 A 
ENDBRANCH  33  34
ENDBRANCH  32  33
ENDBRANCH  30  32
ENDBRANCH   2  30
TORSDOF 11
