REMARK  Name = ZINC06678771
REMARK  9 active torsions:
REMARK  status: ('A' for Active; 'I' for Inactive)
REMARK    1  A    between atoms: C_1  and  C_2
REMARK    2  A    between atoms: C_7  and  C_8
REMARK    3  A    between atoms: C_8  and  O_9
REMARK    4  A    between atoms: O_9  and  C_10
REMARK    5  A    between atoms: C_13  and  C_18
REMARK    6  A    between atoms: C_15  and  O_16
REMARK    7  A    between atoms: O_16  and  C_17
REMARK    8  A    between atoms: C_21  and  C_33
REMARK    9  A    between atoms: C_29  and  C_32
REMARK                            x       y       z     vdW  Elec       q    Type
REMARK                         _______ _______ _______ _____ _____    ______ ____
ROOT
ATOM      1  C   UNL     1       0.329  -0.009   4.492  0.00  0.00    +0.162 A 
ATOM      2  C   UNL     1       0.610   1.327   4.730  0.00  0.00    +0.050 A 
ATOM      3  C   UNL     1       0.504   1.838   6.010  0.00  0.00    +0.009 A 
ATOM      4  C   UNL     1       0.118   1.018   7.055  0.00  0.00    -0.026 A 
ATOM      5  C   UNL     1      -0.163  -0.315   6.824  0.00  0.00    +0.054 A 
ATOM      6  C   UNL     1      -0.065  -0.832   5.542  0.00  0.00    +0.162 A 
ENDROOT
BRANCH   4   7
ATOM      7  C   UNL     1       0.005   1.581   8.448  0.00  0.00    +0.112 C 
ATOM      8  C   UNL     1       1.350   2.079   8.876  0.00  0.00    +0.032 A 
ATOM      9  C   UNL     1       2.546   1.567   8.329  0.00  0.00    +0.066 A 
ATOM     10  N   UNL     1       3.553   2.180   8.880  0.00  0.00    -0.177 NA
ATOM     11  N   UNL     1       3.050   3.104   9.796  0.00  0.00    -0.263 N 
ATOM     12  H   UNL     1       3.579   3.701  10.349  0.00  0.00    +0.190 HD
ATOM     13  C   UNL     1       1.683   3.024   9.782  0.00  0.00    +0.125 A 
ATOM     14  N   UNL     1       0.918   3.821  10.599  0.00  0.00    -0.270 N 
ATOM     15  C   UNL     1      -0.357   4.003  10.770  0.00  0.00    +0.231 C 
ATOM     16  O   UNL     1      -0.646   4.898  11.537  0.00  0.00    -0.274 OA
ATOM     17  C   UNL     1      -1.512   3.295  10.179  0.00  0.00    +0.130 C 
ATOM     18  S   UNL     1      -1.256   2.858   8.454  0.00  0.00    -0.135 S 
ATOM     19  C   UNL     1      -2.746   4.194  10.280  0.00  0.00    +0.029 C 
ATOM     20  C   UNL     1       2.641   0.488   7.281  0.00  0.00    +0.068 C 
ATOM     21  H   UNL     1       1.455   4.378  11.184  0.00  0.00    +0.156 HD
ENDBRANCH   4   7
BRANCH   6  22
ATOM     22  O   UNL     1      -0.348  -2.142   5.312  0.00  0.00    -0.491 OA
ATOM     23  C   UNL     1      -0.746  -2.927   6.438  0.00  0.00    +0.277 C 
ENDBRANCH   6  22
BRANCH   1  24
ATOM     24  O   UNL     1       0.432  -0.513   3.233  0.00  0.00    -0.484 OA
BRANCH  24  25
ATOM     25  C   UNL     1       0.842   0.390   2.204  0.00  0.00    +0.265 C 
BRANCH  25  32
ATOM     26  C   UNL     1       1.624   1.795  -0.196  0.00  0.00    +0.044 C 
ATOM     27  C   UNL     1       1.273   0.331  -0.261  0.00  0.00    -0.044 A 
ATOM     28  C   UNL     1       1.331  -0.341  -1.468  0.00  0.00    +0.004 A 
ATOM     29  C   UNL     1       1.010  -1.684  -1.527  0.00  0.00    +0.000 A 
ATOM     30  C   UNL     1       0.630  -2.355  -0.379  0.00  0.00    +0.000 A 
ATOM     31  C   UNL     1       0.573  -1.684   0.827  0.00  0.00    +0.007 A 
ATOM     32  C   UNL     1       0.899  -0.341   0.887  0.00  0.00    -0.007 A 
ENDBRANCH  25  32
ENDBRANCH  24  25
ENDBRANCH   1  24
TORSDOF 5
