REMARK  Name = ZINC12465010
REMARK  8 active torsions:
REMARK  status: ('A' for Active; 'I' for Inactive)
REMARK    1  A    between atoms: C_1  and  C_2
REMARK    2  A    between atoms: C_5  and  N_8
REMARK    3  A    between atoms: C_12  and  C_13
REMARK    4  A    between atoms: C_16  and  O_21
REMARK    5  A    between atoms: C_17  and  O_19
REMARK    6  A    between atoms: O_19  and  C_20
REMARK    7  A    between atoms: O_21  and  C_22
REMARK    8  A    between atoms: C_22  and  C_23
REMARK                            x       y       z     vdW  Elec       q    Type
REMARK                         _______ _______ _______ _____ _____    ______ ____
ROOT
ATOM      1  C   UNL     1      -4.712   9.814   1.010  0.00  0.00    -0.020 A 
ATOM      2  C   UNL     1      -3.929   9.513  -0.115  0.00  0.00    +0.012 A 
ATOM      3  C   UNL     1      -3.694   8.201  -0.457  0.00  0.00    +0.050 A 
ATOM      4  C   UNL     1      -4.230   7.172   0.309  0.00  0.00    +0.162 A 
ATOM      5  C   UNL     1      -5.014   7.462   1.427  0.00  0.00    +0.162 A 
ATOM      6  C   UNL     1      -5.252   8.774   1.782  0.00  0.00    +0.057 A 
ENDROOT
BRANCH   1  11
ATOM      7  N   UNL     1      -3.093  14.384   1.585  0.00  0.00    -0.190 N 
ATOM      8  C   UNL     1      -4.162  13.561   1.553  0.00  0.00    +0.263 C 
ATOM      9  O   UNL     1      -5.292  14.002   1.635  0.00  0.00    -0.269 OA
ATOM     10  C   UNL     1      -3.921  12.111   1.416  0.00  0.00    +0.100 C 
ATOM     11  C   UNL     1      -4.965  11.207   1.377  0.00  0.00    +0.026 C 
ATOM     12  C   UNL     1      -2.515  11.670   1.330  0.00  0.00    +0.257 C 
ATOM     13  O   UNL     1      -2.235  10.491   1.220  0.00  0.00    -0.270 OA
ATOM     14  N   UNL     1      -1.548  12.611   1.370  0.00  0.00    -0.235 N 
ATOM     15  C   UNL     1      -1.842  13.912   1.496  0.00  0.00    +0.320 C 
ATOM     16  O   UNL     1      -0.923  14.707   1.532  0.00  0.00    -0.251 OA
ATOM     17  H   UNL     1      -0.619  12.338   1.311  0.00  0.00    +0.159 HD
BRANCH   7  22
ATOM     18  C   UNL     1      -3.914  19.975   2.109  0.00  0.00    +0.044 C 
ATOM     19  C   UNL     1      -3.696  18.490   1.970  0.00  0.00    -0.050 A 
ATOM     20  C   UNL     1      -3.517  17.711   3.098  0.00  0.00    +0.005 A 
ATOM     21  C   UNL     1      -3.317  16.350   2.973  0.00  0.00    +0.024 A 
ATOM     22  C   UNL     1      -3.296  15.765   1.714  0.00  0.00    +0.046 A 
ATOM     23  C   UNL     1      -3.471  16.551   0.584  0.00  0.00    +0.024 A 
ATOM     24  C   UNL     1      -3.676  17.910   0.715  0.00  0.00    +0.005 A 
ENDBRANCH   7  22
ENDBRANCH   1  11
BRANCH   5  25
ATOM     25  O   UNL     1      -5.540   6.451   2.169  0.00  0.00    -0.491 OA
ATOM     26  C   UNL     1      -6.333   6.821   3.299  0.00  0.00    +0.277 C 
ENDBRANCH   5  25
BRANCH   4  27
ATOM     27  O   UNL     1      -3.994   5.880  -0.034  0.00  0.00    -0.484 OA
BRANCH  27  28
ATOM     28  C   UNL     1      -3.188   5.654  -1.192  0.00  0.00    +0.265 C 
BRANCH  28  29
ATOM     29  C   UNL     1      -3.035   4.171  -1.416  0.00  0.00    -0.003 A 
ATOM     30  C   UNL     1      -3.628   3.287  -0.567  0.00  0.00    +0.007 A 
ATOM     31  C   UNL     1      -3.497   1.913  -0.757  0.00  0.00    +0.001 A 
ATOM     32  C   UNL     1      -2.774   1.415  -1.798  0.00  0.00    +0.008 A 
ATOM     33  C   UNL     1      -2.153   2.297  -2.698  0.00  0.00    -0.018 A 
ATOM     34  C   UNL     1      -2.281   3.695  -2.501  0.00  0.00    -0.011 A 
ATOM     35  C   UNL     1      -1.655   4.577  -3.398  0.00  0.00    +0.009 A 
ATOM     36  C   UNL     1      -0.931   4.079  -4.437  0.00  0.00    +0.001 A 
ATOM     37  C   UNL     1      -0.801   2.704  -4.628  0.00  0.00    +0.001 A 
ATOM     38  C   UNL     1      -1.394   1.820  -3.780  0.00  0.00    +0.008 A 
ENDBRANCH  28  29
ENDBRANCH  27  28
ENDBRANCH   4  27
TORSDOF 6
