REMARK  Name = ZINC46631522
REMARK  9 active torsions:
REMARK  status: ('A' for Active; 'I' for Inactive)
REMARK    1  A    between atoms: C_1  and  C_2
REMARK    2  A    between atoms: C_2  and  C_4
REMARK    3  A    between atoms: C_2  and  N_10
REMARK    4  A    between atoms: C_11  and  C_13
REMARK    5  A    between atoms: C_13  and  C_15
REMARK    6  A    between atoms: C_13  and  N_18
REMARK    7  A    between atoms: C_15  and  C_16
REMARK    8  A    between atoms: C_15  and  C_17
REMARK    9  A    between atoms: C_19  and  C_21
REMARK                            x       y       z     vdW  Elec       q    Type
REMARK                         _______ _______ _______ _____ _____    ______ ____
ROOT
ATOM      1  C   UNL     1      -3.465  -1.164  -1.134  0.00  0.00    +0.162 C 
ENDROOT
BRANCH   1   3
ATOM      2  N   UNL     1      -1.372  -0.511   0.012  0.00  0.00    -0.307 N 
ATOM      3  C   UNL     1      -2.051  -0.643  -1.145  0.00  0.00    +0.234 C 
ATOM      4  O   UNL     1      -1.524  -0.341  -2.194  0.00  0.00    -0.274 OA
ATOM      5  H   UNL     1      -1.794  -0.752   0.852  0.00  0.00    +0.149 HD
BRANCH   2   7
ATOM      6  C   UNL     1      -0.019   1.526   0.010  0.00  0.00    +0.033 C 
ATOM      7  C   UNL     1       0.002  -0.004   0.002  0.00  0.00    +0.107 C 
BRANCH   7   8
ATOM      8  C   UNL     1       0.731  -0.503   1.223  0.00  0.00    +0.011 A 
ATOM      9  C   UNL     1       2.009  -0.938   1.335  0.00  0.00    +0.014 A 
ATOM     10  C   UNL     1       2.471  -1.355   2.570  0.00  0.00    +0.028 A 
ATOM     11  C   UNL     1       1.629  -1.315   3.633  0.00  0.00    +0.078 A 
ATOM     12  S   UNL     1       0.136  -0.668   2.898  0.00  0.00    -0.080 S 
ATOM     13 CL   UNL     1       1.927  -1.770   5.282  0.00  0.00    -0.076 Cl
ENDBRANCH   7   8
ENDBRANCH   2   7
ENDBRANCH   1   3
BRANCH   1  14
ATOM     14  N   UNL     1      -3.978  -1.213  -2.505  0.00  0.00    -0.300 N 
ATOM     15  C   UNL     1      -5.305  -1.151  -2.731  0.00  0.00    +0.250 C 
ATOM     16  O   UNL     1      -6.077  -1.054  -1.796  0.00  0.00    -0.270 OA
ATOM     17  H   UNL     1      -3.362  -1.290  -3.251  0.00  0.00    +0.150 HD
BRANCH  15  18
ATOM     18  C   UNL     1      -5.821  -1.200  -4.112  0.00  0.00    +0.107 A 
ATOM     19  C   UNL     1      -6.142  -2.428  -4.700  0.00  0.00    +0.138 A 
ATOM     20  C   UNL     1      -6.625  -2.465  -5.995  0.00  0.00    +0.039 A 
ATOM     21  C   UNL     1      -6.793  -1.292  -6.708  0.00  0.00    +0.006 A 
ATOM     22  C   UNL     1      -6.479  -0.073  -6.135  0.00  0.00    +0.039 A 
ATOM     23  C   UNL     1      -5.999  -0.018  -4.839  0.00  0.00    +0.138 A 
ATOM     24  F   UNL     1      -5.698   1.174  -4.279  0.00  0.00    -0.205 F 
ATOM     25  F   UNL     1      -5.978  -3.575  -4.005  0.00  0.00    -0.205 F 
ENDBRANCH  15  18
ENDBRANCH   1  14
BRANCH   1  26
ATOM     26  C   UNL     1      -3.485  -2.571  -0.532  0.00  0.00    +0.012 C 
ATOM     27  C   UNL     1      -4.920  -3.100  -0.521  0.00  0.00    +0.009 C 
ATOM     28  C   UNL     1      -2.605  -3.498  -1.372  0.00  0.00    +0.009 C 
ENDBRANCH   1  26
TORSDOF 6
