REMARK  Name = ZINC36500468
REMARK  10 active torsions:
REMARK  status: ('A' for Active; 'I' for Inactive)
REMARK    1  A    between atoms: C_3  and  O_35
REMARK    2  A    between atoms: C_4  and  C_8
REMARK    3  A    between atoms: C_5  and  O_7
REMARK    4  A    between atoms: N_10  and  C_11
REMARK    5  A    between atoms: N_10  and  C_17
REMARK    6  A    between atoms: C_11  and  C_12
REMARK    7  A    between atoms: C_17  and  C_19
REMARK    8  A    between atoms: C_17  and  C_26
REMARK    9  A    between atoms: C_22  and  O_25
REMARK   10  A    between atoms: N_28  and  C_29
REMARK                            x       y       z     vdW  Elec       q    Type
REMARK                         _______ _______ _______ _____ _____    ______ ____
ROOT
ATOM      1  C   UNL     1       4.680  -2.408  -0.103  0.00  0.00    +0.255 C 
ATOM      2  O   UNL     1       5.782  -2.778   0.255  0.00  0.00    -0.270 OA
ATOM      3  N   UNL     1       4.565  -1.456  -1.050  0.00  0.00    -0.274 N 
ENDROOT
BRANCH   1   7
ATOM      4  C   UNL     1       1.195  -4.116   1.628  0.00  0.00    +0.007 A 
ATOM      5  C   UNL     1       1.765  -2.993   2.199  0.00  0.00    +0.046 A 
ATOM      6  C   UNL     1       2.901  -2.429   1.643  0.00  0.00    +0.133 A 
ATOM      7  C   UNL     1       3.473  -3.000   0.496  0.00  0.00    +0.119 A 
ATOM      8  C   UNL     1       2.886  -4.138  -0.075  0.00  0.00    +0.133 A 
ATOM      9  C   UNL     1       1.750  -4.687   0.498  0.00  0.00    +0.046 A 
BRANCH   8  10
ATOM     10  O   UNL     1       3.429  -4.700  -1.184  0.00  0.00    -0.506 OA
ATOM     11  H   UNL     1       4.091  -5.379  -0.997  0.00  0.00    +0.292 HD
ENDBRANCH   8  10
BRANCH   6  12
ATOM     12  O   UNL     1       3.459  -1.327   2.205  0.00  0.00    -0.506 OA
ATOM     13  H   UNL     1       4.126  -1.523   2.877  0.00  0.00    +0.292 HD
ENDBRANCH   6  12
ENDBRANCH   1   7
BRANCH   3  14
ATOM     14  C   UNL     1       3.238  -1.010  -1.483  0.00  0.00    +0.183 C 
BRANCH  14  15
ATOM     15  C   UNL     1       2.623  -0.150  -0.409  0.00  0.00    +0.122 A 
ATOM     16  C   UNL     1       2.884   1.153  -0.198  0.00  0.00    +0.046 A 
ATOM     17  C   UNL     1       2.093   1.557   0.901  0.00  0.00    +0.041 A 
ATOM     18  C   UNL     1       1.395   0.477   1.297  0.00  0.00    +0.195 A 
ATOM     19  O   UNL     1       1.716  -0.552   0.496  0.00  0.00    -0.466 OA
ENDBRANCH  14  15
ENDBRANCH   3  14
BRANCH   3  20
ATOM     20  C   UNL     1       5.766  -0.867  -1.647  0.00  0.00    +0.193 C 
BRANCH  20  21
ATOM     21  C   UNL     1       6.461  -1.898  -2.498  0.00  0.00    -0.018 A 
ATOM     22  C   UNL     1       5.742  -2.621  -3.432  0.00  0.00    +0.009 A 
ATOM     23  C   UNL     1       6.377  -3.567  -4.213  0.00  0.00    +0.046 A 
ATOM     24  C   UNL     1       7.738  -3.792  -4.060  0.00  0.00    +0.117 A 
ATOM     25  C   UNL     1       8.457  -3.065  -3.122  0.00  0.00    +0.046 A 
ATOM     26  C   UNL     1       7.818  -2.116  -2.347  0.00  0.00    +0.009 A 
BRANCH  24  27
ATOM     27  O   UNL     1       8.365  -4.722  -4.827  0.00  0.00    -0.507 OA
ATOM     28  H   UNL     1       8.717  -4.375  -5.658  0.00  0.00    +0.292 HD
ENDBRANCH  24  27
ENDBRANCH  20  21
BRANCH  20  29
ATOM     29  C   UNL     1       5.376   0.311  -2.503  0.00  0.00    +0.238 C 
ATOM     30  O   UNL     1       4.415   0.987  -2.203  0.00  0.00    -0.273 OA
ATOM     31  N   UNL     1       6.095   0.612  -3.603  0.00  0.00    -0.311 N 
ATOM     32  H   UNL     1       6.864   0.072  -3.842  0.00  0.00    +0.149 HD
BRANCH  31  33
ATOM     33  C   UNL     1       5.716   1.757  -4.435  0.00  0.00    +0.073 C 
ATOM     34  C   UNL     1       4.642   1.326  -5.435  0.00  0.00    +0.022 C 
ATOM     35  C   UNL     1       4.246   2.522  -6.304  0.00  0.00    +0.002 C 
ATOM     36  C   UNL     1       5.474   3.030  -7.062  0.00  0.00    +0.000 C 
ATOM     37  C   UNL     1       6.548   3.461  -6.061  0.00  0.00    +0.002 C 
ATOM     38  C   UNL     1       6.944   2.266  -5.192  0.00  0.00    +0.022 C 
ENDBRANCH  31  33
ENDBRANCH  20  29
ENDBRANCH   3  20
TORSDOF 10
