REMARK  Name = ZINC02073029
REMARK  16 active torsions:
REMARK  status: ('A' for Active; 'I' for Inactive)
REMARK    1  A    between atoms: C_1  and  C_2
REMARK    2  A    between atoms: C_3  and  C_37
REMARK    3  A    between atoms: C_4  and  C_25
REMARK    4  A    between atoms: C_10  and  C_15
REMARK    5  A    between atoms: C_18  and  O_23
REMARK    6  A    between atoms: C_19  and  O_21
REMARK    7  A    between atoms: O_21  and  C_22
REMARK    8  A    between atoms: O_23  and  C_24
REMARK    9  A    between atoms: C_27  and  O_35
REMARK   10  A    between atoms: C_28  and  O_33
REMARK   11  A    between atoms: C_30  and  O_31
REMARK   12  A    between atoms: O_31  and  C_32
REMARK   13  A    between atoms: O_33  and  C_34
REMARK   14  A    between atoms: O_35  and  C_36
REMARK   15  A    between atoms: C_37  and  O_39
REMARK   16  A    between atoms: O_39  and  C_40
REMARK                            x       y       z     vdW  Elec       q    Type
REMARK                         _______ _______ _______ _____ _____    ______ ____
ROOT
ATOM      1  C   UNL     1      -8.279   2.892   3.045  0.00  0.00    +0.061 C 
ATOM      2  C   UNL     1      -7.410   1.661   3.055  0.00  0.00    +0.016 C 
ATOM      3  C   UNL     1      -6.924   1.178   1.898  0.00  0.00    +0.065 C 
ATOM      4  C   UNL     1      -6.049  -0.041   1.870  0.00  0.00    +0.096 C 
ATOM      5  C   UNL     1      -6.174  -0.826   3.151  0.00  0.00    +0.024 C 
ATOM      6  C   UNL     1      -6.690  -0.257   4.261  0.00  0.00    +0.016 C 
ATOM      7  N   UNL     1      -7.122   1.042   4.239  0.00  0.00    -0.321 N 
ATOM      8  C   UNL     1      -6.806  -1.032   5.550  0.00  0.00    +0.059 C 
ATOM      9  C   UNL     1      -7.025  -2.515   5.239  0.00  0.00    +0.032 C 
ATOM     10  C   UNL     1      -5.849  -3.013   4.393  0.00  0.00    +0.088 C 
ATOM     11  C   UNL     1      -5.742  -2.164   3.156  0.00  0.00    +0.162 C 
ATOM     12  O   UNL     1      -5.273  -2.643   2.142  0.00  0.00    -0.292 OA
ATOM     13  H   UNL     1      -7.236   1.589   5.187  0.00  0.00    +0.152 HD
ENDROOT
BRANCH   9  14
ATOM     14  C   UNL     1      -7.094  -3.301   6.523  0.00  0.00    -0.040 A 
ATOM     15  C   UNL     1      -6.024  -3.286   7.399  0.00  0.00    +0.008 A 
ATOM     16  C   UNL     1      -6.082  -4.005   8.578  0.00  0.00    +0.049 A 
ATOM     17  C   UNL     1      -7.215  -4.743   8.885  0.00  0.00    +0.161 A 
ATOM     18  C   UNL     1      -8.291  -4.757   8.003  0.00  0.00    +0.162 A 
ATOM     19  C   UNL     1      -8.229  -4.030   6.825  0.00  0.00    +0.053 A 
BRANCH  18  20
ATOM     20  O   UNL     1      -9.405  -5.480   8.300  0.00  0.00    -0.491 OA
ATOM     21  C   UNL     1     -10.471  -5.448   7.348  0.00  0.00    +0.277 C 
ENDBRANCH  18  20
BRANCH  17  22
ATOM     22  O   UNL     1      -7.273  -5.451  10.044  0.00  0.00    -0.491 OA
ATOM     23  C   UNL     1      -6.131  -5.390  10.900  0.00  0.00    +0.277 C 
ENDBRANCH  17  22
ENDBRANCH   9  14
BRANCH   4  24
ATOM     24  C   UNL     1      -4.615   0.384   1.688  0.00  0.00    +0.010 A 
ATOM     25  C   UNL     1      -4.006   1.184   2.636  0.00  0.00    +0.057 A 
ATOM     26  C   UNL     1      -2.688   1.575   2.471  0.00  0.00    +0.162 A 
ATOM     27  C   UNL     1      -1.976   1.163   1.348  0.00  0.00    +0.165 A 
ATOM     28  C   UNL     1      -2.589   0.365   0.396  0.00  0.00    +0.095 A 
ATOM     29  C   UNL     1      -3.908  -0.029   0.569  0.00  0.00    +0.128 A 
BRANCH  29  30
ATOM     30  O   UNL     1      -4.509  -0.816  -0.363  0.00  0.00    -0.495 OA
ATOM     31  C   UNL     1      -3.721  -1.204  -1.491  0.00  0.00    +0.277 C 
ENDBRANCH  29  30
BRANCH  27  32
ATOM     32  O   UNL     1      -0.682   1.547   1.184  0.00  0.00    -0.491 OA
ATOM     33  C   UNL     1      -0.013   1.086   0.008  0.00  0.00    +0.277 C 
ENDBRANCH  27  32
BRANCH  26  34
ATOM     34  O   UNL     1      -2.089   2.364   3.405  0.00  0.00    -0.491 OA
ATOM     35  C   UNL     1      -2.879   2.749   4.531  0.00  0.00    +0.277 C 
ENDBRANCH  26  34
ENDBRANCH   4  24
BRANCH   3  36
ATOM     36  C   UNL     1      -7.242   1.832   0.685  0.00  0.00    +0.337 C 
ATOM     37  O   UNL     1      -7.951   2.822   0.695  0.00  0.00    -0.245 OA
BRANCH  36  38
ATOM     38  O   UNL     1      -6.761   1.359  -0.483  0.00  0.00    -0.465 OA
ATOM     39  C   UNL     1      -7.123   2.069  -1.669  0.00  0.00    +0.280 C 
ENDBRANCH  36  38
ENDBRANCH   3  36
TORSDOF 9
