REMARK  Name = ZINC13134724
REMARK  9 active torsions:
REMARK  status: ('A' for Active; 'I' for Inactive)
REMARK    1  A    between atoms: C_1  and  C_2
REMARK    2  A    between atoms: C_3  and  C_31
REMARK    3  A    between atoms: C_11  and  C_13
REMARK    4  A    between atoms: C_13  and  S_14
REMARK    5  A    between atoms: S_14  and  C_15
REMARK    6  A    between atoms: C_15  and  C_17
REMARK    7  A    between atoms: C_15  and  C_18
REMARK    8  A    between atoms: C_18  and  N_20
REMARK    9  A    between atoms: N_22  and  C_30
REMARK                            x       y       z     vdW  Elec       q    Type
REMARK                         _______ _______ _______ _____ _____    ______ ____
ROOT
ATOM      1  S   UNL     1       0.134  -4.827   4.562  0.00  0.00    -0.140 S 
ENDROOT
BRANCH   1   2
ATOM      2  C   UNL     1       0.137  -6.092   5.862  0.00  0.00    +0.132 C 
ATOM      3  C   UNL     1      -1.182  -6.031   6.636  0.00  0.00    +0.029 C 
BRANCH   2   4
ATOM      4  C   UNL     1       0.288  -7.455   5.236  0.00  0.00    +0.251 C 
ATOM      5  O   UNL     1       0.026  -7.617   4.060  0.00  0.00    -0.272 OA
BRANCH   4   6
ATOM      6  N   UNL     1       0.710  -8.479   5.970  0.00  0.00    -0.155 NA
ATOM      7  C   UNL     1       2.013  -8.725   6.084  0.00  0.00    +0.166 A 
ATOM      8  N   UNL     1       3.036  -8.108   5.439  0.00  0.00    -0.324 N 
ATOM      9  C   UNL     1       4.339  -8.499   5.685  0.00  0.00    +0.057 A 
ATOM     10  C   UNL     1       5.530  -8.004   5.136  0.00  0.00    +0.027 A 
ATOM     11  C   UNL     1       6.745  -8.529   5.511  0.00  0.00    +0.002 A 
ATOM     12  C   UNL     1       6.827  -9.557   6.436  0.00  0.00    +0.001 A 
ATOM     13  C   UNL     1       5.666 -10.063   6.992  0.00  0.00    +0.017 A 
ATOM     14  C   UNL     1       4.451  -9.539   6.619  0.00  0.00    +0.039 A 
ATOM     15  S   UNL     1       2.765  -9.865   7.064  0.00  0.00    -0.052 S 
ATOM     16  C   UNL     1       2.760  -7.032   4.485  0.00  0.00    +0.151 C 
ENDBRANCH   4   6
ENDBRANCH   2   4
ENDBRANCH   1   2
BRANCH   1  17
ATOM     17  C   UNL     1       0.099  -3.260   5.474  0.00  0.00    +0.144 C 
BRANCH  17  28
ATOM     18  C   UNL     1       0.059   2.419   1.911  0.00  0.00    +0.045 C 
ATOM     19  C   UNL     1       0.084   0.939   1.629  0.00  0.00    -0.026 A 
ATOM     20  C   UNL     1       0.112   0.489   0.364  0.00  0.00    -0.008 A 
ATOM     21  S   UNL     1       0.134  -1.284   0.557  0.00  0.00    -0.073 S 
ATOM     22  C   UNL     1       0.106  -1.368   2.329  0.00  0.00    +0.116 A 
ATOM     23  C   UNL     1       0.086  -0.017   2.721  0.00  0.00    +0.075 A 
ATOM     24  C   UNL     1       0.064   0.218   4.134  0.00  0.00    +0.260 A 
ATOM     25  O   UNL     1       0.041   1.355   4.573  0.00  0.00    -0.267 OA
ATOM     26  N   UNL     1       0.070  -0.837   4.970  0.00  0.00    -0.310 N 
ATOM     27  H   UNL     1       0.055  -0.685   5.928  0.00  0.00    +0.170 HD
ATOM     28  C   UNL     1       0.095  -2.111   4.500  0.00  0.00    +0.121 A 
ATOM     29  N   UNL     1       0.105  -2.358   3.217  0.00  0.00    -0.226 NA
ATOM     30  C   UNL     1       0.121   1.290  -0.912  0.00  0.00    +0.052 C 
ENDBRANCH  17  28
ENDBRANCH   1  17
TORSDOF 5
