REMARK  Name = ZINC20466542
REMARK  10 active torsions:
REMARK  status: ('A' for Active; 'I' for Inactive)
REMARK    1  A    between atoms: C_1  and  C_2
REMARK    2  A    between atoms: C_4  and  N_33
REMARK    3  A    between atoms: C_8  and  C_32
REMARK    4  A    between atoms: C_11  and  O_31
REMARK    5  A    between atoms: C_13  and  C_17
REMARK    6  A    between atoms: C_17  and  C_19
REMARK    7  A    between atoms: C_17  and  C_20
REMARK    8  A    between atoms: N_22  and  C_23
REMARK    9  A    between atoms: C_23  and  C_24
REMARK   10  A    between atoms: C_34  and  C_36
REMARK                            x       y       z     vdW  Elec       q    Type
REMARK                         _______ _______ _______ _____ _____    ______ ____
ROOT
ATOM      1  C   UNL     1       0.240  -4.358   7.188  0.00  0.00    +0.010 C 
ATOM      2  C   UNL     1       1.412  -4.833   6.327  0.00  0.00    +0.012 C 
ATOM      3  C   UNL     1       2.667  -4.037   6.689  0.00  0.00    +0.076 C 
ATOM      4  C   UNL     1       3.839  -4.513   5.829  0.00  0.00    +0.023 C 
ATOM      5  C   UNL     1       3.507  -4.298   4.351  0.00  0.00    +0.009 C 
ATOM      6  C   UNL     1       2.252  -5.094   3.989  0.00  0.00    -0.027 C 
ATOM      7  C   UNL     1       1.080  -4.619   4.849  0.00  0.00    +0.028 C 
ATOM      8  C   UNL     1      -0.175  -5.415   4.487  0.00  0.00    +0.122 C 
ATOM      9  C   UNL     1      -0.507  -5.200   3.009  0.00  0.00    +0.029 C 
ATOM     10  C   UNL     1       0.665  -5.676   2.149  0.00  0.00    +0.007 C 
ATOM     11  C   UNL     1       1.920  -4.879   2.511  0.00  0.00    +0.007 C 
ATOM     12  C   UNL     1       2.501  -6.582   4.244  0.00  0.00    +0.011 C 
ENDROOT
BRANCH   3  13
ATOM     13  N   UNL     1       2.985  -4.243   8.104  0.00  0.00    -0.312 N 
ATOM     14  C   UNL     1       3.690  -3.313   8.779  0.00  0.00    +0.216 C 
ATOM     15  O   UNL     1       4.061  -2.305   8.214  0.00  0.00    -0.276 OA
ATOM     16  H   UNL     1       2.648  -5.156   8.616  0.00  0.00    +0.149 HD
BRANCH  14  17
ATOM     17  C   UNL     1       4.017  -3.525  10.235  0.00  0.00    +0.075 C 
ATOM     18  C   UNL     1       2.719  -3.658  11.035  0.00  0.00    +0.013 C 
ATOM     19  C   UNL     1       3.051  -3.873  12.513  0.00  0.00    +0.001 C 
ATOM     20  C   UNL     1       3.852  -2.678  13.035  0.00  0.00    +0.000 C 
ATOM     21  C   UNL     1       5.150  -2.545  12.235  0.00  0.00    +0.001 C 
ATOM     22  C   UNL     1       4.818  -2.330  10.757  0.00  0.00    +0.013 C 
ENDBRANCH  14  17
ENDBRANCH   3  13
BRANCH   9  23
ATOM     23  C   UNL     1      -0.756  -3.712   2.754  0.00  0.00    +0.077 C 
ATOM     24  C   UNL     1      -1.888  -3.222   3.659  0.00  0.00    +0.017 C 
BRANCH  23  25
ATOM     25  C   UNL     1      -1.143  -3.508   1.312  0.00  0.00    +0.216 C 
ATOM     26  O   UNL     1      -1.212  -4.459   0.562  0.00  0.00    -0.276 OA
ATOM     27  N   UNL     1      -1.411  -2.269   0.855  0.00  0.00    -0.311 N 
ATOM     28  H   UNL     1      -1.349  -1.407   1.535  0.00  0.00    +0.149 HD
BRANCH  27  29
ATOM     29  C   UNL     1      -1.787  -2.070  -0.547  0.00  0.00    +0.139 C 
BRANCH  29  30
ATOM     30  C   UNL     1      -2.033  -0.605  -0.799  0.00  0.00    -0.030 A 
ATOM     31  C   UNL     1      -3.300  -0.078  -0.631  0.00  0.00    +0.008 A 
ATOM     32  C   UNL     1      -3.525   1.267  -0.856  0.00  0.00    +0.038 A 
ATOM     33  C   UNL     1      -2.483   2.084  -1.261  0.00  0.00    +0.123 A 
ATOM     34  C   UNL     1      -1.216   1.554  -1.434  0.00  0.00    +0.038 A 
ATOM     35  C   UNL     1      -0.992   0.210  -1.203  0.00  0.00    +0.008 A 
ATOM     36  F   UNL     1      -2.703   3.398  -1.487  0.00  0.00    -0.205 F 
ENDBRANCH  29  30
ENDBRANCH  27  29
ENDBRANCH  23  25
ENDBRANCH   9  23
BRANCH   8  37
ATOM     37  O   UNL     1      -1.270  -4.971   5.291  0.00  0.00    -0.391 OA
ATOM     38  H   UNL     1      -2.262  -5.431   5.172  0.00  0.00    +0.210 HD
ENDBRANCH   8  37
TORSDOF 7
