REMARK  Name = ZINC12329755
REMARK  7 active torsions:
REMARK  status: ('A' for Active; 'I' for Inactive)
REMARK    1  A    between atoms: C_1  and  O_2
REMARK    2  A    between atoms: O_2  and  C_3
REMARK    3  A    between atoms: C_15  and  C_16
REMARK    4  A    between atoms: C_15  and  N_54
REMARK    5  A    between atoms: C_16  and  C_18
REMARK    6  A    between atoms: C_16  and  O_25
REMARK    7  A    between atoms: C_27  and  O_29
REMARK                            x       y       z     vdW  Elec       q    Type
REMARK                         _______ _______ _______ _____ _____    ______ ____
ROOT
ATOM      1  C   UNL     1      -4.268  -2.719  -4.755  0.00  0.00    +0.124 A 
ATOM      2  C   UNL     1      -5.374  -2.016  -5.213  0.00  0.00    +0.046 A 
ATOM      3  C   UNL     1      -5.340  -0.638  -5.268  0.00  0.00    +0.013 A 
ATOM      4  C   UNL     1      -4.207   0.052  -4.869  0.00  0.00    +0.023 A 
ATOM      5  C   UNL     1      -3.100  -0.644  -4.414  0.00  0.00    +0.130 A 
ATOM      6  C   UNL     1      -3.133  -2.033  -4.356  0.00  0.00    +0.091 A 
ATOM      7  O   UNL     1      -1.966  -0.007  -4.022  0.00  0.00    -0.485 OA
ATOM      8  C   UNL     1      -2.047   1.389  -3.739  0.00  0.00    +0.110 C 
ATOM      9  C   UNL     1      -0.640   1.973  -3.597  0.00  0.00    +0.029 C 
ATOM     10  C   UNL     1       0.058   1.323  -2.400  0.00  0.00    -0.075 C 
ATOM     11  C   UNL     1      -2.061   0.975  -1.277  0.00  0.00    -0.075 C 
ATOM     12  C   UNL     1      -2.825   1.612  -2.441  0.00  0.00    +0.029 C 
ATOM     13  C   UNL     1      -2.775   2.082  -4.896  0.00  0.00    +0.084 C 
ATOM     14  C   UNL     1      -4.213   1.558  -4.943  0.00  0.00    +0.152 C 
ATOM     15  N   UNL     1      -0.726   1.602  -1.178  0.00  0.00    +0.382 N 
ATOM     16  H   UNL     1      -0.842   2.618  -1.082  0.00  0.00    -0.082 HD
ENDROOT
BRANCH   1  18
ATOM     17  C   UNL     1      -5.502  -4.716  -5.127  0.00  0.00    +0.277 C 
ATOM     18  O   UNL     1      -4.298  -4.076  -4.699  0.00  0.00    -0.495 OA
ENDBRANCH   1  18
BRANCH  14  19
ATOM     19  O   UNL     1      -4.831   1.972  -6.162  0.00  0.00    -0.387 OA
ATOM     20  H   UNL     1      -5.746   1.675  -6.260  0.00  0.00    +0.210 HD
ENDBRANCH  14  19
BRANCH  15  21
ATOM     21  C   UNL     1      -0.013   1.086   0.008  0.00  0.00    -0.042 C 
BRANCH  21  22
ATOM     22  C   UNL     1      -0.729   1.579   1.267  0.00  0.00    +0.128 C 
BRANCH  22  23
ATOM     23  C   UNL     1       0.000   1.080   2.488  0.00  0.00    -0.021 A 
ATOM     24  C   UNL     1       1.083   1.783   2.982  0.00  0.00    +0.007 A 
ATOM     25  C   UNL     1       1.748   1.329   4.105  0.00  0.00    +0.020 A 
ATOM     26  C   UNL     1       1.337   0.164   4.728  0.00  0.00    +0.041 A 
ATOM     27  C   UNL     1       0.257  -0.542   4.230  0.00  0.00    +0.020 A 
ATOM     28  C   UNL     1      -0.411  -0.084   3.110  0.00  0.00    +0.007 A 
ATOM     29 CL   UNL     1       2.177  -0.411   6.135  0.00  0.00    -0.084 Cl
ENDBRANCH  22  23
BRANCH  22  30
ATOM     30  O   UNL     1      -0.748   3.008   1.275  0.00  0.00    -0.389 OA
ATOM     31  H   UNL     1       0.130   3.413   1.268  0.00  0.00    +0.210 HD
ENDBRANCH  22  30
ENDBRANCH  21  22
ENDBRANCH  15  21
TORSDOF 6
