REMARK  Name = ZINC20067439
REMARK  6 active torsions:
REMARK  status: ('A' for Active; 'I' for Inactive)
REMARK    1  A    between atoms: C_1  and  C_2
REMARK    2  A    between atoms: N_11  and  C_15
REMARK    3  A    between atoms: C_15  and  C_16
REMARK    4  A    between atoms: C_16  and  O_18
REMARK    5  A    between atoms: O_18  and  C_19
REMARK    6  A    between atoms: C_19  and  C_20
REMARK                            x       y       z     vdW  Elec       q    Type
REMARK                         _______ _______ _______ _____ _____    ______ ____
ROOT
ATOM      1  C   UNL     1       4.144  -3.741   1.488  0.00  0.00    +0.326 C 
ATOM      2  O   UNL     1       4.777  -4.096   0.522  0.00  0.00    -0.249 OA
ENDROOT
BRANCH   1   3
ATOM      3  C   UNL     1       4.660  -4.030   2.874  0.00  0.00    +0.238 C 
BRANCH   3  13
ATOM      4  C   UNL     1       7.623  -6.431   5.135  0.00  0.00    +0.010 C 
ATOM      5  C   UNL     1       7.996  -7.174   3.851  0.00  0.00    +0.018 C 
ATOM      6  C   UNL     1       7.320  -8.547   3.841  0.00  0.00    +0.006 C 
ATOM      7  C   UNL     1       7.677  -9.281   2.547  0.00  0.00    +0.000 C 
ATOM      8  C   UNL     1       7.182  -8.471   1.347  0.00  0.00    +0.003 C 
ATOM      9  C   UNL     1       7.858  -7.098   1.347  0.00  0.00    +0.035 C 
ATOM     10  C   UNL     1       7.531  -6.367   2.644  0.00  0.00    +0.115 C 
ATOM     11  C   UNL     1       6.048  -6.090   2.739  0.00  0.00    +0.247 C 
ATOM     12  O   UNL     1       5.150  -6.903   2.769  0.00  0.00    -0.273 OA
ATOM     13  N   UNL     1       5.935  -4.746   2.781  0.00  0.00    -0.213 N 
ATOM     14  C   UNL     1       7.132  -4.148   2.734  0.00  0.00    +0.310 C 
ATOM     15  O   UNL     1       7.287  -2.943   2.762  0.00  0.00    -0.252 OA
ATOM     16  N   UNL     1       8.144  -5.032   2.651  0.00  0.00    -0.285 N 
ATOM     17  H   UNL     1       9.238  -4.929   2.594  0.00  0.00    +0.151 HD
ENDBRANCH   3  13
ENDBRANCH   1   3
BRANCH   1  18
ATOM     18  O   UNL     1       2.983  -3.088   1.327  0.00  0.00    -0.457 OA
BRANCH  18  19
ATOM     19  C   UNL     1       2.547  -2.844  -0.037  0.00  0.00    +0.288 C 
BRANCH  19  20
ATOM     20  C   UNL     1       1.234  -2.106  -0.021  0.00  0.00    +0.087 A 
ATOM     21  C   UNL     1       1.239  -0.693  -0.013  0.00  0.00    +0.007 A 
ATOM     22  C   UNL     1       2.430   0.043  -0.021  0.00  0.00    +0.010 A 
ATOM     23  C   UNL     1       2.380   1.407  -0.013  0.00  0.00    +0.001 A 
ATOM     24  C   UNL     1       1.163   2.078   0.002  0.00  0.00    +0.001 A 
ATOM     25  C   UNL     1      -0.017   1.389   0.010  0.00  0.00    +0.009 A 
ATOM     26  C   UNL     1       0.002  -0.004   0.002  0.00  0.00    -0.007 A 
ATOM     27  C   UNL     1      -1.222  -0.810   0.010  0.00  0.00    +0.008 A 
ATOM     28  C   UNL     1      -2.489  -0.226   0.025  0.00  0.00    +0.010 A 
ATOM     29  C   UNL     1      -3.600  -1.020   0.031  0.00  0.00    +0.001 A 
ATOM     30  C   UNL     1      -3.480  -2.405   0.023  0.00  0.00    +0.002 A 
ATOM     31  C   UNL     1      -2.255  -3.004   0.008  0.00  0.00    +0.028 A 
ATOM     32  C   UNL     1      -1.093  -2.218   0.001  0.00  0.00    +0.072 A 
ATOM     33  N   UNL     1       0.123  -2.788  -0.014  0.00  0.00    -0.248 NA
ENDBRANCH  19  20
ENDBRANCH  18  19
ENDBRANCH   1  18
TORSDOF 5
