REMARK  Name = ZINC36058804
REMARK  15 active torsions:
REMARK  status: ('A' for Active; 'I' for Inactive)
REMARK    1  A    between atoms: C_1  and  C_2
REMARK    2  A    between atoms: C_3  and  C_31
REMARK    3  A    between atoms: C_4  and  C_21
REMARK    4  A    between atoms: C_7  and  C_12
REMARK    5  A    between atoms: C_13  and  N_15
REMARK    6  A    between atoms: N_15  and  C_16
REMARK    7  A    between atoms: C_16  and  C_17
REMARK    8  A    between atoms: C_17  and  N_18
REMARK    9  A    between atoms: N_18  and  C_19
REMARK   10  A    between atoms: N_18  and  C_20
REMARK   11  A    between atoms: C_24  and  C_27
REMARK   12  A    between atoms: C_31  and  O_33
REMARK   13  A    between atoms: O_33  and  C_34
REMARK   14  A    between atoms: C_34  and  C_35
REMARK   15  A    between atoms: C_34  and  C_36
REMARK                            x       y       z     vdW  Elec       q    Type
REMARK                         _______ _______ _______ _____ _____    ______ ____
ROOT
ATOM      1  C   UNL     1      -0.024   1.552   0.214  0.00  0.00    +0.066 C 
ATOM      2  C   UNL     1      -0.018   0.046   0.158  0.00  0.00    +0.053 C 
ATOM      3  C   UNL     1      -1.214  -0.645   0.144  0.00  0.00    +0.082 C 
ATOM      4  C   UNL     1      -1.155  -2.155   0.086  0.00  0.00    +0.150 C 
ATOM      5  N   UNL     1       0.194  -2.779   0.050  0.00  0.00    -0.267 N 
ATOM      6  C   UNL     1       0.485  -4.128  -0.004  0.00  0.00    +0.048 C 
ATOM      7  C   UNL     1       1.787  -4.488  -0.030  0.00  0.00    +0.072 C 
ATOM      8  S   UNL     1       2.608  -2.907   0.022  0.00  0.00    -0.060 S 
ATOM      9  C   UNL     1       1.254  -1.916   0.072  0.00  0.00    +0.166 C 
ATOM     10  N   UNL     1       1.133  -0.605   0.118  0.00  0.00    -0.230 NA
ENDROOT
BRANCH   4  11
ATOM     11  C   UNL     1      -1.905  -2.602  -1.142  0.00  0.00    -0.022 A 
ATOM     12  C   UNL     1      -1.344  -2.436  -2.394  0.00  0.00    +0.006 A 
ATOM     13  C   UNL     1      -2.032  -2.846  -3.520  0.00  0.00    +0.013 A 
ATOM     14  C   UNL     1      -3.281  -3.423  -3.395  0.00  0.00    +0.055 A 
ATOM     15  C   UNL     1      -3.843  -3.591  -2.143  0.00  0.00    +0.013 A 
ATOM     16  C   UNL     1      -3.153  -3.184  -1.016  0.00  0.00    +0.006 A 
BRANCH  14  17
ATOM     17  C   UNL     1      -4.032  -3.869  -4.623  0.00  0.00    +0.417 C 
ATOM     18  F   UNL     1      -3.705  -5.198  -4.912  0.00  0.00    -0.166 F 
ATOM     19  F   UNL     1      -5.408  -3.767  -4.392  0.00  0.00    -0.166 F 
ATOM     20  F   UNL     1      -3.680  -3.056  -5.706  0.00  0.00    -0.166 F 
ENDBRANCH  14  17
ENDBRANCH   4  11
BRANCH   6  21
ATOM     21  C   UNL     1      -0.584  -5.136  -0.031  0.00  0.00    +0.091 C 
ATOM     22  C   UNL     1      -0.278  -6.445   0.063  0.00  0.00    +0.239 C 
ATOM     23  O   UNL     1       0.998  -6.826   0.316  0.00  0.00    -0.271 OA
BRANCH  22  24
ATOM     24  N   UNL     1      -1.267  -7.400  -0.100  0.00  0.00    -0.314 N 
ATOM     25  H   UNL     1      -2.191  -7.128  -0.208  0.00  0.00    +0.149 HD
BRANCH  24  26
ATOM     26  C   UNL     1      -0.916  -8.823  -0.109  0.00  0.00    +0.086 C 
BRANCH  26  27
ATOM     27  C   UNL     1      -2.162  -9.653  -0.426  0.00  0.00    -0.061 C 
BRANCH  27  28
ATOM     28  N   UNL     1      -1.810 -11.079  -0.435  0.00  0.00    +0.377 N 
ATOM     29  C   UNL     1      -3.026 -11.882  -0.620  0.00  0.00    -0.097 C 
ATOM     30  C   UNL     1      -0.875 -11.346  -1.536  0.00  0.00    -0.097 C 
ATOM     31  H   UNL     1      -1.376 -11.324   0.442  0.00  0.00    -0.083 HD
ENDBRANCH  27  28
ENDBRANCH  26  27
ENDBRANCH  24  26
ENDBRANCH  22  24
ENDBRANCH   6  21
BRANCH   3  32
ATOM     32  C   UNL     1      -2.440   0.030   0.181  0.00  0.00    +0.339 C 
ATOM     33  O   UNL     1      -2.464   1.248   0.228  0.00  0.00    -0.245 OA
BRANCH  32  34
ATOM     34  O   UNL     1      -3.597  -0.668   0.166  0.00  0.00    -0.459 OA
BRANCH  34  35
ATOM     35  C   UNL     1      -4.810   0.086   0.206  0.00  0.00    +0.171 C 
ATOM     36  C   UNL     1      -5.257   0.409  -1.221  0.00  0.00    +0.052 C 
ATOM     37  C   UNL     1      -5.896  -0.733   0.908  0.00  0.00    +0.052 C 
ENDBRANCH  34  35
ENDBRANCH  32  34
ENDBRANCH   3  32
TORSDOF 10
