REMARK  Name = ZINC64103238
REMARK  7 active torsions:
REMARK  status: ('A' for Active; 'I' for Inactive)
REMARK    1  A    between atoms: C_1  and  N_2
REMARK    2  A    between atoms: C_3  and  C_16
REMARK    3  A    between atoms: C_7  and  S_8
REMARK    4  A    between atoms: S_8  and  C_9
REMARK    5  A    between atoms: C_9  and  C_10
REMARK    6  A    between atoms: N_21  and  C_23
REMARK    7  A    between atoms: C_23  and  C_24
REMARK                            x       y       z     vdW  Elec       q    Type
REMARK                         _______ _______ _______ _____ _____    ______ ____
ROOT
ATOM      1  C   UNL     1      -2.159  -0.828   1.278  0.00  0.00    +0.012 C 
ATOM      2  C   UNL     1      -3.236  -1.914   1.212  0.00  0.00    +0.003 C 
ATOM      3  C   UNL     1      -4.184  -1.752   2.404  0.00  0.00    -0.018 C 
ATOM      4  C   UNL     1      -4.779  -0.342   2.387  0.00  0.00    -0.079 C 
ATOM      5  N   UNL     1      -3.701   0.649   2.479  0.00  0.00    +0.381 N 
ATOM      6  C   UNL     1      -2.828   0.548   1.304  0.00  0.00    -0.072 C 
ATOM      7  H   UNL     1      -3.160   0.480   3.314  0.00  0.00    -0.082 HD
ENDROOT
BRANCH   1  10
ATOM      8  C   UNL     1       0.319  -2.809   1.001  0.00  0.00    +0.133 C 
ATOM      9  N   UNL     1      -0.596  -2.249   0.003  0.00  0.00    -0.292 N 
ATOM     10  C   UNL     1      -1.252  -0.932   0.050  0.00  0.00    +0.178 C 
ATOM     11  N   UNL     1      -2.048  -0.888  -1.189  0.00  0.00    -0.246 N 
ATOM     12  N   UNL     1      -1.821  -2.106  -1.841  0.00  0.00    -0.163 NA
ATOM     13  C   UNL     1      -1.008  -2.854  -1.175  0.00  0.00    +0.175 C 
ATOM     14  H   UNL     1      -2.615  -0.161  -1.491  0.00  0.00    +0.170 HD
BRANCH  13  15
ATOM     15  S   UNL     1      -0.488  -4.455  -1.698  0.00  0.00    -0.084 S 
BRANCH  15  16
ATOM     16  C   UNL     1      -1.342  -4.699  -3.280  0.00  0.00    +0.112 C 
BRANCH  16  17
ATOM     17  C   UNL     1      -0.979  -6.049  -3.843  0.00  0.00    -0.037 A 
ATOM     18  C   UNL     1       0.118  -6.180  -4.673  0.00  0.00    +0.004 A 
ATOM     19  C   UNL     1       0.451  -7.418  -5.189  0.00  0.00    +0.000 A 
ATOM     20  C   UNL     1      -0.314  -8.526  -4.875  0.00  0.00    +0.000 A 
ATOM     21  C   UNL     1      -1.411  -8.396  -4.045  0.00  0.00    +0.000 A 
ATOM     22  C   UNL     1      -1.741  -7.158  -3.525  0.00  0.00    +0.004 A 
ENDBRANCH  16  17
ENDBRANCH  15  16
ENDBRANCH  13  15
ENDBRANCH   1  10
BRANCH   5  23
ATOM     23  C   UNL     1      -4.282   1.997   2.542  0.00  0.00    -0.050 C 
BRANCH  23  24
ATOM     24  C   UNL     1      -5.083   2.148   3.836  0.00  0.00    +0.086 C 
ATOM     25  C   UNL     1      -5.536   3.582   4.005  0.00  0.00    +0.005 C 
ATOM     26  C   UNL     1      -4.975   4.019   5.155  0.00  0.00    -0.004 A 
ATOM     27  C   UNL     1      -5.027   5.304   5.861  0.00  0.00    +0.010 A 
ATOM     28  C   UNL     1      -4.345   5.445   7.020  0.00  0.00    +0.001 A 
ATOM     29  C   UNL     1      -3.590   4.395   7.563  0.00  0.00    +0.002 A 
ATOM     30  C   UNL     1      -3.493   3.185   6.972  0.00  0.00    +0.026 A 
ATOM     31  C   UNL     1      -4.171   2.927   5.749  0.00  0.00    +0.043 A 
ATOM     32  N   UNL     1      -4.233   1.854   4.995  0.00  0.00    -0.380 N 
ATOM     33  H   UNL     1      -3.791   1.009   5.172  0.00  0.00    +0.160 HD
ENDBRANCH  23  24
ENDBRANCH   5  23
TORSDOF 6
