REMARK  Name = ZINC43736078
REMARK  4 active torsions:
REMARK  status: ('A' for Active; 'I' for Inactive)
REMARK    1  A    between atoms: C_1  and  C_2
REMARK    2  A    between atoms: N_14  and  N_15
REMARK    3  A    between atoms: C_16  and  C_18
REMARK    4  A    between atoms: C_28  and  C_33
REMARK                            x       y       z     vdW  Elec       q    Type
REMARK                         _______ _______ _______ _____ _____    ______ ____
ROOT
ATOM      1  C   UNL     1      -0.019   1.526   0.010  0.00  0.00    +0.018 C 
ATOM      2  C   UNL     1       0.002  -0.004   0.002  0.00  0.00    +0.011 C 
ATOM      3  C   UNL     1       0.636  -0.474  -1.287  0.00  0.00    +0.013 C 
ATOM      4  C   UNL     1       0.833  -1.990  -1.288  0.00  0.00    +0.005 C 
ATOM      5  C   UNL     1       1.732  -2.361  -0.103  0.00  0.00    -0.001 C 
ATOM      6  C   UNL     1       1.015  -1.988   1.190  0.00  0.00    -0.003 C 
ATOM      7  C   UNL     1       0.750  -0.493   1.255  0.00  0.00    +0.004 C 
ATOM      8  C   UNL     1      -0.331  -0.280   2.357  0.00  0.00    +0.010 C 
ATOM      9  C   UNL     1      -1.646  -0.677   1.653  0.00  0.00    +0.053 C 
ATOM     10  C   UNL     1      -1.412  -0.507   0.163  0.00  0.00    +0.043 C 
ATOM     11  N   UNL     1      -2.251  -0.744  -0.775  0.00  0.00    -0.188 NA
ATOM     12  C   UNL     1      -0.319  -2.738   1.257  0.00  0.00    +0.004 C 
ATOM     13  C   UNL     1      -0.044  -4.241   1.256  0.00  0.00    +0.005 C 
ATOM     14  C   UNL     1       0.690  -4.641  -0.028  0.00  0.00    -0.001 C 
ATOM     15  C   UNL     1       2.017  -3.866  -0.138  0.00  0.00    -0.022 C 
ATOM     16  C   UNL     1       2.674  -4.197  -1.484  0.00  0.00    +0.034 C 
ATOM     17  C   UNL     1       2.714  -5.679  -1.700  0.00  0.00    -0.030 C 
ATOM     18  C   UNL     1       1.991  -6.526  -1.041  0.00  0.00    -0.031 C 
ATOM     19  C   UNL     1       1.010  -6.138   0.051  0.00  0.00    +0.031 C 
ATOM     20  C   UNL     1       2.941  -4.250   1.018  0.00  0.00    +0.012 C 
ENDROOT
BRANCH  11  21
ATOM     21  N   UNL     1      -3.535  -1.210  -0.465  0.00  0.00    -0.203 N 
ATOM     22  C   UNL     1      -4.418  -1.460  -1.452  0.00  0.00    +0.263 C 
ATOM     23  O   UNL     1      -4.101  -1.280  -2.612  0.00  0.00    -0.268 OA
ATOM     24  H   UNL     1      -3.789  -1.354   0.460  0.00  0.00    +0.178 HD
BRANCH  22  25
ATOM     25  C   UNL     1      -5.776  -1.953  -1.125  0.00  0.00    +0.041 A 
ATOM     26  C   UNL     1      -6.163  -2.161   0.203  0.00  0.00    +0.033 A 
ATOM     27  C   UNL     1      -7.439  -2.622   0.463  0.00  0.00    +0.111 A 
ATOM     28  N   UNL     1      -8.285  -2.864  -0.519  0.00  0.00    -0.263 NA
ATOM     29  C   UNL     1      -7.960  -2.681  -1.783  0.00  0.00    +0.111 A 
ATOM     30  C   UNL     1      -6.707  -2.218  -2.134  0.00  0.00    +0.033 A 
ENDBRANCH  22  25
ENDBRANCH  11  21
TORSDOF 2
