REMARK  Name = ZINC14477224
REMARK  7 active torsions:
REMARK  status: ('A' for Active; 'I' for Inactive)
REMARK    1  A    between atoms: C_1  and  C_2
REMARK    2  A    between atoms: C_2  and  O_3
REMARK    3  A    between atoms: O_3  and  C_4
REMARK    4  A    between atoms: C_4  and  C_5
REMARK    5  A    between atoms: C_5  and  O_6
REMARK    6  A    between atoms: O_6  and  C_7
REMARK    7  A    between atoms: C_14  and  C_23
REMARK                            x       y       z     vdW  Elec       q    Type
REMARK                         _______ _______ _______ _____ _____    ______ ____
ROOT
ATOM      1  C   UNL     1       1.205  -0.682  -0.007  0.00  0.00    +0.142 A 
ATOM      2  C   UNL     1       0.002  -0.004   0.002  0.00  0.00    +0.047 A 
ATOM      3  C   UNL     1      -0.017   1.379   0.010  0.00  0.00    +0.004 A 
ATOM      4  C   UNL     1       1.175   2.079   0.002  0.00  0.00    +0.006 A 
ATOM      5  C   UNL     1       2.382   1.410  -0.016  0.00  0.00    -0.016 A 
ATOM      6  C   UNL     1       2.419   0.015  -0.014  0.00  0.00    +0.074 A 
ATOM      7  N   UNL     1       3.596  -0.737  -0.003  0.00  0.00    -0.334 N 
ATOM      8  C   UNL     1       4.860   0.012  -0.090  0.00  0.00    +0.106 C 
ATOM      9  C   UNL     1       4.694   1.263   0.747  0.00  0.00    +0.029 C 
ATOM     10  C   UNL     1       3.671   2.135  -0.047  0.00  0.00    +0.049 C 
ATOM     11  C   UNL     1       3.845   3.482   0.550  0.00  0.00    -0.023 C 
ATOM     12  C   UNL     1       5.090   3.588   1.000  0.00  0.00    -0.030 C 
ATOM     13  C   UNL     1       5.844   2.276   0.763  0.00  0.00    +0.033 C 
ATOM     14  H   UNL     1       3.562  -1.471  -0.695  0.00  0.00    +0.147 HD
ENDROOT
BRANCH   8  15
ATOM     15  C   UNL     1       5.139   0.386  -1.523  0.00  0.00    -0.007 A 
ATOM     16  C   UNL     1       4.096   0.501  -2.422  0.00  0.00    +0.007 A 
ATOM     17  C   UNL     1       4.350   0.844  -3.737  0.00  0.00    +0.002 A 
ATOM     18  C   UNL     1       5.649   1.071  -4.154  0.00  0.00    +0.021 A 
ATOM     19  C   UNL     1       6.694   0.956  -3.255  0.00  0.00    +0.060 A 
ATOM     20  C   UNL     1       6.438   0.619  -1.936  0.00  0.00    +0.064 A 
ATOM     21 CL   UNL     1       7.747   0.481  -0.805  0.00  0.00    -0.082 Cl
ATOM     22 CL   UNL     1       8.324   1.241  -3.778  0.00  0.00    -0.082 Cl
ENDBRANCH   8  15
BRANCH   1  23
ATOM     23  O   UNL     1       1.210  -2.043  -0.009  0.00  0.00    -0.488 OA
BRANCH  23  24
ATOM     24  C   UNL     1      -0.060  -2.696  -0.002  0.00  0.00    +0.257 C 
BRANCH  24  25
ATOM     25  C   UNL     1       0.146  -4.212  -0.006  0.00  0.00    +0.200 C 
BRANCH  25  26
ATOM     26  O   UNL     1       0.783  -4.609   1.210  0.00  0.00    -0.377 OA
BRANCH  26  28
ATOM     27  C   UNL     1       1.704  -6.323   2.643  0.00  0.00    +0.034 C 
ATOM     28  C   UNL     1       1.023  -6.015   1.309  0.00  0.00    +0.156 C 
ENDBRANCH  26  28
ENDBRANCH  25  26
ENDBRANCH  24  25
ENDBRANCH  23  24
ENDBRANCH   1  23
TORSDOF 6
