REMARK  Name = ZINC07620768
REMARK  13 active torsions:
REMARK  status: ('A' for Active; 'I' for Inactive)
REMARK    1  A    between atoms: C_1  and  C_2
REMARK    2  A    between atoms: C_3  and  C_26
REMARK    3  A    between atoms: N_9  and  C_23
REMARK    4  A    between atoms: C_10  and  S_12
REMARK    5  A    between atoms: S_12  and  C_13
REMARK    6  A    between atoms: C_13  and  C_15
REMARK    7  A    between atoms: C_13  and  C_16
REMARK    8  A    between atoms: N_18  and  C_19
REMARK    9  A    between atoms: C_19  and  C_20
REMARK   10  A    between atoms: C_20  and  C_21
REMARK   11  A    between atoms: C_20  and  C_22
REMARK   12  A    between atoms: C_23  and  C_24
REMARK   13  A    between atoms: C_23  and  C_25
REMARK                            x       y       z     vdW  Elec       q    Type
REMARK                         _______ _______ _______ _____ _____    ______ ____
ROOT
ATOM      1  C   UNL     1      -0.018   1.503   0.010  0.00  0.00    +0.045 C 
ATOM      2  C   UNL     1       0.002  -0.004   0.002  0.00  0.00    -0.026 A 
ATOM      3  C   UNL     1       0.006  -0.676  -1.159  0.00  0.00    -0.008 A 
ATOM      4  S   UNL     1       0.031  -2.384  -0.648  0.00  0.00    -0.073 S 
ATOM      5  C   UNL     1       0.036  -2.146   1.110  0.00  0.00    +0.117 A 
ATOM      6  C   UNL     1       0.024  -0.746   1.251  0.00  0.00    +0.075 A 
ATOM      7  C   UNL     1       0.030  -0.255   2.595  0.00  0.00    +0.263 A 
ATOM      8  O   UNL     1       0.015   0.944   2.815  0.00  0.00    -0.267 OA
ATOM      9  N   UNL     1       0.051  -1.135   3.613  0.00  0.00    -0.285 N 
ATOM     10  C   UNL     1       0.067  -2.481   3.386  0.00  0.00    +0.174 A 
ATOM     11  N   UNL     1       0.052  -2.960   2.159  0.00  0.00    -0.216 NA
ATOM     12  C   UNL     1      -0.009  -0.120  -2.559  0.00  0.00    +0.052 C 
ENDROOT
BRANCH   9  13
ATOM     13  C   UNL     1       0.057  -0.638   4.992  0.00  0.00    +0.087 C 
ATOM     14  C   UNL     1       1.297   0.230   5.215  0.00  0.00    +0.031 C 
ATOM     15  C   UNL     1      -1.201   0.196   5.239  0.00  0.00    +0.031 C 
ENDBRANCH   9  13
BRANCH  10  16
ATOM     16  S   UNL     1       0.095  -3.592   4.753  0.00  0.00    -0.075 S 
BRANCH  16  17
ATOM     17  C   UNL     1       0.110  -5.234   3.983  0.00  0.00    +0.137 C 
ATOM     18  C   UNL     1       1.413  -5.420   3.202  0.00  0.00    +0.029 C 
BRANCH  17  19
ATOM     19  C   UNL     1       0.010  -6.292   5.052  0.00  0.00    +0.226 C 
ATOM     20  O   UNL     1       0.296  -6.023   6.199  0.00  0.00    -0.275 OA
ATOM     21  N   UNL     1      -0.397  -7.536   4.733  0.00  0.00    -0.314 N 
ATOM     22  H   UNL     1      -0.626  -7.752   3.815  0.00  0.00    +0.149 HD
BRANCH  21  23
ATOM     23  C   UNL     1      -0.494  -8.564   5.772  0.00  0.00    +0.107 C 
BRANCH  23  24
ATOM     24  C   UNL     1      -0.976  -9.876   5.149  0.00  0.00    -0.000 C 
ATOM     25  C   UNL     1       0.078 -10.391   4.167  0.00  0.00    +0.009 C 
ATOM     26  C   UNL     1      -1.197 -10.914   6.251  0.00  0.00    +0.009 C 
ENDBRANCH  23  24
ENDBRANCH  21  23
ENDBRANCH  17  19
ENDBRANCH  16  17
ENDBRANCH  10  16
TORSDOF 6
