REMARK  Name = ZINC21222691
REMARK  10 active torsions:
REMARK  status: ('A' for Active; 'I' for Inactive)
REMARK    1  A    between atoms: C_1  and  C_2
REMARK    2  A    between atoms: C_2  and  C_3
REMARK    3  A    between atoms: C_2  and  O_4
REMARK    4  A    between atoms: O_4  and  C_5
REMARK    5  A    between atoms: C_8  and  C_13
REMARK    6  A    between atoms: C_10  and  O_11
REMARK    7  A    between atoms: O_11  and  C_12
REMARK    8  A    between atoms: C_18  and  C_24
REMARK    9  A    between atoms: C_27  and  O_31
REMARK   10  A    between atoms: O_31  and  C_32
REMARK                            x       y       z     vdW  Elec       q    Type
REMARK                         _______ _______ _______ _____ _____    ______ ____
ROOT
ATOM      1  C   UNL     1      -0.628   4.971  -3.288  0.00  0.00    +0.032 C 
ATOM      2  C   UNL     1      -0.475   6.003  -2.169  0.00  0.00    +0.059 C 
ATOM      3  C   UNL     1      -0.277   5.297  -0.852  0.00  0.00    +0.018 C 
ATOM      4  C   UNL     1      -0.829   4.086  -0.626  0.00  0.00    +0.020 C 
ATOM      5  C   UNL     1      -0.627   3.403   0.706  0.00  0.00    +0.063 C 
ATOM      6  C   UNL     1      -0.583   4.455   1.815  0.00  0.00    +0.109 C 
ATOM      7  C   UNL     1       0.361   5.558   1.412  0.00  0.00    +0.218 C 
ATOM      8  O   UNL     1       1.018   6.130   2.254  0.00  0.00    -0.275 OA
ATOM      9  N   UNL     1       0.474   5.910   0.119  0.00  0.00    -0.289 N 
ATOM     10  C   UNL     1      -1.595   3.437  -1.608  0.00  0.00    +0.162 C 
ATOM     11  O   UNL     1      -2.084   2.352  -1.365  0.00  0.00    -0.292 OA
ATOM     12  C   UNL     1      -1.819   4.065  -2.958  0.00  0.00    +0.088 C 
ATOM     13  H   UNL     1       1.185   6.704  -0.155  0.00  0.00    +0.155 HD
ENDROOT
BRANCH   5  14
ATOM     14  C   UNL     1       0.672   2.638   0.686  0.00  0.00    -0.038 A 
ATOM     15  C   UNL     1       0.671   1.270   0.887  0.00  0.00    +0.008 A 
ATOM     16  C   UNL     1       1.859   0.566   0.864  0.00  0.00    +0.047 A 
ATOM     17  C   UNL     1       3.055   1.233   0.639  0.00  0.00    +0.134 A 
ATOM     18  C   UNL     1       3.054   2.606   0.437  0.00  0.00    +0.060 A 
ATOM     19  C   UNL     1       1.862   3.305   0.461  0.00  0.00    +0.023 A 
ATOM     20 BR   UNL     1       4.681   3.519   0.130  0.00  0.00    -0.047 Br
BRANCH  17  21
ATOM     21  O   UNL     1       4.225   0.542   0.615  0.00  0.00    -0.494 OA
ATOM     22  C   UNL     1       4.150  -0.869   0.830  0.00  0.00    +0.277 C 
ENDBRANCH  17  21
ENDBRANCH   5  14
BRANCH   1  26
ATOM     23  C   UNL     1      -1.328   6.976  -7.001  0.00  0.00    +0.162 A 
ATOM     24  C   UNL     1      -2.207   7.143  -5.943  0.00  0.00    +0.050 A 
ATOM     25  C   UNL     1      -1.978   6.494  -4.745  0.00  0.00    +0.008 A 
ATOM     26  C   UNL     1      -0.873   5.676  -4.598  0.00  0.00    -0.040 A 
ATOM     27  C   UNL     1       0.011   5.510  -5.647  0.00  0.00    +0.053 A 
ATOM     28  C   UNL     1      -0.215   6.154  -6.853  0.00  0.00    +0.162 A 
BRANCH  28  29
ATOM     29  O   UNL     1       0.652   5.987  -7.888  0.00  0.00    -0.491 OA
ATOM     30  C   UNL     1       1.772   5.128  -7.663  0.00  0.00    +0.277 C 
ENDBRANCH  28  29
BRANCH  23  31
ATOM     31  O   UNL     1      -1.551   7.614  -8.181  0.00  0.00    -0.486 OA
BRANCH  31  33
ATOM     32  C   UNL     1      -2.589   9.746  -7.713  0.00  0.00    +0.051 C 
ATOM     33  C   UNL     1      -2.773   8.346  -8.301  0.00  0.00    +0.167 C 
ATOM     34  C   UNL     1      -3.156   8.460  -9.778  0.00  0.00    +0.051 C 
ENDBRANCH  31  33
ENDBRANCH  23  31
ENDBRANCH   1  26
TORSDOF 6
