REMARK  Name = ZINC08738361
REMARK  3 active torsions:
REMARK  status: ('A' for Active; 'I' for Inactive)
REMARK    1  A    between atoms: C_4  and  N_7
REMARK    2  A    between atoms: C_8  and  C_18
REMARK    3  A    between atoms: C_19  and  C_20
REMARK                            x       y       z     vdW  Elec       q    Type
REMARK                         _______ _______ _______ _____ _____    ______ ____
ROOT
ATOM      1  N   UNL     1      -0.317  -0.174  -1.149  0.00  0.00    -0.261 N 
ATOM      2  C   UNL     1      -1.466  -0.803  -0.735  0.00  0.00    +0.141 A 
ATOM      3  N   UNL     1      -1.671  -2.092  -0.892  0.00  0.00    -0.229 NA
ATOM      4  C   UNL     1      -0.755  -2.886  -1.477  0.00  0.00    +0.079 A 
ATOM      5  C   UNL     1      -0.976  -4.258  -1.643  0.00  0.00    +0.028 A 
ATOM      6  C   UNL     1      -0.024  -5.032  -2.242  0.00  0.00    +0.002 A 
ATOM      7  C   UNL     1       1.169  -4.478  -2.692  0.00  0.00    +0.001 A 
ATOM      8  C   UNL     1       1.417  -3.131  -2.543  0.00  0.00    +0.015 A 
ATOM      9  C   UNL     1       0.459  -2.322  -1.935  0.00  0.00    +0.065 A 
ATOM     10  C   UNL     1       0.667  -0.878  -1.754  0.00  0.00    +0.267 A 
ATOM     11  O   UNL     1       1.690  -0.336  -2.132  0.00  0.00    -0.267 OA
ENDROOT
BRANCH   1  15
ATOM     12  C   UNL     1       0.132   3.925  -0.553  0.00  0.00    +0.000 A 
ATOM     13  C   UNL     1       0.692   3.032   0.343  0.00  0.00    +0.002 A 
ATOM     14  C   UNL     1       0.545   1.673   0.148  0.00  0.00    +0.026 A 
ATOM     15  C   UNL     1      -0.166   1.203  -0.948  0.00  0.00    +0.051 A 
ATOM     16  C   UNL     1      -0.723   2.102  -1.849  0.00  0.00    +0.026 A 
ATOM     17  C   UNL     1      -0.576   3.460  -1.646  0.00  0.00    +0.002 A 
ENDBRANCH   1  15
BRANCH   2  18
ATOM     18  C   UNL     1      -2.507  -0.005  -0.090  0.00  0.00    +0.047 C 
ATOM     19  C   UNL     1      -3.586  -0.611   0.451  0.00  0.00    +0.018 C 
BRANCH  19  20
ATOM     20  C   UNL     1      -3.580  -2.063   0.667  0.00  0.00    +0.057 A 
ATOM     21  C   UNL     1      -2.462  -2.699   1.158  0.00  0.00    +0.207 A 
ATOM     22  O   UNL     1      -2.425  -4.014   1.366  0.00  0.00    -0.462 OA
ATOM     23  C   UNL     1      -3.464  -4.837   1.118  0.00  0.00    +0.138 A 
ATOM     24  C   UNL     1      -3.353  -6.202   1.360  0.00  0.00    +0.048 A 
ATOM     25  C   UNL     1      -4.418  -7.037   1.103  0.00  0.00    +0.023 A 
ATOM     26  C   UNL     1      -5.611  -6.532   0.603  0.00  0.00    +0.042 A 
ATOM     27  C   UNL     1      -5.743  -5.182   0.357  0.00  0.00    +0.035 A 
ATOM     28  C   UNL     1      -4.670  -4.328   0.613  0.00  0.00    +0.066 A 
ATOM     29  C   UNL     1      -4.776  -2.876   0.368  0.00  0.00    +0.200 A 
ATOM     30  O   UNL     1      -5.798  -2.374  -0.065  0.00  0.00    -0.286 OA
ATOM     31 CL   UNL     1      -6.940  -7.603   0.288  0.00  0.00    -0.084 Cl
ENDBRANCH  19  20
ENDBRANCH   2  18
TORSDOF 3
