REMARK  Name = ZINC07061899
REMARK  9 active torsions:
REMARK  status: ('A' for Active; 'I' for Inactive)
REMARK    1  A    between atoms: C_1  and  O_2
REMARK    2  A    between atoms: O_2  and  C_3
REMARK    3  A    between atoms: C_3  and  C_4
REMARK    4  A    between atoms: C_4  and  C_5
REMARK    5  A    between atoms: C_5  and  N_6
REMARK    6  A    between atoms: N_6  and  C_7
REMARK    7  A    between atoms: C_7  and  N_9
REMARK    8  A    between atoms: N_9  and  N_10
REMARK    9  A    between atoms: C_11  and  C_13
REMARK                            x       y       z     vdW  Elec       q    Type
REMARK                         _______ _______ _______ _____ _____    ______ ____
ROOT
ATOM      1  N   UNL     1       2.767   7.730   0.019  0.00  0.00    -0.231 N 
ATOM      2  C   UNL     1       3.140   6.435   0.008  0.00  0.00    +0.268 C 
ATOM      3  O   UNL     1       4.322   6.143  -0.006  0.00  0.00    -0.268 OA
ATOM      4  H   UNL     1       1.825   7.963   0.029  0.00  0.00    +0.173 HD
ENDROOT
BRANCH   2   5
ATOM      5  C   UNL     1       2.122   5.377   0.011  0.00  0.00    +0.095 A 
ATOM      6  C   UNL     1       2.301   4.028   0.002  0.00  0.00    +0.068 A 
ATOM      7  C   UNL     1       1.184   3.173   0.008  0.00  0.00    +0.008 A 
ATOM      8  C   UNL     1       1.164   1.754   0.000  0.00  0.00    +0.010 A 
ATOM      9  C   UNL     1      -0.013   1.076   0.008  0.00  0.00    +0.001 A 
ATOM     10  C   UNL     1      -1.235   1.737   0.017  0.00  0.00    +0.001 A 
ATOM     11  C   UNL     1      -1.261   3.117   0.030  0.00  0.00    +0.016 A 
ATOM     12  C   UNL     1      -0.075   3.819   0.023  0.00  0.00    +0.021 A 
ATOM     13  S   UNL     1       0.346   5.544   0.029  0.00  0.00    -0.082 S 
ATOM     14 CL   UNL     1       3.905   3.364  -0.017  0.00  0.00    -0.082 Cl
ENDBRANCH   2   5
BRANCH   1  15
ATOM     15  N   UNL     1       3.738   8.740   0.015  0.00  0.00    -0.246 N 
ATOM     16  H   UNL     1       4.680   8.507   0.004  0.00  0.00    +0.172 HD
BRANCH  15  17
ATOM     17  C   UNL     1       3.364  10.034   0.026  0.00  0.00    +0.147 C 
ATOM     18  S   UNL     1       4.551  11.268   0.021  0.00  0.00    -0.017 S 
BRANCH  17  19
ATOM     19  N   UNL     1       2.056  10.358   0.040  0.00  0.00    -0.325 N 
ATOM     20  H   UNL     1       1.383   9.659   0.043  0.00  0.00    +0.148 HD
BRANCH  19  21
ATOM     21  C   UNL     1       1.650  11.766   0.052  0.00  0.00    +0.105 C 
BRANCH  21  22
ATOM     22  C   UNL     1       0.122  11.855   0.068  0.00  0.00    +0.047 C 
BRANCH  22  23
ATOM     23  C   UNL     1      -0.302  13.325   0.080  0.00  0.00    +0.161 C 
BRANCH  23  25
ATOM     24  C   UNL     1      -2.232  14.747   0.107  0.00  0.00    +0.193 C 
ATOM     25  O   UNL     1      -1.728  13.409   0.095  0.00  0.00    -0.383 OA
ENDBRANCH  23  25
ENDBRANCH  22  23
ENDBRANCH  21  22
ENDBRANCH  19  21
ENDBRANCH  17  19
ENDBRANCH  15  17
ENDBRANCH   1  15
TORSDOF 8
