REMARK  Name = ZINC35973782
REMARK  13 active torsions:
REMARK  status: ('A' for Active; 'I' for Inactive)
REMARK    1  A    between atoms: C_1  and  C_2
REMARK    2  A    between atoms: C_2  and  C_3
REMARK    3  A    between atoms: C_3  and  C_5
REMARK    4  A    between atoms: C_3  and  O_6
REMARK    5  A    between atoms: O_6  and  C_7
REMARK    6  A    between atoms: C_7  and  C_9
REMARK    7  A    between atoms: C_10  and  C_39
REMARK    8  A    between atoms: C_14  and  C_16
REMARK    9  A    between atoms: C_19  and  O_25
REMARK   10  A    between atoms: C_20  and  O_22
REMARK   11  A    between atoms: O_22  and  C_23
REMARK   12  A    between atoms: C_23  and  C_24
REMARK   13  A    between atoms: C_29  and  C_32
REMARK                            x       y       z     vdW  Elec       q    Type
REMARK                         _______ _______ _______ _____ _____    ______ ____
ROOT
ATOM      1  C   UNL     1      -0.031   0.269  -4.814  0.00  0.00    +0.065 C 
ATOM      2  C   UNL     1       0.680   0.791  -5.828  0.00  0.00    +0.016 C 
ATOM      3  N   UNL     1       0.045   1.359  -6.897  0.00  0.00    -0.321 N 
ATOM      4  C   UNL     1      -1.266   1.069  -7.164  0.00  0.00    +0.016 C 
ATOM      5  C   UNL     1      -2.064   0.559  -6.202  0.00  0.00    +0.024 C 
ATOM      6  C   UNL     1      -1.531   0.293  -4.819  0.00  0.00    +0.092 C 
ATOM      7  C   UNL     1      -3.413   0.260  -6.462  0.00  0.00    +0.162 C 
ATOM      8  O   UNL     1      -4.101  -0.213  -5.579  0.00  0.00    -0.292 OA
ATOM      9  C   UNL     1      -4.022   0.517  -7.814  0.00  0.00    +0.088 C 
ATOM     10  C   UNL     1      -3.281   1.680  -8.482  0.00  0.00    +0.032 C 
ATOM     11  C   UNL     1      -1.793   1.329  -8.554  0.00  0.00    +0.059 C 
ATOM     12  C   UNL     1       2.186   0.751  -5.786  0.00  0.00    +0.061 C 
ATOM     13  H   UNL     1       0.528   1.972  -7.473  0.00  0.00    +0.152 HD
ENDROOT
BRANCH  10  14
ATOM     14  C   UNL     1      -3.823   1.894  -9.872  0.00  0.00    -0.043 A 
ATOM     15  C   UNL     1      -3.758   0.875 -10.803  0.00  0.00    +0.005 A 
ATOM     16  C   UNL     1      -4.255   1.071 -12.078  0.00  0.00    +0.020 A 
ATOM     17  C   UNL     1      -4.817   2.288 -12.422  0.00  0.00    +0.041 A 
ATOM     18  C   UNL     1      -4.881   3.307 -11.489  0.00  0.00    +0.020 A 
ATOM     19  C   UNL     1      -4.389   3.108 -10.213  0.00  0.00    +0.005 A 
ATOM     20 CL   UNL     1      -5.440   2.535 -14.023  0.00  0.00    -0.084 Cl
ENDBRANCH  10  14
BRANCH   6  21
ATOM     21  C   UNL     1      -2.011   1.379  -3.892  0.00  0.00    -0.032 A 
ATOM     22  C   UNL     1      -1.654   2.694  -4.126  0.00  0.00    +0.008 A 
ATOM     23  C   UNL     1      -2.093   3.694  -3.279  0.00  0.00    +0.049 A 
ATOM     24  C   UNL     1      -2.892   3.380  -2.192  0.00  0.00    +0.158 A 
ATOM     25  C   UNL     1      -3.252   2.057  -1.956  0.00  0.00    +0.162 A 
ATOM     26  C   UNL     1      -2.813   1.060  -2.812  0.00  0.00    +0.054 A 
BRANCH  24  27
ATOM     27  O   UNL     1      -3.324   4.363  -1.356  0.00  0.00    -0.503 OA
ATOM     28  H   UNL     1      -4.170   4.755  -1.614  0.00  0.00    +0.292 HD
ENDBRANCH  24  27
BRANCH  25  29
ATOM     29  O   UNL     1      -4.037   1.743  -0.890  0.00  0.00    -0.489 OA
BRANCH  29  30
ATOM     30  C   UNL     1      -4.366   0.364  -0.711  0.00  0.00    +0.226 C 
ATOM     31  C   UNL     1      -5.249   0.208   0.530  0.00  0.00    +0.048 C 
ENDBRANCH  29  30
ENDBRANCH  25  29
ENDBRANCH   6  21
BRANCH   1  32
ATOM     32  C   UNL     1       0.649  -0.321  -3.722  0.00  0.00    +0.338 C 
ATOM     33  O   UNL     1       1.857  -0.463  -3.762  0.00  0.00    -0.245 OA
BRANCH  32  34
ATOM     34  O   UNL     1      -0.042  -0.727  -2.636  0.00  0.00    -0.458 OA
BRANCH  34  35
ATOM     35  C   UNL     1       0.709  -1.314  -1.572  0.00  0.00    +0.173 C 
ATOM     36  C   UNL     1       0.805  -2.826  -1.788  0.00  0.00    +0.052 C 
BRANCH  35  38
ATOM     37  C   UNL     1       0.025   0.472   0.036  0.00  0.00    +0.007 C 
ATOM     38  C   UNL     1       0.010  -1.033  -0.240  0.00  0.00    +0.041 C 
ENDBRANCH  35  38
ENDBRANCH  34  35
ENDBRANCH  32  34
ENDBRANCH   1  32
TORSDOF 9
