REMARK  Name = ZINC06824558
REMARK  7 active torsions:
REMARK  status: ('A' for Active; 'I' for Inactive)
REMARK    1  A    between atoms: C_1  and  C_2
REMARK    2  A    between atoms: C_9  and  N_13
REMARK    3  A    between atoms: C_10  and  C_11
REMARK    4  A    between atoms: N_13  and  C_14
REMARK    5  A    between atoms: C_14  and  N_16
REMARK    6  A    between atoms: C_17  and  C_19
REMARK    7  A    between atoms: C_20  and  C_21
REMARK                            x       y       z     vdW  Elec       q    Type
REMARK                         _______ _______ _______ _____ _____    ______ ____
ROOT
ATOM      1  N   UNL     1      -0.011   0.966   0.007  0.00  0.00    -0.290 N 
ATOM      2  H   UNL     1       0.002  -0.004   0.002  0.00  0.00    +0.154 HD
ENDROOT
BRANCH   1  10
ATOM      3  C   UNL     1       6.477   5.335  -0.126  0.00  0.00    +0.008 C 
ATOM      4  C   UNL     1       5.486   4.203  -0.407  0.00  0.00    -0.009 C 
ATOM      5  C   UNL     1       5.863   2.970   0.419  0.00  0.00    +0.008 C 
ATOM      6  C   UNL     1       5.038   1.766  -0.036  0.00  0.00    +0.037 C 
ATOM      7  C   UNL     1       3.563   2.148  -0.021  0.00  0.00    -0.018 A 
ATOM      8  C   UNL     1       3.180   3.444  -0.010  0.00  0.00    -0.004 A 
ATOM      9  S   UNL     1       1.411   3.393   0.007  0.00  0.00    -0.077 S 
ATOM     10  C   UNL     1       1.181   1.676  -0.000  0.00  0.00    +0.089 A 
ATOM     11  C   UNL     1       2.477   1.183  -0.010  0.00  0.00    +0.084 A 
ATOM     12  C   UNL     1       4.070   4.649  -0.012  0.00  0.00    +0.046 C 
BRANCH  11  13
ATOM     13  C   UNL     1       2.736  -0.226  -0.013  0.00  0.00    +0.102 C 
ATOM     14  N   UNL     1       2.942  -1.343  -0.015  0.00  0.00    -0.191 NA
ENDBRANCH  11  13
ENDBRANCH   1  10
BRANCH   1  15
ATOM     15  C   UNL     1      -1.187   1.624   0.017  0.00  0.00    +0.141 C 
ATOM     16  S   UNL     1      -1.210   3.336   0.026  0.00  0.00    -0.018 S 
BRANCH  15  17
ATOM     17  N   UNL     1      -2.345   0.934   0.018  0.00  0.00    -0.264 N 
ATOM     18  C   UNL     1      -3.522   1.592   0.027  0.00  0.00    +0.242 C 
ATOM     19  O   UNL     1      -3.538   2.809   0.034  0.00  0.00    -0.270 OA
ATOM     20  H   UNL     1      -2.332  -0.036   0.013  0.00  0.00    +0.157 HD
BRANCH  18  21
ATOM     21  C   UNL     1      -4.736   0.869   0.029  0.00  0.00    +0.071 C 
ATOM     22  C   UNL     1      -5.921   1.531   0.038  0.00  0.00    +0.051 C 
BRANCH  22  23
ATOM     23  C   UNL     1      -7.137   0.807   0.040  0.00  0.00    +0.128 A 
ATOM     24  C   UNL     1      -8.406   1.348   0.055  0.00  0.00    +0.049 A 
ATOM     25  C   UNL     1      -9.301   0.268   0.047  0.00  0.00    +0.042 A 
ATOM     26  C   UNL     1      -8.562  -0.864   0.038  0.00  0.00    +0.195 A 
ATOM     27  O   UNL     1      -7.262  -0.537   0.034  0.00  0.00    -0.464 OA
ENDBRANCH  22  23
ENDBRANCH  18  21
ENDBRANCH  15  17
ENDBRANCH   1  15
TORSDOF 6
