REMARK  Name = ZINC41098021
REMARK  7 active torsions:
REMARK  status: ('A' for Active; 'I' for Inactive)
REMARK    1  A    between atoms: C_4  and  C_7
REMARK    2  A    between atoms: N_9  and  C_31
REMARK    3  A    between atoms: C_12  and  N_16
REMARK    4  A    between atoms: N_16  and  C_17
REMARK    5  A    between atoms: C_17  and  C_18
REMARK    6  A    between atoms: C_18  and  C_20
REMARK    7  A    between atoms: C_18  and  N_25
REMARK                            x       y       z     vdW  Elec       q    Type
REMARK                         _______ _______ _______ _____ _____    ______ ____
ROOT
ATOM      1  C   UNL     1       3.785  -0.770   0.010  0.00  0.00    +0.013 A 
ATOM      2  C   UNL     1       4.850  -0.557  -0.802  0.00  0.00    +0.102 A 
ATOM      3  N   UNL     1       5.880  -1.381  -0.436  0.00  0.00    -0.300 N 
ATOM      4  C   UNL     1       5.510  -2.158   0.631  0.00  0.00    +0.151 A 
ATOM      5  C   UNL     1       4.189  -1.811   0.965  0.00  0.00    +0.067 A 
ATOM      6  C   UNL     1       3.571  -2.464   2.039  0.00  0.00    +0.132 A 
ATOM      7  N   UNL     1       4.265  -3.386   2.701  0.00  0.00    -0.220 NA
ATOM      8  C   UNL     1       5.506  -3.680   2.357  0.00  0.00    +0.225 A 
ATOM      9  N   UNL     1       6.121  -3.098   1.351  0.00  0.00    -0.217 NA
ENDROOT
BRANCH   3  10
ATOM     10  C   UNL     1       7.133  -1.425  -1.062  0.00  0.00    +0.048 A 
ATOM     11  C   UNL     1       8.293  -1.358  -0.302  0.00  0.00    +0.027 A 
ATOM     12  C   UNL     1       9.527  -1.402  -0.921  0.00  0.00    +0.022 A 
ATOM     13  C   UNL     1       9.608  -1.512  -2.298  0.00  0.00    +0.041 A 
ATOM     14  C   UNL     1       8.453  -1.579  -3.058  0.00  0.00    +0.022 A 
ATOM     15  C   UNL     1       7.217  -1.541  -2.443  0.00  0.00    +0.027 A 
ATOM     16 CL   UNL     1      11.160  -1.566  -3.074  0.00  0.00    -0.084 Cl
ENDBRANCH   3  10
BRANCH   1  20
ATOM     17  C   UNL     1       0.022   1.200  -0.164  0.00  0.00    +0.000 A 
ATOM     18  C   UNL     1       1.190   1.943  -0.164  0.00  0.00    +0.001 A 
ATOM     19  C   UNL     1       2.414   1.309  -0.108  0.00  0.00    +0.008 A 
ATOM     20  C   UNL     1       2.473  -0.083  -0.050  0.00  0.00    -0.016 A 
ATOM     21  C   UNL     1       1.294  -0.826  -0.050  0.00  0.00    +0.008 A 
ATOM     22  C   UNL     1       0.075  -0.181  -0.107  0.00  0.00    +0.001 A 
ENDBRANCH   1  20
BRANCH   6  23
ATOM     23  N   UNL     1       2.272  -2.158   2.402  0.00  0.00    -0.327 N 
ATOM     24  H   UNL     1       1.777  -1.484   1.911  0.00  0.00    +0.148 HD
BRANCH  23  25
ATOM     25  C   UNL     1       1.643  -2.852   3.529  0.00  0.00    +0.129 C 
BRANCH  25  26
ATOM     26  C   UNL     1       0.218  -2.331   3.718  0.00  0.00    +0.140 C 
BRANCH  26  27
ATOM     27  N   UNL     1       0.247  -0.870   3.873  0.00  0.00    -0.287 NA
ATOM     28  C   UNL     1       1.133  -0.475   4.979  0.00  0.00    +0.113 C 
ATOM     29  C   UNL     1       1.180   1.052   5.066  0.00  0.00    +0.175 C 
ATOM     30  O   UNL     1      -0.148   1.557   5.230  0.00  0.00    -0.377 OA
ATOM     31  C   UNL     1      -1.037   1.192   4.171  0.00  0.00    +0.175 C 
ATOM     32  C   UNL     1      -1.107  -0.334   4.074  0.00  0.00    +0.113 C 
ENDBRANCH  26  27
BRANCH  26  33
ATOM     33  C   UNL     1      -0.386  -2.955   4.950  0.00  0.00    +0.123 A 
ATOM     34  C   UNL     1      -1.349  -3.893   4.965  0.00  0.00    +0.046 A 
ATOM     35  C   UNL     1      -1.612  -4.189   6.322  0.00  0.00    +0.041 A 
ATOM     36  C   UNL     1      -0.794  -3.413   7.056  0.00  0.00    +0.195 A 
ATOM     37  O   UNL     1      -0.049  -2.672   6.219  0.00  0.00    -0.466 OA
ENDBRANCH  26  33
ENDBRANCH  25  26
ENDBRANCH  23  25
ENDBRANCH   6  23
TORSDOF 7
