REMARK  Name = ZINC04981551
REMARK  8 active torsions:
REMARK  status: ('A' for Active; 'I' for Inactive)
REMARK    1  A    between atoms: C_1  and  C_2
REMARK    2  A    between atoms: C_5  and  C_8
REMARK    3  A    between atoms: C_16  and  N_18
REMARK    4  A    between atoms: N_18  and  N_19
REMARK    5  A    between atoms: C_20  and  C_21
REMARK    6  A    between atoms: C_24  and  N_27
REMARK    7  A    between atoms: N_27  and  C_28
REMARK    8  A    between atoms: N_27  and  C_29
REMARK                            x       y       z     vdW  Elec       q    Type
REMARK                         _______ _______ _______ _____ _____    ______ ____
ROOT
ATOM      1  C   UNL     1      -7.227   3.593   0.055  0.00  0.00    +0.162 A 
ATOM      2  N   UNL     1      -8.399   2.987   0.057  0.00  0.00    -0.227 NA
ATOM      3  C   UNL     1      -8.471   1.649   0.050  0.00  0.00    +0.077 A 
ATOM      4  C   UNL     1      -9.700   0.973   0.052  0.00  0.00    +0.028 A 
ATOM      5  C   UNL     1      -9.718  -0.390   0.044  0.00  0.00    +0.002 A 
ATOM      6  C   UNL     1      -8.535  -1.123   0.035  0.00  0.00    +0.001 A 
ATOM      7  C   UNL     1      -7.322  -0.497   0.033  0.00  0.00    +0.013 A 
ATOM      8  C   UNL     1      -7.268   0.900   0.040  0.00  0.00    +0.042 A 
ATOM      9  C   UNL     1      -6.038   1.605   0.038  0.00  0.00    +0.150 A 
ATOM     10  N   UNL     1      -6.073   2.930   0.052  0.00  0.00    -0.211 NA
ENDROOT
BRANCH   1  15
ATOM     11  C   UNL     1      -7.099   9.350   0.085  0.00  0.00    +0.044 C 
ATOM     12  C   UNL     1      -7.132   7.844   0.077  0.00  0.00    -0.050 A 
ATOM     13  C   UNL     1      -5.949   7.128   0.069  0.00  0.00    +0.004 A 
ATOM     14  C   UNL     1      -5.973   5.748   0.061  0.00  0.00    +0.012 A 
ATOM     15  C   UNL     1      -7.194   5.076   0.063  0.00  0.00    +0.019 A 
ATOM     16  C   UNL     1      -8.384   5.802   0.066  0.00  0.00    +0.012 A 
ATOM     17  C   UNL     1      -8.347   7.181   0.079  0.00  0.00    +0.004 A 
ENDBRANCH   1  15
BRANCH   9  18
ATOM     18  N   UNL     1      -4.837   0.929   0.029  0.00  0.00    -0.220 N 
ATOM     19  H   UNL     1      -4.826  -0.040   0.023  0.00  0.00    +0.176 HD
BRANCH  18  20
ATOM     20  N   UNL     1      -3.632   1.644   0.028  0.00  0.00    -0.189 NA
ATOM     21  C   UNL     1      -2.500   1.008   0.019  0.00  0.00    +0.138 C 
BRANCH  21  22
ATOM     22  C   UNL     1      -1.232   1.759   0.017  0.00  0.00    -0.005 A 
ATOM     23  C   UNL     1      -0.013   1.076   0.008  0.00  0.00    +0.011 A 
ATOM     24  C   UNL     1       1.170   1.782   0.001  0.00  0.00    +0.024 A 
ATOM     25  C   UNL     1       1.153   3.172   0.008  0.00  0.00    +0.029 A 
ATOM     26  C   UNL     1      -0.059   3.856   0.023  0.00  0.00    +0.024 A 
ATOM     27  C   UNL     1      -1.246   3.157   0.032  0.00  0.00    +0.011 A 
BRANCH  25  28
ATOM     28  N   UNL     1       2.353   3.884   0.000  0.00  0.00    -0.336 N 
ATOM     29  C   UNL     1       3.630   3.166  -0.017  0.00  0.00    +0.129 C 
ATOM     30  C   UNL     1       2.336   5.348   0.008  0.00  0.00    +0.129 C 
ENDBRANCH  25  28
ENDBRANCH  21  22
ENDBRANCH  18  20
ENDBRANCH   9  18
TORSDOF 5
