REMARK  Name = ZINC35367676
REMARK  3 active torsions:
REMARK  status: ('A' for Active; 'I' for Inactive)
REMARK    1  A    between atoms: C_3  and  N_21
REMARK    2  A    between atoms: C_6  and  N_7
REMARK    3  A    between atoms: C_13  and  C_15
REMARK                            x       y       z     vdW  Elec       q    Type
REMARK                         _______ _______ _______ _____ _____    ______ ____
ROOT
ATOM      1  N   UNL     1      -1.012  -0.747  -1.579  0.00  0.00    -0.326 N 
ATOM      2  C   UNL     1      -2.110  -0.056  -0.888  0.00  0.00    +0.124 C 
ATOM      3  C   UNL     1      -3.434  -0.449  -1.554  0.00  0.00    +0.127 C 
ATOM      4  N   UNL     1      -3.482  -1.913  -1.673  0.00  0.00    -0.294 N 
ATOM      5  C   UNL     1      -2.385  -2.604  -2.365  0.00  0.00    +0.127 C 
ATOM      6  C   UNL     1      -1.064  -2.210  -1.703  0.00  0.00    +0.124 C 
ATOM      7  C   UNL     1      -4.515  -2.610  -1.158  0.00  0.00    +0.253 C 
ATOM      8  O   UNL     1      -5.472  -2.022  -0.690  0.00  0.00    -0.269 OA
ENDROOT
BRANCH   1  14
ATOM      9  C   UNL     1       0.047   1.370  -2.103  0.00  0.00    +0.028 A 
ATOM     10  C   UNL     1       1.128   2.044  -2.642  0.00  0.00    +0.043 A 
ATOM     11  C   UNL     1       2.184   1.314  -3.176  0.00  0.00    +0.094 A 
ATOM     12  N   UNL     1       2.163  -0.010  -3.171  0.00  0.00    -0.348 N 
ATOM     13  C   UNL     1       1.148  -0.685  -2.664  0.00  0.00    +0.107 A 
ATOM     14  C   UNL     1       0.060  -0.023  -2.115  0.00  0.00    +0.046 A 
ATOM     15  H   UNL     1       2.912  -0.496  -3.549  0.00  0.00    +0.167 HD
BRANCH  11  16
ATOM     16  N   UNL     1       3.278   1.983  -3.722  0.00  0.00    -0.345 N 
ATOM     17  H   UNL     1       3.299   2.952  -3.729  0.00  0.00    +0.144 HD
ATOM     18  H   UNL     1       4.017   1.478  -4.096  0.00  0.00    +0.144 HD
ENDBRANCH  11  16
ENDBRANCH   1  14
BRANCH   7  19
ATOM     19  C   UNL     1      -4.484  -4.074  -1.160  0.00  0.00    +0.075 A 
ATOM     20  C   UNL     1      -5.539  -4.970  -1.253  0.00  0.00    +0.022 A 
ATOM     21  C   UNL     1      -5.196  -6.300  -1.228  0.00  0.00    +0.024 A 
ATOM     22  C   UNL     1      -3.887  -6.642  -1.118  0.00  0.00    +0.056 A 
ATOM     23  S   UNL     1      -3.082  -5.169  -1.052  0.00  0.00    -0.077 S 
ATOM     24 BR   UNL     1      -3.140  -8.378  -1.061  0.00  0.00    -0.043 Br
ENDBRANCH   7  19
TORSDOF 3
