REMARK  Name = ZINC22034754
REMARK  9 active torsions:
REMARK  status: ('A' for Active; 'I' for Inactive)
REMARK    1  A    between atoms: C_1  and  C_2
REMARK    2  A    between atoms: C_2  and  C_3
REMARK    3  A    between atoms: C_3  and  N_4
REMARK    4  A    between atoms: C_5  and  C_7
REMARK    5  A    between atoms: C_7  and  C_9
REMARK    6  A    between atoms: C_7  and  O_10
REMARK    7  A    between atoms: O_10  and  C_11
REMARK    8  A    between atoms: C_11  and  C_13
REMARK    9  A    between atoms: C_15  and  N_21
REMARK                            x       y       z     vdW  Elec       q    Type
REMARK                         _______ _______ _______ _____ _____    ______ ____
ROOT
ATOM      1  C   UNL     1      -1.193   0.995  -5.883  0.00  0.00    +0.360 C 
ATOM      2  O   UNL     1      -2.370   1.285  -5.816  0.00  0.00    -0.243 OA
ENDROOT
BRANCH   1   3
ATOM      3  C   UNL     1      -0.642   0.424  -7.132  0.00  0.00    +0.169 A 
ATOM      4  C   UNL     1      -1.480   0.216  -8.224  0.00  0.00    +0.095 A 
ATOM      5  C   UNL     1      -0.944  -0.318  -9.396  0.00  0.00    +0.067 A 
ATOM      6  C   UNL     1       0.414  -0.633  -9.419  0.00  0.00    +0.100 A 
ATOM      7  C   UNL     1       1.182  -0.403  -8.288  0.00  0.00    +0.150 A 
ATOM      8  N   UNL     1       0.648   0.108  -7.199  0.00  0.00    -0.226 NA
ATOM      9 CL   UNL     1       2.873  -0.793  -8.309  0.00  0.00    -0.060 Cl
ATOM     10 CL   UNL     1       1.134  -1.308 -10.847  0.00  0.00    -0.078 Cl
ATOM     11 CL   UNL     1      -3.166   0.622  -8.131  0.00  0.00    -0.079 Cl
BRANCH   5  12
ATOM     12  N   UNL     1      -1.746  -0.537 -10.514  0.00  0.00    -0.356 N 
ATOM     13  H   UNL     1      -1.309  -0.959 -11.431  0.00  0.00    +0.142 HD
ATOM     14  H   UNL     1      -2.817  -0.287 -10.480  0.00  0.00    +0.142 HD
ENDBRANCH   5  12
ENDBRANCH   1   3
BRANCH   1  15
ATOM     15  O   UNL     1      -0.388   1.193  -4.821  0.00  0.00    -0.448 OA
BRANCH  15  16
ATOM     16  C   UNL     1      -0.997   1.758  -3.630  0.00  0.00    +0.259 C 
ATOM     17  C   UNL     1      -0.910   3.284  -3.687  0.00  0.00    +0.062 C 
BRANCH  16  19
ATOM     18  N   UNL     1      -0.721   1.571  -1.179  0.00  0.00    -0.312 N 
ATOM     19  C   UNL     1      -0.268   1.258  -2.409  0.00  0.00    +0.254 C 
ATOM     20  O   UNL     1       0.726   0.575  -2.534  0.00  0.00    -0.272 OA
ATOM     21  H   UNL     1      -1.623   2.191  -1.066  0.00  0.00    +0.149 HD
BRANCH  18  22
ATOM     22  C   UNL     1      -0.013   1.086   0.008  0.00  0.00    +0.104 C 
BRANCH  22  24
ATOM     23  C   UNL     1       0.011   1.072   2.506  0.00  0.00    +0.005 C 
ATOM     24  C   UNL     1      -0.729   1.579   1.267  0.00  0.00    +0.015 C 
ENDBRANCH  22  24
ENDBRANCH  18  22
ENDBRANCH  16  19
ENDBRANCH  15  16
ENDBRANCH   1  15
TORSDOF 7
