REMARK  Name = ZINC38966040
REMARK  4 active torsions:
REMARK  status: ('A' for Active; 'I' for Inactive)
REMARK    1  A    between atoms: N_7  and  S_8
REMARK    2  A    between atoms: S_8  and  C_11
REMARK    3  A    between atoms: C_18  and  N_23
REMARK    4  A    between atoms: N_23  and  C_24
REMARK                            x       y       z     vdW  Elec       q    Type
REMARK                         _______ _______ _______ _____ _____    ______ ____
ROOT
ATOM      1  C   UNL     1       0.523   1.435  -0.626  0.00  0.00    +0.002 A 
ATOM      2  C   UNL     1       1.744   2.115  -0.487  0.00  0.00    +0.002 A 
ATOM      3  C   UNL     1       2.917   1.477  -0.288  0.00  0.00    +0.030 A 
ATOM      4  C   UNL     1       2.959   0.061  -0.210  0.00  0.00    +0.089 A 
ATOM      5  N   UNL     1       4.105  -0.556  -0.016  0.00  0.00    -0.226 NA
ATOM      6  C   UNL     1       4.180  -1.894   0.063  0.00  0.00    +0.192 C 
ATOM      7  N   UNL     1       5.324  -2.481   0.256  0.00  0.00    -0.110 NA
ATOM      8  C   UNL     1       2.914  -2.709  -0.076  0.00  0.00    +0.237 C 
ATOM      9  N   UNL     1       1.651  -1.985  -0.292  0.00  0.00    -0.359 N 
ATOM     10  C   UNL     1       1.683  -0.683  -0.353  0.00  0.00    +0.063 A 
ATOM     11  C   UNL     1       0.449   0.087  -0.568  0.00  0.00    +0.027 A 
ATOM     12  H   UNL     1       0.814  -2.465  -0.388  0.00  0.00    +0.162 HD
ENDROOT
BRANCH   7  13
ATOM     13  S   UNL     1       6.703  -1.577   0.407  0.00  0.00    +0.100 S 
ATOM     14  O   UNL     1       6.922  -0.957  -0.853  0.00  0.00    -0.146 OA
ATOM     15  O   UNL     1       6.571  -0.832   1.609  0.00  0.00    -0.146 OA
BRANCH  13  16
ATOM     16  C   UNL     1       8.038  -2.700   0.654  0.00  0.00    +0.114 A 
ATOM     17  C   UNL     1       8.389  -3.086   1.935  0.00  0.00    +0.029 A 
ATOM     18  C   UNL     1       9.436  -3.967   2.130  0.00  0.00    +0.003 A 
ATOM     19  C   UNL     1      10.133  -4.463   1.044  0.00  0.00    +0.020 A 
ATOM     20  C   UNL     1       9.782  -4.078  -0.238  0.00  0.00    +0.043 A 
ATOM     21  C   UNL     1       8.730  -3.201  -0.432  0.00  0.00    +0.049 A 
ATOM     22 CL   UNL     1      10.657  -4.701  -1.601  0.00  0.00    -0.083 Cl
ENDBRANCH  13  16
ENDBRANCH   7  13
BRANCH   8  23
ATOM     23  N   UNL     1       2.764  -3.514   1.139  0.00  0.00    -0.317 N 
ATOM     24  H   UNL     1       2.927  -3.115   2.008  0.00  0.00    +0.148 HD
BRANCH  23  25
ATOM     25  C   UNL     1       2.387  -4.856   1.046  0.00  0.00    +0.043 A 
ATOM     26  C   UNL     1       2.029  -5.395  -0.183  0.00  0.00    +0.024 A 
ATOM     27  C   UNL     1       1.657  -6.722  -0.272  0.00  0.00    +0.002 A 
ATOM     28  C   UNL     1       1.641  -7.514   0.862  0.00  0.00    +0.001 A 
ATOM     29  C   UNL     1       1.997  -6.982   2.087  0.00  0.00    +0.017 A 
ATOM     30  C   UNL     1       2.375  -5.656   2.182  0.00  0.00    +0.039 A 
ATOM     31 BR   UNL     1       2.869  -4.930   3.857  0.00  0.00    -0.048 Br
ENDBRANCH  23  25
ENDBRANCH   8  23
TORSDOF 4
