REMARK  Name = ZINC39634976
REMARK  7 active torsions:
REMARK  status: ('A' for Active; 'I' for Inactive)
REMARK    1  A    between atoms: C_1  and  O_2
REMARK    2  A    between atoms: O_2  and  C_3
REMARK    3  A    between atoms: C_6  and  C_9
REMARK    4  A    between atoms: C_9  and  C_10
REMARK    5  A    between atoms: C_10  and  N_11
REMARK    6  A    between atoms: C_12  and  C_14
REMARK    7  A    between atoms: C_25  and  C_27
REMARK                            x       y       z     vdW  Elec       q    Type
REMARK                         _______ _______ _______ _____ _____    ______ ____
ROOT
ATOM      1  C   UNL     1       2.760  -4.778   9.162  0.00  0.00    +0.100 C 
ATOM      2  C   UNL     1       3.756  -3.647   9.502  0.00  0.00    +0.121 C 
ATOM      3  N   UNL     1       3.098  -2.883  10.589  0.00  0.00    -0.296 N 
ATOM      4  C   UNL     1       2.463  -3.921  11.437  0.00  0.00    +0.115 C 
ATOM      5  C   UNL     1       1.916  -4.957  10.436  0.00  0.00    -0.004 C 
ATOM      6  C   UNL     1       2.089  -6.369  10.990  0.00  0.00    -0.010 C 
ATOM      7  C   UNL     1       1.195  -6.541  12.221  0.00  0.00    -0.082 C 
ATOM      8  N   UNL     1      -0.205  -6.308  11.849  0.00  0.00    +0.379 N 
ATOM      9  C   UNL     1      -0.381  -4.920  11.405  0.00  0.00    -0.082 C 
ATOM     10  C   UNL     1       0.446  -4.678  10.139  0.00  0.00    -0.010 C 
ATOM     11  C   UNL     1       3.081  -1.547  10.767  0.00  0.00    +0.247 C 
ATOM     12  O   UNL     1       3.543  -0.815   9.914  0.00  0.00    -0.270 OA
ATOM     13  H   UNL     1      -0.462  -6.934  11.101  0.00  0.00    -0.086 HD
ATOM     14  H   UNL     1      -0.797  -6.482  12.647  0.00  0.00    -0.086 HD
ENDROOT
BRANCH  11  15
ATOM     15  C   UNL     1       2.500  -0.973  11.999  0.00  0.00    +0.040 A 
ATOM     16  C   UNL     1       2.370  -1.759  13.145  0.00  0.00    +0.033 A 
ATOM     17  C   UNL     1       1.827  -1.216  14.293  0.00  0.00    +0.043 A 
ATOM     18  C   UNL     1       1.412   0.104  14.308  0.00  0.00    +0.040 A 
ATOM     19  C   UNL     1       1.538   0.889  13.175  0.00  0.00    +0.043 A 
ATOM     20  C   UNL     1       2.086   0.360  12.023  0.00  0.00    +0.033 A 
ATOM     21 CL   UNL     1       1.014   2.544  13.204  0.00  0.00    -0.083 Cl
ATOM     22 CL   UNL     1       1.663  -2.193  15.719  0.00  0.00    -0.083 Cl
ENDBRANCH  11  15
BRANCH   1  24
ATOM     23  N   UNL     1       1.298  -5.320   7.242  0.00  0.00    -0.315 N 
ATOM     24  C   UNL     1       1.883  -4.375   8.005  0.00  0.00    +0.218 C 
ATOM     25  O   UNL     1       1.705  -3.201   7.759  0.00  0.00    -0.275 OA
ATOM     26  H   UNL     1       1.440  -6.259   7.439  0.00  0.00    +0.149 HD
BRANCH  23  27
ATOM     27  C   UNL     1       0.445  -4.929   6.117  0.00  0.00    +0.109 C 
BRANCH  27  28
ATOM     28  C   UNL     1      -0.091  -6.182   5.423  0.00  0.00    +0.054 C 
BRANCH  28  32
ATOM     29  C   UNL     1      -2.576  -5.041   2.140  0.00  0.00    +0.120 A 
ATOM     30  C   UNL     1      -1.216  -5.234   1.947  0.00  0.00    +0.046 A 
ATOM     31  C   UNL     1      -0.415  -5.602   3.010  0.00  0.00    +0.007 A 
ATOM     32  C   UNL     1      -0.967  -5.780   4.265  0.00  0.00    -0.046 A 
ATOM     33  C   UNL     1      -2.323  -5.589   4.460  0.00  0.00    +0.007 A 
ATOM     34  C   UNL     1      -3.128  -5.214   3.401  0.00  0.00    +0.046 A 
BRANCH  29  36
ATOM     35  C   UNL     1      -2.731  -4.518  -0.174  0.00  0.00    +0.277 C 
ATOM     36  O   UNL     1      -3.367  -4.678   1.095  0.00  0.00    -0.495 OA
ENDBRANCH  29  36
ENDBRANCH  28  32
ENDBRANCH  27  28
ENDBRANCH  23  27
ENDBRANCH   1  24
TORSDOF 6
