REMARK  Name = ZINC14459912
REMARK  10 active torsions:
REMARK  status: ('A' for Active; 'I' for Inactive)
REMARK    1  A    between atoms: C_1  and  C_2
REMARK    2  A    between atoms: C_2  and  C_3
REMARK    3  A    between atoms: C_2  and  C_4
REMARK    4  A    between atoms: C_4  and  C_5
REMARK    5  A    between atoms: C_5  and  O_6
REMARK    6  A    between atoms: O_6  and  C_7
REMARK    7  A    between atoms: C_20  and  C_23
REMARK    8  A    between atoms: C_27  and  O_30
REMARK    9  A    between atoms: C_28  and  O_29
REMARK   10  A    between atoms: O_30  and  C_31
REMARK                            x       y       z     vdW  Elec       q    Type
REMARK                         _______ _______ _______ _____ _____    ______ ____
ROOT
ATOM      1  C   UNL     1      -1.633   3.532  -2.765  0.00  0.00    +0.121 A 
ATOM      2  C   UNL     1      -2.760   2.760  -3.006  0.00  0.00    +0.047 A 
ATOM      3  C   UNL     1      -2.979   1.609  -2.277  0.00  0.00    +0.027 A 
ATOM      4  C   UNL     1      -2.074   1.213  -1.300  0.00  0.00    +0.032 A 
ATOM      5  C   UNL     1      -0.944   2.001  -1.053  0.00  0.00    -0.016 A 
ATOM      6  C   UNL     1      -0.728   3.148  -1.787  0.00  0.00    +0.051 A 
ATOM      7  C   UNL     1      -0.019   1.554   0.011  0.00  0.00    +0.049 C 
ATOM      8  C   UNL     1       1.422   1.913  -0.001  0.00  0.00    -0.023 C 
ATOM      9  C   UNL     1       2.109   0.933   0.572  0.00  0.00    -0.030 C 
ATOM     10  C   UNL     1       1.162  -0.195   0.988  0.00  0.00    +0.033 C 
ATOM     11  C   UNL     1       0.002  -0.004   0.002  0.00  0.00    +0.029 C 
ATOM     12  C   UNL     1      -1.379  -0.429   0.467  0.00  0.00    +0.109 C 
ATOM     13  N   UNL     1      -2.312   0.029  -0.586  0.00  0.00    -0.336 N 
ATOM     14  H   UNL     1      -3.102  -0.497  -0.785  0.00  0.00    +0.147 HD
ENDROOT
BRANCH  12  15
ATOM     15  C   UNL     1      -1.444  -1.929   0.603  0.00  0.00    +0.018 A 
ATOM     16  C   UNL     1      -1.934  -2.697  -0.437  0.00  0.00    +0.009 A 
ATOM     17  C   UNL     1      -1.990  -4.073  -0.318  0.00  0.00    +0.004 A 
ATOM     18  C   UNL     1      -1.566  -4.686   0.846  0.00  0.00    +0.049 A 
ATOM     19  C   UNL     1      -1.080  -3.923   1.895  0.00  0.00    +0.162 A 
ATOM     20  C   UNL     1      -1.018  -2.537   1.772  0.00  0.00    +0.163 A 
BRANCH  20  21
ATOM     21  O   UNL     1      -0.541  -1.783   2.798  0.00  0.00    -0.503 OA
ATOM     22  H   UNL     1      -1.219  -1.499   3.427  0.00  0.00    +0.292 HD
ENDBRANCH  20  21
BRANCH  19  23
ATOM     23  O   UNL     1      -0.663  -4.525   3.041  0.00  0.00    -0.491 OA
ATOM     24  C   UNL     1      -0.755  -5.950   3.095  0.00  0.00    +0.277 C 
ENDBRANCH  19  23
ENDBRANCH  12  15
BRANCH   1  25
ATOM     25  O   UNL     1      -1.415   4.664  -3.487  0.00  0.00    -0.492 OA
BRANCH  25  26
ATOM     26  C   UNL     1      -2.389   4.999  -4.478  0.00  0.00    +0.229 C 
BRANCH  26  27
ATOM     27  C   UNL     1      -1.976   6.294  -5.181  0.00  0.00    +0.044 C 
BRANCH  27  29
ATOM     28  C   UNL     1      -2.673   8.009  -6.859  0.00  0.00    +0.007 C 
ATOM     29  C   UNL     1      -3.019   6.652  -6.242  0.00  0.00    -0.014 C 
ATOM     30  C   UNL     1      -3.023   5.581  -7.335  0.00  0.00    +0.007 C 
ENDBRANCH  27  29
ENDBRANCH  26  27
ENDBRANCH  25  26
ENDBRANCH   1  25
TORSDOF 7
