REMARK  Name = ZINC63270175
REMARK  10 active torsions:
REMARK  status: ('A' for Active; 'I' for Inactive)
REMARK    1  A    between atoms: C_1  and  S_2
REMARK    2  A    between atoms: S_2  and  C_3
REMARK    3  A    between atoms: C_3  and  C_4
REMARK    4  A    between atoms: C_4  and  C_5
REMARK    5  A    between atoms: C_5  and  C_7
REMARK    6  A    between atoms: C_5  and  N_21
REMARK    7  A    between atoms: N_9  and  C_10
REMARK    8  A    between atoms: C_10  and  C_11
REMARK    9  A    between atoms: C_11  and  C_12
REMARK   10  A    between atoms: C_26  and  O_34
REMARK                            x       y       z     vdW  Elec       q    Type
REMARK                         _______ _______ _______ _____ _____    ______ ____
ROOT
ATOM      1  C   UNL     1      -3.356  -2.382   0.021  0.00  0.00    +0.161 C 
ENDROOT
BRANCH   1   2
ATOM      2  N   UNL     1      -3.966  -1.949   1.281  0.00  0.00    -0.288 N 
ATOM      3  C   UNL     1      -4.430  -0.690   1.408  0.00  0.00    +0.308 C 
ATOM      4  O   UNL     1      -4.343   0.086   0.476  0.00  0.00    -0.252 OA
ATOM      5  N   UNL     1      -4.990  -0.291   2.567  0.00  0.00    -0.245 N 
ATOM      6  C   UNL     1      -5.106  -1.203   3.717  0.00  0.00    +0.210 C 
ATOM      7  C   UNL     1      -6.446  -0.996   4.373  0.00  0.00    +0.206 C 
ATOM      8  N   UNL     1      -7.067   0.139   4.308  0.00  0.00    -0.214 NA
ATOM      9  C   UNL     1      -6.547   1.208   3.629  0.00  0.00    +0.089 A 
ATOM     10  C   UNL     1      -5.483   1.012   2.732  0.00  0.00    +0.064 A 
ATOM     11  C   UNL     1      -4.948   2.078   2.037  0.00  0.00    +0.026 A 
ATOM     12  C   UNL     1      -5.459   3.350   2.231  0.00  0.00    +0.002 A 
ATOM     13  C   UNL     1      -6.500   3.556   3.119  0.00  0.00    +0.002 A 
ATOM     14  C   UNL     1      -7.055   2.491   3.816  0.00  0.00    +0.030 A 
ATOM     15  H   UNL     1      -4.035  -2.568   2.025  0.00  0.00    +0.151 HD
BRANCH   7  16
ATOM     16  O   UNL     1      -7.014  -2.018   5.046  0.00  0.00    -0.494 OA
ATOM     17  H   UNL     1      -7.872  -1.803   5.437  0.00  0.00    +0.293 HD
ENDBRANCH   7  16
ENDBRANCH   1   2
BRANCH   1  18
ATOM     18  C   UNL     1      -3.482  -3.878  -0.109  0.00  0.00    +0.233 C 
ATOM     19  O   UNL     1      -4.027  -4.519   0.764  0.00  0.00    -0.274 OA
ATOM     20  N   UNL     1      -2.989  -4.503  -1.197  0.00  0.00    -0.313 N 
ATOM     21  H   UNL     1      -2.554  -3.990  -1.895  0.00  0.00    +0.149 HD
BRANCH  20  22
ATOM     22  C   UNL     1      -3.112  -5.958  -1.324  0.00  0.00    +0.108 C 
BRANCH  22  23
ATOM     23  C   UNL     1      -2.476  -6.410  -2.640  0.00  0.00    +0.052 C 
BRANCH  23  24
ATOM     24  C   UNL     1      -2.602  -7.906  -2.770  0.00  0.00    -0.040 C 
ATOM     25  C   UNL     1      -3.568  -8.586  -3.428  0.00  0.00    -0.001 A 
ATOM     26  C   UNL     1      -4.747  -8.154  -4.189  0.00  0.00    +0.010 A 
ATOM     27  C   UNL     1      -5.548  -9.090  -4.745  0.00  0.00    +0.001 A 
ATOM     28  C   UNL     1      -5.282 -10.460  -4.614  0.00  0.00    +0.002 A 
ATOM     29  C   UNL     1      -4.219 -10.935  -3.931  0.00  0.00    +0.026 A 
ATOM     30  C   UNL     1      -3.309 -10.039  -3.305  0.00  0.00    +0.043 A 
ATOM     31  N   UNL     1      -2.225 -10.248  -2.598  0.00  0.00    -0.380 N 
ATOM     32  C   UNL     1      -1.669  -8.950  -2.198  0.00  0.00    +0.144 C 
ATOM     33  H   UNL     1      -1.850 -11.116  -2.380  0.00  0.00    +0.160 HD
ENDBRANCH  23  24
ENDBRANCH  22  23
ENDBRANCH  20  22
ENDBRANCH   1  18
BRANCH   1  34
ATOM     34  C   UNL     1      -1.877  -1.992   0.009  0.00  0.00    +0.042 C 
BRANCH  34  35
ATOM     35  C   UNL     1      -1.752  -0.467   0.016  0.00  0.00    +0.071 C 
BRANCH  35  37
ATOM     36  C   UNL     1      -0.022   1.810   0.012  0.00  0.00    +0.084 C 
ATOM     37  S   UNL     1       0.002  -0.004   0.002  0.00  0.00    -0.164 S 
ENDBRANCH  35  37
ENDBRANCH  34  35
ENDBRANCH   1  34
TORSDOF 9
