REMARK  Name = ZINC39658286
REMARK  7 active torsions:
REMARK  status: ('A' for Active; 'I' for Inactive)
REMARK    1  A    between atoms: C_4  and  C_7
REMARK    2  A    between atoms: C_7  and  S_8
REMARK    3  A    between atoms: S_8  and  C_9
REMARK    4  A    between atoms: C_9  and  C_10
REMARK    5  A    between atoms: C_10  and  N_11
REMARK    6  A    between atoms: C_12  and  C_14
REMARK    7  A    between atoms: C_25  and  C_27
REMARK                            x       y       z     vdW  Elec       q    Type
REMARK                         _______ _______ _______ _____ _____    ______ ____
ROOT
ATOM      1  C   UNL     1       9.679  -4.043   3.615  0.00  0.00    +0.100 C 
ATOM      2  C   UNL     1       9.438  -5.452   3.027  0.00  0.00    +0.121 C 
ATOM      3  N   UNL     1      10.422  -6.319   3.716  0.00  0.00    -0.296 N 
ATOM      4  C   UNL     1      10.431  -5.827   5.115  0.00  0.00    +0.115 C 
ATOM      5  C   UNL     1      10.330  -4.294   4.986  0.00  0.00    -0.004 C 
ATOM      6  C   UNL     1       9.453  -3.728   6.099  0.00  0.00    -0.010 C 
ATOM      7  C   UNL     1      10.149  -3.937   7.447  0.00  0.00    -0.082 C 
ATOM      8  N   UNL     1      11.454  -3.266   7.436  0.00  0.00    +0.379 N 
ATOM      9  C   UNL     1      12.324  -3.879   6.424  0.00  0.00    -0.082 C 
ATOM     10  C   UNL     1      11.720  -3.667   5.033  0.00  0.00    -0.010 C 
ATOM     11  C   UNL     1      11.146  -7.327   3.191  0.00  0.00    +0.248 C 
ATOM     12  O   UNL     1      11.100  -7.550   1.997  0.00  0.00    -0.270 OA
ATOM     13  H   UNL     1      11.327  -2.289   7.219  0.00  0.00    -0.086 HD
ATOM     14  H   UNL     1      11.884  -3.353   8.344  0.00  0.00    -0.086 HD
ENDROOT
BRANCH  11  15
ATOM     15  C   UNL     1      11.994  -8.162   4.066  0.00  0.00    +0.055 A 
ATOM     16  C   UNL     1      11.580  -8.462   5.365  0.00  0.00    +0.016 A 
ATOM     17  C   UNL     1      12.376  -9.241   6.177  0.00  0.00    +0.021 A 
ATOM     18  C   UNL     1      13.586  -9.726   5.707  0.00  0.00    +0.042 A 
ATOM     19  C   UNL     1      14.003  -9.433   4.421  0.00  0.00    +0.040 A 
ATOM     20  C   UNL     1      13.212  -8.659   3.595  0.00  0.00    +0.054 A 
ATOM     21 CL   UNL     1      13.733  -8.298   1.979  0.00  0.00    -0.083 Cl
ATOM     22 CL   UNL     1      14.582 -10.706   6.737  0.00  0.00    -0.083 Cl
ENDBRANCH  11  15
BRANCH   1  24
ATOM     23  N   UNL     1       8.358  -1.968   3.874  0.00  0.00    -0.314 N 
ATOM     24  C   UNL     1       8.371  -3.313   3.781  0.00  0.00    +0.218 C 
ATOM     25  O   UNL     1       7.331  -3.935   3.831  0.00  0.00    -0.275 OA
ATOM     26  H   UNL     1       9.189  -1.471   3.834  0.00  0.00    +0.149 HD
BRANCH  23  27
ATOM     27  C   UNL     1       7.086  -1.258   4.035  0.00  0.00    +0.115 C 
BRANCH  27  28
ATOM     28  C   UNL     1       7.349   0.247   4.115  0.00  0.00    +0.088 C 
BRANCH  28  29
ATOM     29  S   UNL     1       5.775   1.126   4.315  0.00  0.00    -0.155 S 
BRANCH  29  30
ATOM     30  C   UNL     1       6.255   2.873   4.391  0.00  0.00    +0.104 C 
BRANCH  30  34
ATOM     31  C   UNL     1       2.766   5.292   4.866  0.00  0.00    +0.000 A 
ATOM     32  C   UNL     1       3.436   4.818   5.979  0.00  0.00    +0.000 A 
ATOM     33  C   UNL     1       4.565   4.036   5.825  0.00  0.00    +0.004 A 
ATOM     34  C   UNL     1       5.024   3.726   4.559  0.00  0.00    -0.038 A 
ATOM     35  C   UNL     1       4.354   4.198   3.446  0.00  0.00    +0.004 A 
ATOM     36  C   UNL     1       3.226   4.982   3.599  0.00  0.00    +0.000 A 
ENDBRANCH  30  34
ENDBRANCH  29  30
ENDBRANCH  28  29
ENDBRANCH  27  28
ENDBRANCH  23  27
ENDBRANCH   1  24
TORSDOF 7
