REMARK  Name = ZINC45602183
REMARK  10 active torsions:
REMARK  status: ('A' for Active; 'I' for Inactive)
REMARK    1  A    between atoms: C_1  and  C_2
REMARK    2  A    between atoms: C_2  and  O_3
REMARK    3  A    between atoms: O_3  and  C_4
REMARK    4  A    between atoms: C_4  and  C_6
REMARK    5  A    between atoms: C_7  and  C_32
REMARK    6  A    between atoms: C_11  and  C_15
REMARK    7  A    between atoms: C_15  and  O_16
REMARK    8  A    between atoms: O_16  and  C_17
REMARK    9  A    between atoms: C_17  and  C_19
REMARK   10  A    between atoms: C_22  and  C_24
REMARK                            x       y       z     vdW  Elec       q    Type
REMARK                         _______ _______ _______ _____ _____    ______ ____
ROOT
ATOM      1  C   UNL     1      -2.643  -2.178   0.242  0.00  0.00    +0.102 A 
ATOM      2  C   UNL     1      -2.973  -3.497   0.325  0.00  0.00    -0.017 A 
ATOM      3  C   UNL     1      -4.320  -3.875   0.391  0.00  0.00    +0.051 A 
ATOM      4  C   UNL     1      -4.888  -5.182   0.481  0.00  0.00    +0.128 A 
ATOM      5  N   UNL     1      -6.203  -5.311   0.531  0.00  0.00    -0.214 NA
ATOM      6  C   UNL     1      -7.016  -4.271   0.501  0.00  0.00    +0.170 A 
ATOM      7  N   UNL     1      -6.554  -3.038   0.419  0.00  0.00    -0.221 NA
ATOM      8  C   UNL     1      -5.257  -2.813   0.364  0.00  0.00    +0.115 A 
ATOM      9  S   UNL     1      -4.234  -1.368   0.257  0.00  0.00    -0.062 S 
ATOM     10  N   UNL     1      -4.074  -6.296   0.514  0.00  0.00    -0.343 N 
ATOM     11  C   UNL     1      -1.892  -4.546   0.346  0.00  0.00    +0.046 C 
ATOM     12  H   UNL     1      -3.171  -6.227   0.862  0.00  0.00    +0.144 HD
ATOM     13  H   UNL     1      -4.405  -7.148   0.189  0.00  0.00    +0.144 HD
ENDROOT
BRANCH   1  14
ATOM     14  C   UNL     1      -1.310  -1.572   0.165  0.00  0.00    +0.346 C 
ATOM     15  O   UNL     1      -0.320  -2.279   0.166  0.00  0.00    -0.244 OA
BRANCH  14  16
ATOM     16  O   UNL     1      -1.181  -0.232   0.093  0.00  0.00    -0.461 OA
BRANCH  16  18
ATOM     17  C   UNL     1       0.092   1.817  -0.054  0.00  0.00    +0.048 C 
ATOM     18  C   UNL     1       0.147   0.290   0.020  0.00  0.00    +0.229 C 
ENDBRANCH  16  18
ENDBRANCH  14  16
ENDBRANCH   1  14
BRANCH   6  19
ATOM     19  C   UNL     1      -8.505  -4.497   0.562  0.00  0.00    +0.308 C 
BRANCH  19  20
ATOM     20  O   UNL     1      -8.931  -4.495   1.926  0.00  0.00    -0.452 OA
BRANCH  20  21
ATOM     21  C   UNL     1     -10.245  -4.687   2.157  0.00  0.00    +0.359 C 
ATOM     22  O   UNL     1     -11.008  -4.850   1.225  0.00  0.00    -0.243 OA
BRANCH  21  23
ATOM     23  C   UNL     1     -10.757  -4.697   3.537  0.00  0.00    +0.155 A 
ATOM     24  C   UNL     1     -12.099  -4.897   3.787  0.00  0.00    +0.082 A 
ATOM     25  S   UNL     1     -12.169  -4.823   5.467  0.00  0.00    -0.075 S 
ATOM     26  C   UNL     1     -10.437  -4.532   5.783  0.00  0.00    +0.109 A 
ATOM     27  N   UNL     1      -9.935  -4.521   4.563  0.00  0.00    -0.232 NA
BRANCH  26  28
ATOM     28  C   UNL     1      -9.744  -4.356   7.077  0.00  0.00    +0.007 A 
ATOM     29  C   UNL     1      -8.367  -4.130   7.109  0.00  0.00    +0.012 A 
ATOM     30  C   UNL     1      -7.726  -3.966   8.319  0.00  0.00    +0.020 A 
ATOM     31  C   UNL     1      -8.445  -4.026   9.501  0.00  0.00    +0.041 A 
ATOM     32  C   UNL     1      -9.811  -4.250   9.476  0.00  0.00    +0.020 A 
ATOM     33  C   UNL     1     -10.464  -4.410   8.271  0.00  0.00    +0.012 A 
ATOM     34 CL   UNL     1      -7.631  -3.818  11.020  0.00  0.00    -0.084 Cl
ENDBRANCH  26  28
ENDBRANCH  21  23
ENDBRANCH  20  21
ENDBRANCH  19  20
ENDBRANCH   6  19
TORSDOF 8
