REMARK  Name = ZINC39531703
REMARK  6 active torsions:
REMARK  status: ('A' for Active; 'I' for Inactive)
REMARK    1  A    between atoms: C_1  and  C_2
REMARK    2  A    between atoms: C_5  and  C_8
REMARK    3  A    between atoms: C_8  and  C_10
REMARK    4  A    between atoms: C_8  and  N_13
REMARK    5  A    between atoms: C_10  and  N_11
REMARK    6  A    between atoms: C_17  and  O_20
REMARK                            x       y       z     vdW  Elec       q    Type
REMARK                         _______ _______ _______ _____ _____    ______ ____
ROOT
ATOM      1  C   UNL     1       0.045  -4.276  -0.011  0.00  0.00    +0.101 C 
ENDROOT
BRANCH   1   2
ATOM      2  N   UNL     1       0.901  -4.849   1.036  0.00  0.00    -0.295 NA
ATOM      3  C   UNL     1       2.228  -4.217   1.036  0.00  0.00    +0.066 C 
ATOM      4  C   UNL     1       3.067  -4.798   2.177  0.00  0.00    -0.063 C 
ATOM      5  N   UNL     1       3.197  -6.250   1.998  0.00  0.00    +0.398 N 
ATOM      6  C   UNL     1       1.866  -6.870   2.024  0.00  0.00    +0.073 C 
ATOM      7  C   UNL     1       1.017  -6.306   0.883  0.00  0.00    +0.096 C 
ATOM      8  H   UNL     1       3.639  -6.441   1.111  0.00  0.00    -0.082 HD
ATOM      9  H   UNL     1       3.760  -6.632   2.743  0.00  0.00    -0.082 HD
BRANCH   6  10
ATOM     10  O   UNL     1       1.996  -8.285   1.867  0.00  0.00    -0.409 OA
ATOM     11  H   UNL     1       2.523  -8.710   2.557  0.00  0.00    +0.207 HD
ENDBRANCH   6  10
ENDBRANCH   1   2
BRANCH   1  16
ATOM     12  C   UNL     1      -0.593   1.393   0.908  0.00  0.00    +0.044 C 
ATOM     13  C   UNL     1      -0.426  -0.085   0.668  0.00  0.00    -0.050 A 
ATOM     14  C   UNL     1      -0.258  -0.562  -0.618  0.00  0.00    +0.003 A 
ATOM     15  C   UNL     1      -0.106  -1.918  -0.838  0.00  0.00    +0.005 A 
ATOM     16  C   UNL     1      -0.120  -2.797   0.229  0.00  0.00    -0.029 A 
ATOM     17  C   UNL     1      -0.287  -2.320   1.515  0.00  0.00    +0.005 A 
ATOM     18  C   UNL     1      -0.435  -0.964   1.736  0.00  0.00    +0.003 A 
ENDBRANCH   1  16
BRANCH   1  19
ATOM     19  C   UNL     1      -1.325  -4.955   0.022  0.00  0.00    +0.115 C 
BRANCH  19  20
ATOM     20  N   UNL     1      -2.153  -4.441  -1.077  0.00  0.00    -0.259 NA
ATOM     21  I   UNL     1      -4.059  -5.188  -0.973  0.00  0.00    +0.018 I 
ATOM     22  H   UNL     1      -1.734  -4.645  -1.972  0.00  0.00    +0.134 HD
ENDBRANCH  19  20
ENDBRANCH   1  19
TORSDOF 5
