REMARK  Name = ZINC12411657
REMARK  9 active torsions:
REMARK  status: ('A' for Active; 'I' for Inactive)
REMARK    1  A    between atoms: C_1  and  C_2
REMARK    2  A    between atoms: C_2  and  N_49
REMARK    3  A    between atoms: C_3  and  C_4
REMARK    4  A    between atoms: C_3  and  N_49
REMARK    5  A    between atoms: C_5  and  C_6
REMARK    6  A    between atoms: C_5  and  N_49
REMARK    7  A    between atoms: C_7  and  C_17
REMARK    8  A    between atoms: N_19  and  N_20
REMARK    9  A    between atoms: C_21  and  C_22
REMARK                            x       y       z     vdW  Elec       q    Type
REMARK                         _______ _______ _______ _____ _____    ______ ____
ROOT
ATOM      1  C   UNL     1       0.669   2.297   0.375  0.00  0.00    +0.063 A 
ATOM      2  C   UNL     1      -0.388   1.519   0.756  0.00  0.00    +0.170 A 
ATOM      3  N   UNL     1      -1.480   2.298   0.845  0.00  0.00    -0.124 NA
ATOM      4  N   UNL     1      -1.169   3.512   0.552  0.00  0.00    -0.058 NA
ATOM      5  N   UNL     1       0.198   3.556   0.241  0.00  0.00    -0.194 N 
ATOM      6  C   UNL     1       0.933   4.687  -0.134  0.00  0.00    +0.240 A 
ATOM      7  C   UNL     1       0.403   6.046  -0.274  0.00  0.00    +0.206 A 
ATOM      8  N   UNL     1       1.380   6.832  -0.637  0.00  0.00    -0.032 NA
ATOM      9  O   UNL     1       2.552   6.043  -0.747  0.00  0.00    -0.239 OA
ATOM     10  N   UNL     1       2.205   4.711  -0.414  0.00  0.00    -0.027 NA
ATOM     11  N   UNL     1      -0.915   6.433  -0.057  0.00  0.00    -0.337 N 
ATOM     12  H   UNL     1      -1.575   5.776   0.212  0.00  0.00    +0.144 HD
ATOM     13  H   UNL     1      -1.173   7.360  -0.174  0.00  0.00    +0.144 HD
ENDROOT
BRANCH   2  14
ATOM     14  C   UNL     1      -0.340   0.068   1.018  0.00  0.00    +0.285 C 
ATOM     15  O   UNL     1       0.709  -0.537   0.900  0.00  0.00    -0.267 OA
ATOM     16  N   UNL     1      -1.458  -0.587   1.389  0.00  0.00    -0.202 N 
ATOM     17  H   UNL     1      -2.294  -0.104   1.484  0.00  0.00    +0.178 HD
BRANCH  16  18
ATOM     18  N   UNL     1      -1.412  -1.965   1.639  0.00  0.00    -0.187 NA
ATOM     19  C   UNL     1      -2.488  -2.595   1.996  0.00  0.00    +0.138 C 
BRANCH  19  20
ATOM     20  C   UNL     1      -2.441  -4.046   2.258  0.00  0.00    -0.004 A 
ATOM     21  C   UNL     1      -3.598  -4.728   2.643  0.00  0.00    +0.009 A 
ATOM     22  C   UNL     1      -3.546  -6.084   2.887  0.00  0.00    +0.002 A 
ATOM     23  C   UNL     1      -2.352  -6.770   2.752  0.00  0.00    +0.020 A 
ATOM     24  C   UNL     1      -1.201  -6.101   2.371  0.00  0.00    +0.042 A 
ATOM     25  C   UNL     1      -1.240  -4.745   2.118  0.00  0.00    +0.029 A 
ATOM     26 CL   UNL     1       0.291  -6.972   2.203  0.00  0.00    -0.084 Cl
ENDBRANCH  19  20
ENDBRANCH  16  18
ENDBRANCH   2  14
BRANCH   1  27
ATOM     27  C   UNL     1       2.087   1.838   0.148  0.00  0.00    -0.020 C 
BRANCH  27  28
ATOM     28  N   UNL     1       2.783   1.780   1.450  0.00  0.00    +0.383 N 
ATOM     29  H   UNL     1       2.209   1.245   2.112  0.00  0.00    -0.081 HD
BRANCH  28  31
ATOM     30  C   UNL     1       3.850  -0.366   0.963  0.00  0.00    -0.017 C 
ATOM     31  C   UNL     1       4.090   1.108   1.295  0.00  0.00    -0.082 C 
ENDBRANCH  28  31
BRANCH  28  32
ATOM     32  C   UNL     1       2.977   3.147   1.980  0.00  0.00    -0.082 C 
ATOM     33  C   UNL     1       3.405   3.050   3.446  0.00  0.00    -0.017 C 
ENDBRANCH  28  32
ENDBRANCH  27  28
ENDBRANCH   1  27
TORSDOF 7
