REMARK  Name = ZINC01082312
REMARK  6 active torsions:
REMARK  status: ('A' for Active; 'I' for Inactive)
REMARK    1  A    between atoms: C_1  and  C_2
REMARK    2  A    between atoms: C_11  and  N_12
REMARK    3  A    between atoms: N_12  and  C_13
REMARK    4  A    between atoms: C_14  and  C_31
REMARK    5  A    between atoms: N_15  and  C_25
REMARK    6  A    between atoms: N_16  and  C_19
REMARK                            x       y       z     vdW  Elec       q    Type
REMARK                         _______ _______ _______ _____ _____    ______ ____
ROOT
ATOM      1  C   UNL     1       0.183  -7.048   4.678  0.00  0.00    +0.119 A 
ATOM      2  C   UNL     1      -0.172  -8.354   4.618  0.00  0.00    +0.065 A 
ATOM      3  N   UNL     1      -0.518  -8.770   5.874  0.00  0.00    -0.248 N 
ATOM      4  N   UNL     1      -0.381  -7.702   6.768  0.00  0.00    -0.211 N 
ATOM      5  C   UNL     1       0.053  -6.629   6.075  0.00  0.00    +0.294 A 
ATOM      6  O   UNL     1       0.288  -5.522   6.525  0.00  0.00    -0.264 OA
ATOM      7  C   UNL     1      -0.185  -9.206   3.374  0.00  0.00    +0.068 C 
ENDROOT
BRANCH   4   8
ATOM      8  C   UNL     1      -0.643  -7.742   8.141  0.00  0.00    +0.068 A 
ATOM      9  C   UNL     1      -0.111  -8.760   8.921  0.00  0.00    +0.028 A 
ATOM     10  C   UNL     1      -0.371  -8.796  10.277  0.00  0.00    +0.002 A 
ATOM     11  C   UNL     1      -1.160  -7.820  10.858  0.00  0.00    +0.000 A 
ATOM     12  C   UNL     1      -1.690  -6.804  10.084  0.00  0.00    +0.002 A 
ATOM     13  C   UNL     1      -1.430  -6.759   8.728  0.00  0.00    +0.028 A 
ENDBRANCH   4   8
BRANCH   3  14
ATOM     14  C   UNL     1      -0.941 -10.058   6.212  0.00  0.00    +0.064 A 
ATOM     15  C   UNL     1      -2.083 -10.236   6.984  0.00  0.00    +0.028 A 
ATOM     16  C   UNL     1      -2.498 -11.511   7.315  0.00  0.00    +0.002 A 
ATOM     17  C   UNL     1      -1.779 -12.609   6.881  0.00  0.00    +0.000 A 
ATOM     18  C   UNL     1      -0.642 -12.436   6.113  0.00  0.00    +0.002 A 
ATOM     19  C   UNL     1      -0.225 -11.164   5.772  0.00  0.00    +0.028 A 
ENDBRANCH   3  14
BRANCH   1  20
ATOM     20  N   UNL     1       0.603  -6.249   3.604  0.00  0.00    -0.314 N 
ATOM     21  H   UNL     1       0.656  -6.625   2.711  0.00  0.00    +0.152 HD
BRANCH  20  32
ATOM     22  C   UNL     1       2.451   1.638   0.929  0.00  0.00    +0.044 C 
ATOM     23  C   UNL     1       2.235   0.153   0.793  0.00  0.00    -0.050 A 
ATOM     24  C   UNL     1       2.341  -0.446  -0.460  0.00  0.00    +0.005 A 
ATOM     25  C   UNL     1       2.151  -1.786  -0.615  0.00  0.00    +0.026 A 
ATOM     26  C   UNL     1       1.844  -2.585   0.500  0.00  0.00    +0.068 A 
ATOM     27  C   UNL     1       1.738  -1.973   1.773  0.00  0.00    +0.046 A 
ATOM     28  C   UNL     1       1.944  -0.589   1.897  0.00  0.00    +0.017 A 
ATOM     29  C   UNL     1       1.430  -2.756   2.908  0.00  0.00    +0.201 C 
ATOM     30  O   UNL     1       1.323  -2.193   4.131  0.00  0.00    -0.286 OA
ATOM     31  C   UNL     1       1.238  -4.140   2.728  0.00  0.00    +0.100 C 
ATOM     32  C   UNL     1       0.931  -4.967   3.811  0.00  0.00    +0.089 C 
ATOM     33  C   UNL     1       1.367  -4.695   1.369  0.00  0.00    +0.273 C 
ATOM     34  O   UNL     1       1.205  -5.893   1.183  0.00  0.00    -0.268 OA
ATOM     35  N   UNL     1       1.658  -3.903   0.348  0.00  0.00    -0.176 NA
ENDBRANCH  20  32
ENDBRANCH   1  20
TORSDOF 4
