REMARK  Name = ZINC17261413
REMARK  7 active torsions:
REMARK  status: ('A' for Active; 'I' for Inactive)
REMARK    1  A    between atoms: C_4  and  C_7
REMARK    2  A    between atoms: N_11  and  C_15
REMARK    3  A    between atoms: C_15  and  C_16
REMARK    4  A    between atoms: C_16  and  N_17
REMARK    5  A    between atoms: C_18  and  C_20
REMARK    6  A    between atoms: C_23  and  N_29
REMARK    7  A    between atoms: C_24  and  N_26
REMARK                            x       y       z     vdW  Elec       q    Type
REMARK                         _______ _______ _______ _____ _____    ______ ____
ROOT
ATOM      1  C   UNL     1       0.350  -6.872  -0.154  0.00  0.00    +0.124 C 
ENDROOT
BRANCH   1   2
ATOM      2  N   UNL     1       0.682  -5.449  -0.257  0.00  0.00    -0.310 N 
ATOM      3  C   UNL     1       1.938  -5.071  -0.567  0.00  0.00    +0.244 C 
ATOM      4  O   UNL     1       2.795  -5.911  -0.762  0.00  0.00    -0.270 OA
ATOM      5  H   UNL     1      -0.002  -4.778  -0.101  0.00  0.00    +0.149 HD
BRANCH   3   6
ATOM      6  C   UNL     1       2.273  -3.638  -0.671  0.00  0.00    +0.039 A 
ATOM      7  C   UNL     1       1.288  -2.670  -0.447  0.00  0.00    +0.015 A 
ATOM      8  C   UNL     1       1.605  -1.335  -0.539  0.00  0.00    +0.026 A 
ATOM      9  C   UNL     1       2.902  -0.946  -0.866  0.00  0.00    +0.055 A 
ATOM     10  C   UNL     1       3.884  -1.907  -1.089  0.00  0.00    +0.147 A 
ATOM     11  C   UNL     1       3.575  -3.244  -0.993  0.00  0.00    +0.047 A 
BRANCH  10  12
ATOM     12  N   UNL     1       5.263  -1.489  -1.429  0.00  0.00    +0.058 N 
ATOM     13  O   UNL     1       5.910  -2.128  -2.240  0.00  0.00    -0.126 OA
ATOM     14  O   UNL     1       5.750  -0.507  -0.899  0.00  0.00    -0.126 OA
ENDBRANCH  10  12
BRANCH   9  15
ATOM     15  N   UNL     1       3.217   0.405  -0.964  0.00  0.00    -0.356 N 
ATOM     16  H   UNL     1       4.127   0.677  -1.160  0.00  0.00    +0.142 HD
ATOM     17  H   UNL     1       2.527   1.074  -0.840  0.00  0.00    +0.142 HD
ENDBRANCH   9  15
ENDBRANCH   3   6
ENDBRANCH   1   2
BRANCH   1  18
ATOM     18  C   UNL     1      -1.129  -7.025   0.207  0.00  0.00    +0.136 C 
BRANCH  18  23
ATOM     19  C   UNL     1      -2.643 -11.427  -1.507  0.00  0.00    +0.028 C 
ATOM     20  C   UNL     1      -2.200 -10.526  -0.596  0.00  0.00    +0.080 C 
ATOM     21  C   UNL     1      -1.885  -9.092  -0.765  0.00  0.00    +0.260 C 
ATOM     22  O   UNL     1      -2.006  -8.533  -1.839  0.00  0.00    -0.269 OA
ATOM     23  N   UNL     1      -1.462  -8.448   0.310  0.00  0.00    -0.227 N 
ATOM     24  C   UNL     1      -1.334  -9.070   1.499  0.00  0.00    +0.286 C 
ATOM     25  O   UNL     1      -0.965  -8.603   2.560  0.00  0.00    -0.262 OA
ATOM     26  S   UNL     1      -1.840 -10.745   1.142  0.00  0.00    -0.026 S 
BRANCH  19  30
ATOM     27  C   UNL     1      -2.889 -15.534  -0.480  0.00  0.00    +0.000 A 
ATOM     28  C   UNL     1      -3.552 -15.064  -1.600  0.00  0.00    +0.001 A 
ATOM     29  C   UNL     1      -3.477 -13.730  -1.941  0.00  0.00    +0.008 A 
ATOM     30  C   UNL     1      -2.728 -12.851  -1.151  0.00  0.00    -0.024 A 
ATOM     31  C   UNL     1      -2.055 -13.336  -0.024  0.00  0.00    +0.008 A 
ATOM     32  C   UNL     1      -2.145 -14.671   0.306  0.00  0.00    +0.001 A 
ENDBRANCH  19  30
ENDBRANCH  18  23
ENDBRANCH   1  18
TORSDOF 7
