REMARK  Name = ZINC05562048
REMARK  8 active torsions:
REMARK  status: ('A' for Active; 'I' for Inactive)
REMARK    1  A    between atoms: C_1  and  C_2
REMARK    2  A    between atoms: C_2  and  C_5
REMARK    3  A    between atoms: N_3  and  O_4
REMARK    4  A    between atoms: C_11  and  C_32
REMARK    5  A    between atoms: C_21  and  C_31
REMARK    6  A    between atoms: C_24  and  O_27
REMARK    7  A    between atoms: O_27  and  C_28
REMARK    8  A    between atoms: C_28  and  C_30
REMARK                            x       y       z     vdW  Elec       q    Type
REMARK                         _______ _______ _______ _____ _____    ______ ____
ROOT
ATOM      1  C   UNL     1       3.893   3.872   1.250  0.00  0.00    +0.043 C 
ATOM      2  C   UNL     1       3.361   3.594   2.658  0.00  0.00    +0.010 C 
ATOM      3  C   UNL     1       1.823   3.523   2.535  0.00  0.00    +0.005 C 
ATOM      4  C   UNL     1       1.586   3.158   1.039  0.00  0.00    -0.001 C 
ATOM      5  C   UNL     1       2.665   4.002   0.340  0.00  0.00    -0.021 C 
ATOM      6  C   UNL     1       2.937   3.547  -1.076  0.00  0.00    +0.008 C 
ATOM      7  C   UNL     1       3.259   2.055  -1.113  0.00  0.00    +0.005 C 
ATOM      8  C   UNL     1       2.059   1.273  -0.561  0.00  0.00    +0.003 C 
ATOM      9  C   UNL     1       1.835   1.670   0.898  0.00  0.00    +0.000 C 
ATOM     10  C   UNL     1       0.594   0.929   1.416  0.00  0.00    +0.031 C 
ATOM     11  C   UNL     1       0.724  -0.540   1.151  0.00  0.00    -0.027 C 
ATOM     12  C   UNL     1       1.513  -1.041   0.256  0.00  0.00    -0.064 C 
ATOM     13  C   UNL     1       2.385  -0.215  -0.649  0.00  0.00    -0.008 C 
ATOM     14  C   UNL     1       3.851  -0.469  -0.304  0.00  0.00    +0.015 C 
ATOM     15  C   UNL     1       4.018  -1.870   0.281  0.00  0.00    +0.046 C 
ATOM     16  C   UNL     1       3.046  -2.856  -0.364  0.00  0.00    +0.180 C 
ATOM     17  C   UNL     1       1.617  -2.550   0.107  0.00  0.00    +0.075 C 
ATOM     18  C   UNL     1       2.156  -0.674  -2.090  0.00  0.00    +0.016 C 
ATOM     19  C   UNL     1       2.215   5.464   0.317  0.00  0.00    +0.012 C 
ENDROOT
BRANCH   1  21
ATOM     20  C   UNL     1       4.358   6.227   2.277  0.00  0.00    +0.064 C 
ATOM     21  C   UNL     1       4.673   5.162   1.258  0.00  0.00    +0.058 C 
ATOM     22  N   UNL     1       5.602   5.353   0.399  0.00  0.00    -0.097 NA
BRANCH  22  23
ATOM     23  O   UNL     1       5.790   4.429  -0.658  0.00  0.00    -0.409 OA
ATOM     24  H   UNL     1       6.561   4.615  -1.211  0.00  0.00    +0.328 HD
ENDBRANCH  22  23
ENDBRANCH   1  21
BRANCH  16  25
ATOM     25  O   UNL     1       3.404  -4.209   0.020  0.00  0.00    -0.461 OA
BRANCH  25  26
ATOM     26  C   UNL     1       3.123  -5.186  -0.857  0.00  0.00    +0.304 C 
ATOM     27  O   UNL     1       2.596  -4.919  -1.911  0.00  0.00    -0.251 OA
ATOM     28  C   UNL     1       3.465  -6.616  -0.526  0.00  0.00    +0.136 C 
ENDBRANCH  25  26
ENDBRANCH  16  25
TORSDOF 4
