REMARK  Name = ZINC59292509
REMARK  8 active torsions:
REMARK  status: ('A' for Active; 'I' for Inactive)
REMARK    1  A    between atoms: C_1  and  C_2
REMARK    2  A    between atoms: C_8  and  C_12
REMARK    3  A    between atoms: C_12  and  C_13
REMARK    4  A    between atoms: C_13  and  N_14
REMARK    5  A    between atoms: C_15  and  C_17
REMARK    6  A    between atoms: C_17  and  C_19
REMARK    7  A    between atoms: C_17  and  O_20
REMARK    8  A    between atoms: O_20  and  C_21
REMARK                            x       y       z     vdW  Elec       q    Type
REMARK                         _______ _______ _______ _____ _____    ______ ____
ROOT
ATOM      1  N   UNL     1      -1.383  -2.166   5.604  0.00  0.00    -0.312 N 
ATOM      2  C   UNL     1      -2.537  -2.009   6.282  0.00  0.00    +0.254 C 
ATOM      3  O   UNL     1      -3.579  -1.858   5.680  0.00  0.00    -0.272 OA
ATOM      4  H   UNL     1      -0.550  -2.287   6.085  0.00  0.00    +0.149 HD
ENDROOT
BRANCH   2   5
ATOM      5  C   UNL     1      -2.533  -2.021   7.789  0.00  0.00    +0.256 C 
ATOM      6  C   UNL     1      -1.745  -0.816   8.307  0.00  0.00    +0.062 C 
BRANCH   5   7
ATOM      7  O   UNL     1      -3.877  -1.954   8.270  0.00  0.00    -0.478 OA
BRANCH   7   8
ATOM      8  C   UNL     1      -4.115  -2.461   9.509  0.00  0.00    +0.140 A 
ATOM      9  C   UNL     1      -3.060  -2.909  10.291  0.00  0.00    +0.048 A 
ATOM     10  C   UNL     1      -3.304  -3.424  11.550  0.00  0.00    +0.023 A 
ATOM     11  C   UNL     1      -4.599  -3.493  12.031  0.00  0.00    +0.043 A 
ATOM     12  C   UNL     1      -5.653  -3.048  11.253  0.00  0.00    +0.043 A 
ATOM     13  C   UNL     1      -5.413  -2.527   9.995  0.00  0.00    +0.084 A 
ATOM     14 CL   UNL     1      -6.735  -1.961   9.022  0.00  0.00    -0.080 Cl
ATOM     15 CL   UNL     1      -4.902  -4.141  13.613  0.00  0.00    -0.083 Cl
ENDBRANCH   7   8
ENDBRANCH   5   7
ENDBRANCH   2   5
BRANCH   1  16
ATOM     16  C   UNL     1      -1.387  -2.154   4.139  0.00  0.00    +0.109 C 
BRANCH  16  17
ATOM     17  C   UNL     1       0.039  -2.351   3.623  0.00  0.00    +0.056 C 
BRANCH  17  25
ATOM     18  C   UNL     1       0.286   2.572   0.704  0.00  0.00    +0.044 C 
ATOM     19  C   UNL     1       0.208   1.089   0.443  0.00  0.00    -0.050 A 
ATOM     20  C   UNL     1       0.180   0.620  -0.863  0.00  0.00    +0.005 A 
ATOM     21  C   UNL     1       0.109  -0.731  -1.123  0.00  0.00    +0.026 A 
ATOM     22  C   UNL     1       0.065  -1.636  -0.068  0.00  0.00    +0.047 A 
ATOM     23  C   UNL     1       0.094  -1.156   1.254  0.00  0.00    +0.003 A 
ATOM     24  C   UNL     1       0.172   0.217   1.495  0.00  0.00    +0.013 A 
ATOM     25  C   UNL     1       0.035  -2.339   2.116  0.00  0.00    -0.021 A 
ATOM     26  C   UNL     1      -0.024  -3.410   1.309  0.00  0.00    +0.087 A 
ATOM     27  N   UNL     1      -0.007  -3.009   0.001  0.00  0.00    -0.360 N 
ATOM     28  H   UNL     1      -0.040  -3.604  -0.765  0.00  0.00    +0.165 HD
ENDBRANCH  17  25
ENDBRANCH  16  17
ENDBRANCH   1  16
TORSDOF 6
