REMARK  Name = ZINC03025202
REMARK  8 active torsions:
REMARK  status: ('A' for Active; 'I' for Inactive)
REMARK    1  A    between atoms: C_1  and  C_2
REMARK    2  A    between atoms: C_4  and  C_31
REMARK    3  A    between atoms: C_6  and  N_8
REMARK    4  A    between atoms: C_9  and  C_11
REMARK    5  A    between atoms: C_13  and  S_18
REMARK    6  A    between atoms: S_18  and  N_21
REMARK    7  A    between atoms: C_23  and  C_30
REMARK    8  A    between atoms: C_26  and  C_29
REMARK                            x       y       z     vdW  Elec       q    Type
REMARK                         _______ _______ _______ _____ _____    ______ ____
ROOT
ATOM      1  C   UNL     1      -3.004   3.055   5.526  0.00  0.00    +0.074 A 
ATOM      2  C   UNL     1      -2.547   1.995   4.740  0.00  0.00    +0.044 A 
ATOM      3  C   UNL     1      -1.254   1.539   4.887  0.00  0.00    +0.106 A 
ATOM      4  C   UNL     1      -0.409   2.126   5.814  0.00  0.00    +0.031 A 
ATOM      5  C   UNL     1      -0.851   3.180   6.592  0.00  0.00    +0.041 A 
ATOM      6  C   UNL     1      -2.145   3.648   6.457  0.00  0.00    +0.136 A 
ATOM      7  F   UNL     1      -2.578   4.674   7.221  0.00  0.00    -0.205 F 
ENDROOT
BRANCH   1   9
ATOM      8  N   UNL     1      -5.212   2.975   4.475  0.00  0.00    -0.281 N 
ATOM      9  C   UNL     1      -4.388   3.548   5.373  0.00  0.00    +0.251 C 
ATOM     10  O   UNL     1      -4.783   4.471   6.059  0.00  0.00    -0.270 OA
ATOM     11  H   UNL     1      -4.876   2.291   3.875  0.00  0.00    +0.155 HD
BRANCH   8  17
ATOM     12  C   UNL     1      -9.262   3.759   1.800  0.00  0.00    +0.044 C 
ATOM     13  C   UNL     1      -8.541   3.756   3.123  0.00  0.00    -0.048 A 
ATOM     14  C   UNL     1      -9.206   4.140   4.273  0.00  0.00    +0.006 A 
ATOM     15  C   UNL     1      -8.549   4.138   5.490  0.00  0.00    -0.048 A 
ATOM     16  C   UNL     1      -7.225   3.752   5.560  0.00  0.00    +0.026 A 
ATOM     17  C   UNL     1      -6.553   3.366   4.407  0.00  0.00    +0.034 A 
ATOM     18  C   UNL     1      -7.215   3.376   3.186  0.00  0.00    +0.026 A 
ATOM     19  C   UNL     1      -9.278   4.557   6.740  0.00  0.00    +0.044 C 
ENDBRANCH   8  17
ENDBRANCH   1   9
BRANCH   3  20
ATOM     20  S   UNL     1      -0.676   0.202   3.896  0.00  0.00    +0.061 S 
ATOM     21  O   UNL     1      -1.825  -0.533   3.496  0.00  0.00    -0.153 OA
ATOM     22  O   UNL     1       0.400  -0.395   4.606  0.00  0.00    -0.153 OA
BRANCH  20  23
ATOM     23  N   UNL     1      -0.029   0.856   2.519  0.00  0.00    -0.176 NA
ATOM     24  C   UNL     1       1.392   1.222   2.460  0.00  0.00    +0.112 C 
ATOM     25  C   UNL     1       2.026   0.542   1.242  0.00  0.00    +0.002 C 
ATOM     26  C   UNL     1       1.231   0.909  -0.013  0.00  0.00    +0.009 C 
ATOM     27  C   UNL     1      -0.207   0.404   0.128  0.00  0.00    +0.002 C 
ATOM     28  C   UNL     1      -0.867   1.082   1.333  0.00  0.00    +0.112 C 
ATOM     29  C   UNL     1      -0.993   0.741  -1.141  0.00  0.00    +0.009 C 
ATOM     30  C   UNL     1       3.472   1.018   1.087  0.00  0.00    +0.009 C 
ENDBRANCH  20  23
ENDBRANCH   3  20
TORSDOF 4
