REMARK  Name = ZINC40801252
REMARK  7 active torsions:
REMARK  status: ('A' for Active; 'I' for Inactive)
REMARK    1  A    between atoms: C_1  and  C_2
REMARK    2  A    between atoms: C_2  and  C_3
REMARK    3  A    between atoms: C_3  and  N_4
REMARK    4  A    between atoms: C_5  and  C_7
REMARK    5  A    between atoms: C_11  and  N_12
REMARK    6  A    between atoms: C_13  and  C_15
REMARK    7  A    between atoms: C_15  and  C_16
REMARK                            x       y       z     vdW  Elec       q    Type
REMARK                         _______ _______ _______ _____ _____    ______ ____
ROOT
ATOM      1  N   UNL     1       3.504  -4.299  -1.075  0.00  0.00    -0.279 N 
ATOM      2  C   UNL     1       4.424  -5.144  -0.568  0.00  0.00    +0.222 C 
ATOM      3  O   UNL     1       4.269  -6.342  -0.671  0.00  0.00    -0.275 OA
ATOM      4  H   UNL     1       3.628  -3.340  -0.993  0.00  0.00    +0.155 HD
ENDROOT
BRANCH   1   9
ATOM      5  C   UNL     1       1.341  -4.089  -2.293  0.00  0.00    +0.069 A 
ATOM      6  C   UNL     1       0.275  -4.857  -2.912  0.00  0.00    -0.023 A 
ATOM      7  C   UNL     1       0.441  -6.195  -2.835  0.00  0.00    -0.004 A 
ATOM      8  S   UNL     1       1.967  -6.408  -1.967  0.00  0.00    -0.077 S 
ATOM      9  C   UNL     1       2.381  -4.800  -1.716  0.00  0.00    +0.084 A 
ATOM     10  C   UNL     1      -0.479  -7.248  -3.371  0.00  0.00    +0.043 C 
ATOM     11  C   UNL     1      -1.829  -6.590  -3.693  0.00  0.00    +0.005 C 
ATOM     12  C   UNL     1      -1.578  -5.311  -4.496  0.00  0.00    +0.005 C 
ATOM     13  C   UNL     1      -0.940  -4.249  -3.597  0.00  0.00    +0.037 C 
BRANCH   5  15
ATOM     14  N   UNL     1       0.738  -1.962  -1.265  0.00  0.00    -0.311 N 
ATOM     15  C   UNL     1       1.321  -2.623  -2.285  0.00  0.00    +0.247 C 
ATOM     16  O   UNL     1       1.831  -2.002  -3.199  0.00  0.00    -0.270 OA
ATOM     17  H   UNL     1       0.332  -2.457  -0.536  0.00  0.00    +0.149 HD
BRANCH  14  18
ATOM     18  C   UNL     1       0.718  -0.497  -1.257  0.00  0.00    +0.104 C 
BRANCH  18  20
ATOM     19  C   UNL     1      -0.019   1.526   0.010  0.00  0.00    +0.005 C 
ATOM     20  C   UNL     1       0.002  -0.004   0.002  0.00  0.00    +0.015 C 
ENDBRANCH  18  20
ENDBRANCH  14  18
ENDBRANCH   5  15
ENDBRANCH   1   9
BRANCH   2  21
ATOM     21  C   UNL     1       5.644  -4.599   0.128  0.00  0.00    +0.150 C 
BRANCH  21  22
ATOM     22  C   UNL     1       6.519  -5.759   0.606  0.00  0.00    +0.268 C 
ATOM     23  C   UNL     1       7.799  -5.216   1.191  0.00  0.00    +0.259 C 
ATOM     24  O   UNL     1       8.783  -5.094   0.493  0.00  0.00    -0.271 OA
ATOM     25  N   UNL     1       7.844  -4.865   2.493  0.00  0.00    -0.280 N 
ATOM     26  C   UNL     1       6.737  -5.132   3.312  0.00  0.00    +0.076 A 
ATOM     27  C   UNL     1       6.655  -4.588   4.584  0.00  0.00    +0.027 A 
ATOM     28  C   UNL     1       5.551  -4.850   5.373  0.00  0.00    +0.002 A 
ATOM     29  C   UNL     1       4.529  -5.650   4.897  0.00  0.00    +0.004 A 
ATOM     30  C   UNL     1       4.607  -6.199   3.630  0.00  0.00    +0.047 A 
ATOM     31  C   UNL     1       5.713  -5.947   2.836  0.00  0.00    +0.143 A 
ATOM     32  O   UNL     1       5.816  -6.506   1.601  0.00  0.00    -0.477 OA
ATOM     33  H   UNL     1       8.632  -4.435   2.859  0.00  0.00    +0.155 HD
ENDBRANCH  21  22
ENDBRANCH   2  21
TORSDOF 6
