REMARK  Name = ZINC49120946
REMARK  8 active torsions:
REMARK  status: ('A' for Active; 'I' for Inactive)
REMARK    1  A    between atoms: C_1  and  C_2
REMARK    2  A    between atoms: C_2  and  C_3
REMARK    3  A    between atoms: C_9  and  N_11
REMARK    4  A    between atoms: N_11  and  S_12
REMARK    5  A    between atoms: S_12  and  C_15
REMARK    6  A    between atoms: C_15  and  C_16
REMARK    7  A    between atoms: C_19  and  C_22
REMARK    8  A    between atoms: C_22  and  N_23
REMARK                            x       y       z     vdW  Elec       q    Type
REMARK                         _______ _______ _______ _____ _____    ______ ____
ROOT
ATOM      1  S   UNL     1       0.185  -3.816   1.423  0.00  0.00    +0.034 S 
ATOM      2  O   UNL     1       0.652  -3.890   2.763  0.00  0.00    -0.158 OA
ATOM      3  O   UNL     1      -0.648  -4.836   0.890  0.00  0.00    -0.158 OA
ENDROOT
BRANCH   1   4
ATOM      4  N   UNL     1      -0.741  -2.444   1.374  0.00  0.00    -0.191 NA
ATOM      5  H   UNL     1      -0.839  -1.896   2.168  0.00  0.00    +0.148 HD
BRANCH   4  11
ATOM      6  C   UNL     1      -1.433  -0.534   0.013  0.00  0.00    +0.007 C 
ATOM      7  C   UNL     1      -2.135  -0.131  -1.286  0.00  0.00    +0.005 C 
ATOM      8  C   UNL     1      -3.571  -0.661  -1.275  0.00  0.00    +0.000 C 
ATOM      9  C   UNL     1      -3.551  -2.186  -1.157  0.00  0.00    +0.002 C 
ATOM     10  C   UNL     1      -2.849  -2.589   0.141  0.00  0.00    +0.020 C 
ATOM     11  C   UNL     1      -1.413  -2.059   0.130  0.00  0.00    +0.079 C 
BRANCH   6  13
ATOM     12  C   UNL     1      -0.019   1.526   0.010  0.00  0.00    +0.004 C 
ATOM     13  C   UNL     1       0.002  -0.004   0.002  0.00  0.00    +0.002 C 
ENDBRANCH   6  13
ENDBRANCH   4  11
ENDBRANCH   1   4
BRANCH   1  14
ATOM     14  C   UNL     1       1.568  -3.486   0.297  0.00  0.00    +0.220 C 
BRANCH  14  15
ATOM     15  C   UNL     1       2.485  -4.681   0.264  0.00  0.00    -0.025 A 
ATOM     16  C   UNL     1       3.533  -4.773   1.161  0.00  0.00    +0.005 A 
ATOM     17  C   UNL     1       4.375  -5.870   1.130  0.00  0.00    +0.002 A 
ATOM     18  C   UNL     1       4.168  -6.874   0.203  0.00  0.00    -0.065 A 
ATOM     19  C   UNL     1       3.120  -6.782  -0.693  0.00  0.00    +0.002 A 
ATOM     20  C   UNL     1       2.276  -5.688  -0.660  0.00  0.00    +0.005 A 
BRANCH  18  21
ATOM     21  C   UNL     1       5.086  -8.069   0.169  0.00  0.00    -0.051 C 
BRANCH  21  22
ATOM     22  N   UNL     1       4.560  -9.116   1.056  0.00  0.00    +0.381 N 
ATOM     23  H   UNL     1       3.640  -9.389   0.744  0.00  0.00    -0.090 HD
ATOM     24  H   UNL     1       5.174  -9.915   1.033  0.00  0.00    -0.090 HD
ATOM     25  H   UNL     1       4.504  -8.761   1.999  0.00  0.00    -0.090 HD
ENDBRANCH  21  22
ENDBRANCH  18  21
ENDBRANCH  14  15
ENDBRANCH   1  14
TORSDOF 7
