REMARK  Name = ZINC09685521
REMARK  7 active torsions:
REMARK  status: ('A' for Active; 'I' for Inactive)
REMARK    1  A    between atoms: C_1  and  C_2
REMARK    2  A    between atoms: C_7  and  S_8
REMARK    3  A    between atoms: S_8  and  N_11
REMARK    4  A    between atoms: N_11  and  C_12
REMARK    5  A    between atoms: C_12  and  C_13
REMARK    6  A    between atoms: C_27  and  C_29
REMARK    7  A    between atoms: C_27  and  C_30
REMARK                            x       y       z     vdW  Elec       q    Type
REMARK                         _______ _______ _______ _____ _____    ______ ____
ROOT
ATOM      1  C   UNL     1      -1.454  -0.534  -0.627  0.00  0.00    +0.046 C 
ATOM      2  C   UNL     1      -0.293   0.303  -0.156  0.00  0.00    -0.023 A 
ATOM      3  C   UNL     1      -0.471   1.648   0.085  0.00  0.00    +0.016 A 
ATOM      4  C   UNL     1       0.602   2.422   0.519  0.00  0.00    +0.011 A 
ATOM      5  C   UNL     1       1.862   1.828   0.713  0.00  0.00    +0.049 A 
ATOM      6  C   UNL     1       2.020   0.469   0.465  0.00  0.00    +0.055 A 
ATOM      7  C   UNL     1       0.949  -0.283   0.034  0.00  0.00    +0.110 A 
ATOM      8  N   UNL     1       2.734   2.812   1.141  0.00  0.00    -0.357 N 
ATOM      9  H   UNL     1       3.670   2.668   1.351  0.00  0.00    +0.166 HD
ATOM     10  C   UNL     1       2.108   3.993   1.226  0.00  0.00    +0.028 A 
ATOM     11  C   UNL     1       0.779   3.835   0.863  0.00  0.00    +0.046 A 
ATOM     12  C   UNL     1      -0.145   4.907   0.861  0.00  0.00    +0.166 C 
ATOM     13  O   UNL     1      -1.295   4.745   0.506  0.00  0.00    -0.292 OA
ATOM     14  C   UNL     1       0.351   6.262   1.317  0.00  0.00    +0.086 C 
ATOM     15  C   UNL     1       1.828   6.426   0.958  0.00  0.00    -0.023 C 
ATOM     16  C   UNL     1       2.669   5.336   1.633  0.00  0.00    +0.060 C 
ATOM     17  C   UNL     1       1.993   6.325  -0.559  0.00  0.00    +0.011 C 
ATOM     18  C   UNL     1       2.312   7.800   1.428  0.00  0.00    +0.011 C 
ENDROOT
BRANCH   7  19
ATOM     19  S   UNL     1       1.159  -2.005  -0.278  0.00  0.00    +0.059 S 
ATOM     20  O   UNL     1       2.535  -2.290  -0.068  0.00  0.00    -0.153 OA
ATOM     21  O   UNL     1       0.125  -2.675   0.430  0.00  0.00    -0.153 OA
BRANCH  19  22
ATOM     22  N   UNL     1       0.865  -2.249  -1.889  0.00  0.00    -0.186 NA
ATOM     23  H   UNL     1       0.096  -2.770  -2.168  0.00  0.00    +0.148 HD
BRANCH  22  24
ATOM     24  C   UNL     1       1.767  -1.679  -2.893  0.00  0.00    +0.141 C 
BRANCH  24  25
ATOM     25  C   UNL     1       1.491  -2.312  -4.233  0.00  0.00    -0.032 A 
ATOM     26  C   UNL     1       2.173  -3.453  -4.612  0.00  0.00    +0.008 A 
ATOM     27  C   UNL     1       1.917  -4.036  -5.839  0.00  0.00    +0.038 A 
ATOM     28  C   UNL     1       0.985  -3.471  -6.692  0.00  0.00    +0.123 A 
ATOM     29  C   UNL     1       0.306  -2.325  -6.314  0.00  0.00    +0.038 A 
ATOM     30  C   UNL     1       0.560  -1.746  -5.085  0.00  0.00    +0.008 A 
ATOM     31  F   UNL     1       0.737  -4.037  -7.894  0.00  0.00    -0.205 F 
ENDBRANCH  24  25
ENDBRANCH  22  24
ENDBRANCH  19  22
ENDBRANCH   7  19
TORSDOF 4
