REMARK  Name = ZINC09223535
REMARK  6 active torsions:
REMARK  status: ('A' for Active; 'I' for Inactive)
REMARK    1  A    between atoms: C_1  and  C_2
REMARK    2  A    between atoms: C_5  and  N_8
REMARK    3  A    between atoms: C_9  and  C_30
REMARK    4  A    between atoms: C_11  and  C_17
REMARK    5  A    between atoms: N_19  and  C_20
REMARK    6  A    between atoms: C_20  and  C_21
REMARK                            x       y       z     vdW  Elec       q    Type
REMARK                         _______ _______ _______ _____ _____    ______ ____
ROOT
ATOM      1  N   UNL     1       1.356   1.586  -0.002  0.00  0.00    -0.263 N 
ATOM      2  C   UNL     1      -0.017   1.097   0.006  0.00  0.00    +0.130 C 
ATOM      3  C   UNL     1      -0.752   1.586   1.254  0.00  0.00    +0.101 C 
ATOM      4  C   UNL     1       0.103   1.261   2.486  0.00  0.00    +0.024 C 
ATOM      5  C   UNL     1       1.367   2.123   2.438  0.00  0.00    +0.097 C 
ATOM      6  C   UNL     1       1.999   2.029   1.079  0.00  0.00    +0.220 C 
ATOM      7  O   UNL     1       3.155   2.374   0.959  0.00  0.00    -0.275 OA
ENDROOT
BRANCH   1  12
ATOM      8  C   UNL     1       4.142   1.607  -4.945  0.00  0.00    +0.044 C 
ATOM      9  C   UNL     1       3.402   1.601  -3.632  0.00  0.00    -0.050 A 
ATOM     10  C   UNL     1       3.102   2.796  -3.004  0.00  0.00    +0.005 A 
ATOM     11  C   UNL     1       2.424   2.795  -1.801  0.00  0.00    +0.024 A 
ATOM     12  C   UNL     1       2.043   1.591  -1.221  0.00  0.00    +0.037 A 
ATOM     13  C   UNL     1       2.351   0.393  -1.851  0.00  0.00    +0.024 A 
ATOM     14  C   UNL     1       3.024   0.401  -3.058  0.00  0.00    +0.005 A 
ENDBRANCH   1  12
BRANCH   2  15
ATOM     15  C   UNL     1      -0.733   1.604  -1.219  0.00  0.00    +0.011 A 
ATOM     16  C   UNL     1      -1.610   0.956  -2.025  0.00  0.00    +0.013 A 
ATOM     17  C   UNL     1      -2.150   1.627  -3.105  0.00  0.00    +0.008 A 
ATOM     18  C   UNL     1      -1.787   2.914  -3.328  0.00  0.00    +0.045 A 
ATOM     19  S   UNL     1      -0.654   3.216  -1.982  0.00  0.00    -0.100 S 
ENDBRANCH   2  15
BRANCH   3  20
ATOM     20  C   UNL     1      -2.083   0.887   1.364  0.00  0.00    +0.219 C 
ATOM     21  O   UNL     1      -2.412   0.076   0.525  0.00  0.00    -0.275 OA
ATOM     22  N   UNL     1      -2.906   1.164   2.394  0.00  0.00    -0.308 N 
ATOM     23  H   UNL     1      -2.642   1.812   3.066  0.00  0.00    +0.149 HD
BRANCH  22  24
ATOM     24  C   UNL     1      -4.200   0.484   2.501  0.00  0.00    +0.181 C 
BRANCH  24  25
ATOM     25  C   UNL     1      -4.921   0.968   3.732  0.00  0.00    +0.155 A 
ATOM     26  N   UNL     1      -4.846   0.445   4.929  0.00  0.00    -0.132 NA
ATOM     27  N   UNL     1      -5.586   1.103   5.751  0.00  0.00    -0.129 NA
ATOM     28  C   UNL     1      -6.188   2.091   5.109  0.00  0.00    +0.161 A 
ATOM     29  N   UNL     1      -5.774   2.026   3.801  0.00  0.00    -0.285 N 
ATOM     30  C   UNL     1      -6.232   2.928   2.886  0.00  0.00    +0.094 A 
ATOM     31  C   UNL     1      -7.098   3.896   3.252  0.00  0.00    +0.018 A 
ATOM     32  C   UNL     1      -7.539   3.988   4.583  0.00  0.00    +0.005 A 
ATOM     33  C   UNL     1      -7.091   3.096   5.507  0.00  0.00    +0.048 A 
ENDBRANCH  24  25
ENDBRANCH  22  24
ENDBRANCH   3  20
TORSDOF 5
