REMARK  Name = ZINC39930333
REMARK  8 active torsions:
REMARK  status: ('A' for Active; 'I' for Inactive)
REMARK    1  A    between atoms: C_1  and  C_2
REMARK    2  A    between atoms: C_2  and  C_3
REMARK    3  A    between atoms: C_3  and  N_4
REMARK    4  A    between atoms: C_13  and  C_14
REMARK    5  A    between atoms: C_13  and  O_29
REMARK    6  A    between atoms: C_14  and  C_16
REMARK    7  A    between atoms: C_14  and  C_23
REMARK    8  A    between atoms: C_16  and  C_17
REMARK                            x       y       z     vdW  Elec       q    Type
REMARK                         _______ _______ _______ _____ _____    ______ ____
ROOT
ATOM      1  N   UNL     1       0.788  -1.874   1.345  0.00  0.00    -0.265 N 
ATOM      2  C   UNL     1      -0.165  -2.672   1.857  0.00  0.00    +0.249 C 
ATOM      3  O   UNL     1      -1.127  -2.286   2.492  0.00  0.00    -0.270 OA
ATOM      4  C   UNL     1       0.124  -4.083   1.538  0.00  0.00    +0.044 A 
ATOM      5  C   UNL     1      -0.546  -5.271   1.837  0.00  0.00    +0.013 A 
ATOM      6  C   UNL     1      -0.035  -6.476   1.401  0.00  0.00    +0.001 A 
ATOM      7  C   UNL     1       1.139  -6.513   0.670  0.00  0.00    +0.000 A 
ATOM      8  C   UNL     1       1.809  -5.339   0.369  0.00  0.00    +0.009 A 
ATOM      9  C   UNL     1       1.308  -4.132   0.799  0.00  0.00    +0.015 A 
ATOM     10  C   UNL     1       1.773  -2.706   0.644  0.00  0.00    +0.169 C 
ENDROOT
BRANCH  10  11
ATOM     11  O   UNL     1       1.821  -2.350  -0.739  0.00  0.00    -0.367 OA
ATOM     12  H   UNL     1       0.978  -2.451  -1.201  0.00  0.00    +0.212 HD
ENDBRANCH  10  11
BRANCH   1  13
ATOM     13  C   UNL     1       0.833  -0.415   1.462  0.00  0.00    +0.111 C 
BRANCH  13  15
ATOM     14  C   UNL     1       0.131   1.739   0.407  0.00  0.00    +0.005 C 
ATOM     15  C   UNL     1       0.084   0.214   0.285  0.00  0.00    +0.016 C 
ENDBRANCH  13  15
ENDBRANCH   1  13
BRANCH  10  16
ATOM     16  C   UNL     1       3.154  -2.535   1.280  0.00  0.00    +0.078 C 
BRANCH  16  17
ATOM     17  C   UNL     1       3.071  -2.845   2.752  0.00  0.00    -0.039 A 
ATOM     18  C   UNL     1       2.860  -4.145   3.174  0.00  0.00    +0.004 A 
ATOM     19  C   UNL     1       2.784  -4.430   4.524  0.00  0.00    +0.000 A 
ATOM     20  C   UNL     1       2.919  -3.415   5.453  0.00  0.00    +0.000 A 
ATOM     21  C   UNL     1       3.131  -2.115   5.032  0.00  0.00    +0.000 A 
ATOM     22  C   UNL     1       3.211  -1.831   3.681  0.00  0.00    +0.004 A 
ENDBRANCH  16  17
BRANCH  16  23
ATOM     23  C   UNL     1       4.145  -3.490   0.612  0.00  0.00    +0.048 C 
BRANCH  23  24
ATOM     24  C   UNL     1       5.529  -3.236   1.152  0.00  0.00    -0.047 A 
ATOM     25  C   UNL     1       6.352  -2.312   0.536  0.00  0.00    +0.003 A 
ATOM     26  C   UNL     1       7.622  -2.079   1.031  0.00  0.00    +0.000 A 
ATOM     27  C   UNL     1       8.068  -2.770   2.142  0.00  0.00    +0.000 A 
ATOM     28  C   UNL     1       7.244  -3.693   2.759  0.00  0.00    +0.000 A 
ATOM     29  C   UNL     1       5.973  -3.923   2.266  0.00  0.00    +0.003 A 
ENDBRANCH  23  24
ENDBRANCH  16  23
ENDBRANCH  10  16
TORSDOF 7
