REMARK  Name = ZINC21319669
REMARK  4 active torsions:
REMARK  status: ('A' for Active; 'I' for Inactive)
REMARK    1  A    between atoms: C_1  and  N_2
REMARK    2  A    between atoms: N_7  and  C_8
REMARK    3  A    between atoms: C_8  and  C_10
REMARK    4  A    between atoms: C_12  and  C_20
REMARK                            x       y       z     vdW  Elec       q    Type
REMARK                         _______ _______ _______ _____ _____    ______ ____
ROOT
ATOM      1  C   UNL     1      -3.933   5.133   0.068  0.00  0.00    +0.050 A 
ATOM      2  C   UNL     1      -3.059   4.058   0.067  0.00  0.00    +0.045 A 
ATOM      3  C   UNL     1      -1.674   4.295   0.054  0.00  0.00    +0.107 A 
ATOM      4  N   UNL     1      -1.169   5.514   0.048  0.00  0.00    -0.244 NA
ATOM      5  C   UNL     1      -1.938   6.604   0.043  0.00  0.00    +0.073 A 
ATOM      6  C   UNL     1      -3.350   6.475   0.055  0.00  0.00    +0.013 A 
ATOM      7  C   UNL     1      -4.153   7.621   0.055  0.00  0.00    +0.011 A 
ATOM      8  C   UNL     1      -3.569   8.853   0.043  0.00  0.00    +0.001 A 
ATOM      9  C   UNL     1      -2.182   8.986   0.030  0.00  0.00    +0.002 A 
ATOM     10  C   UNL     1      -1.372   7.892   0.031  0.00  0.00    +0.028 A 
ENDROOT
BRANCH   3  11
ATOM     11  C   UNL     1      -0.754   3.142   0.054  0.00  0.00    +0.153 A 
ATOM     12  C   UNL     1       0.606   3.204   0.043  0.00  0.00    +0.051 A 
ATOM     13  C   UNL     1       1.073   1.877   0.047  0.00  0.00    +0.042 A 
ATOM     14  C   UNL     1      -0.012   1.076   0.061  0.00  0.00    +0.196 A 
ATOM     15  O   UNL     1      -1.113   1.843   0.059  0.00  0.00    -0.461 OA
ENDBRANCH   3  11
BRANCH   1  16
ATOM     16  C   UNL     1      -5.401   4.932   0.081  0.00  0.00    +0.270 C 
ATOM     17  O   UNL     1      -6.147   5.891   0.186  0.00  0.00    -0.268 OA
BRANCH  16  24
ATOM     18  C   UNL     1      -7.238   1.074  -0.236  0.00  0.00    +0.150 C 
ATOM     19  N   UNL     1      -7.932   2.357  -0.101  0.00  0.00    -0.331 N 
ATOM     20  C   UNL     1      -9.289   2.407  -0.066  0.00  0.00    +0.094 A 
ATOM     21  C   UNL     1      -9.885   3.598   0.057  0.00  0.00    +0.066 A 
ATOM     22  S   UNL     1      -8.487   4.704   0.135  0.00  0.00    -0.061 S 
ATOM     23  C   UNL     1      -7.226   3.521  -0.009  0.00  0.00    +0.165 A 
ATOM     24  N   UNL     1      -5.906   3.702  -0.021  0.00  0.00    -0.152 NA
ENDBRANCH  16  24
ENDBRANCH   1  16
TORSDOF 3
