REMARK  Name = ZINC05589024
REMARK  2 active torsions:
REMARK  status: ('A' for Active; 'I' for Inactive)
REMARK    1  A    between atoms: C_3  and  C_8
REMARK    2  A    between atoms: C_21  and  N_24
REMARK                            x       y       z     vdW  Elec       q    Type
REMARK                         _______ _______ _______ _____ _____    ______ ____
ROOT
ATOM      1  C   UNL     1       0.145   1.034   0.017  0.00  0.00    +0.105 C 
ATOM      2  C   UNL     1      -0.443   1.754   1.220  0.00  0.00    +0.029 C 
ATOM      3  C   UNL     1      -1.967   1.501   1.309  0.00  0.00    +0.033 C 
ATOM      4  C   UNL     1      -2.493   2.773   1.947  0.00  0.00    -0.030 C 
ATOM      5  C   UNL     1      -1.645   3.756   1.775  0.00  0.00    -0.023 C 
ATOM      6  C   UNL     1      -0.428   3.281   0.997  0.00  0.00    +0.049 C 
ATOM      7  C   UNL     1      -0.643   3.623  -0.454  0.00  0.00    -0.017 A 
ATOM      8  C   UNL     1      -0.737   4.967  -0.790  0.00  0.00    +0.006 A 
ATOM      9  C   UNL     1      -0.933   5.351  -2.101  0.00  0.00    +0.003 A 
ATOM     10  C   UNL     1      -1.037   4.394  -3.094  0.00  0.00    +0.034 A 
ATOM     11  C   UNL     1      -0.944   3.057  -2.770  0.00  0.00    +0.147 A 
ATOM     12  C   UNL     1      -0.748   2.666  -1.445  0.00  0.00    +0.062 A 
ATOM     13  N   UNL     1      -0.669   1.301  -1.171  0.00  0.00    -0.335 N 
ATOM     14  H   UNL     1      -0.321   0.792  -1.969  0.00  0.00    +0.147 HD
ENDROOT
BRANCH   1  17
ATOM     15  C   UNL     1       3.368   1.964  -1.717  0.00  0.00    +0.001 A 
ATOM     16  C   UNL     1       2.079   1.512  -1.498  0.00  0.00    +0.005 A 
ATOM     17  C   UNL     1       1.551   1.522  -0.221  0.00  0.00    -0.026 A 
ATOM     18  C   UNL     1       2.314   1.974   0.840  0.00  0.00    +0.020 A 
ATOM     19  C   UNL     1       3.604   2.421   0.622  0.00  0.00    +0.018 A 
ATOM     20  C   UNL     1       4.131   2.416  -0.657  0.00  0.00    +0.015 A 
ATOM     21 BR   UNL     1       4.649   3.039   2.072  0.00  0.00    -0.050 Br
ENDBRANCH   1  17
BRANCH  11  22
ATOM     22  N   UNL     1      -1.054   2.032  -3.832  0.00  0.00    +0.058 N 
ATOM     23  O   UNL     1      -0.566   2.237  -4.929  0.00  0.00    -0.126 OA
ATOM     24  O   UNL     1      -1.632   0.984  -3.608  0.00  0.00    -0.126 OA
ENDBRANCH  11  22
TORSDOF 2
