REMARK  Name = ZINC16215738
REMARK  8 active torsions:
REMARK  status: ('A' for Active; 'I' for Inactive)
REMARK    1  A    between atoms: C_1  and  O_2
REMARK    2  A    between atoms: O_2  and  C_3
REMARK    3  A    between atoms: C_6  and  C_13
REMARK    4  A    between atoms: C_7  and  O_11
REMARK    5  A    between atoms: C_8  and  O_9
REMARK    6  A    between atoms: O_9  and  C_10
REMARK    7  A    between atoms: O_11  and  C_12
REMARK    8  A    between atoms: N_28  and  C_29
REMARK                            x       y       z     vdW  Elec       q    Type
REMARK                         _______ _______ _______ _____ _____    ______ ____
ROOT
ATOM      1  C   UNL     1      -0.920   5.774  -0.498  0.00  0.00    +0.202 C 
ATOM      2  N   UNL     1       0.136   4.857  -0.058  0.00  0.00    -0.306 N 
ATOM      3  C   UNL     1       0.108   3.542  -0.499  0.00  0.00    +0.133 A 
ATOM      4  C   UNL     1      -1.158   2.966  -0.775  0.00  0.00    +0.078 A 
ATOM      5  C   UNL     1      -1.239   1.647  -1.183  0.00  0.00    +0.026 A 
ATOM      6  C   UNL     1      -0.037   0.926  -1.317  0.00  0.00    +0.001 A 
ATOM      7  C   UNL     1      -0.040  -0.418  -1.725  0.00  0.00    +0.010 A 
ATOM      8  C   UNL     1       1.140  -1.085  -1.857  0.00  0.00    +0.001 A 
ATOM      9  C   UNL     1       2.351  -0.450  -1.591  0.00  0.00    +0.002 A 
ATOM     10  C   UNL     1       2.390   0.851  -1.191  0.00  0.00    +0.028 A 
ATOM     11  C   UNL     1       1.194   1.573  -1.042  0.00  0.00    +0.073 A 
ATOM     12  N   UNL     1       1.215   2.852  -0.643  0.00  0.00    -0.231 NA
ATOM     13  C   UNL     1      -2.364   3.800  -0.628  0.00  0.00    +0.256 C 
ATOM     14  O   UNL     1      -3.470   3.300  -0.700  0.00  0.00    -0.269 OA
ATOM     15  N   UNL     1      -2.228   5.125  -0.413  0.00  0.00    -0.244 N 
ATOM     16  H   UNL     1       0.933   5.216   0.610  0.00  0.00    +0.150 HD
ENDROOT
BRANCH   1  20
ATOM     17  C   UNL     1      -0.188   6.948  -4.547  0.00  0.00    +0.165 A 
ATOM     18  C   UNL     1      -1.487   6.755  -4.100  0.00  0.00    +0.050 A 
ATOM     19  C   UNL     1      -1.720   6.371  -2.793  0.00  0.00    +0.014 A 
ATOM     20  C   UNL     1      -0.661   6.187  -1.923  0.00  0.00    +0.037 A 
ATOM     21  C   UNL     1       0.640   6.378  -2.363  0.00  0.00    +0.172 A 
ATOM     22  C   UNL     1       0.879   6.759  -3.678  0.00  0.00    +0.204 A 
BRANCH  17  24
ATOM     23  C   UNL     1      -1.105   7.497  -6.672  0.00  0.00    +0.277 C 
ATOM     24  O   UNL     1       0.040   7.321  -5.835  0.00  0.00    -0.491 OA
ENDBRANCH  17  24
BRANCH  22  25
ATOM     25  O   UNL     1       2.155   6.947  -4.113  0.00  0.00    -0.488 OA
ATOM     26  C   UNL     1       2.805   5.828  -4.720  0.00  0.00    +0.277 C 
ENDBRANCH  22  25
BRANCH  21  27
ATOM     27  O   UNL     1       1.682   6.191  -1.508  0.00  0.00    -0.491 OA
ATOM     28  C   UNL     1       2.192   7.349  -0.844  0.00  0.00    +0.277 C 
ENDBRANCH  21  27
ENDBRANCH   1  20
BRANCH  15  29
ATOM     29  C   UNL     1      -3.357   5.890  -0.104  0.00  0.00    +0.039 A 
ATOM     30  C   UNL     1      -3.402   6.619   1.077  0.00  0.00    +0.023 A 
ATOM     31  C   UNL     1      -4.517   7.377   1.377  0.00  0.00    +0.002 A 
ATOM     32  C   UNL     1      -5.591   7.403   0.507  0.00  0.00    +0.000 A 
ATOM     33  C   UNL     1      -5.552   6.675  -0.668  0.00  0.00    +0.002 A 
ATOM     34  C   UNL     1      -4.439   5.918  -0.976  0.00  0.00    +0.023 A 
ENDBRANCH  15  29
TORSDOF 5
