REMARK  Name = ZINC21007735
REMARK  4 active torsions:
REMARK  status: ('A' for Active; 'I' for Inactive)
REMARK    1  A    between atoms: C_7  and  C_10
REMARK    2  A    between atoms: C_10  and  C_11
REMARK    3  A    between atoms: N_13  and  C_14
REMARK    4  A    between atoms: C_19  and  N_20
REMARK                            x       y       z     vdW  Elec       q    Type
REMARK                         _______ _______ _______ _____ _____    ______ ____
ROOT
ATOM      1  C   UNL     1      -0.016   1.343   0.013  0.00  0.00    +0.223 C 
ATOM      2  O   UNL     1      -1.074   1.936   0.017  0.00  0.00    -0.275 OA
ATOM      3  N   UNL     1       0.002  -0.004   0.002  0.00  0.00    -0.284 N 
ATOM      4  H   UNL     1       0.957  -0.541  -0.096  0.00  0.00    +0.155 HD
ENDROOT
BRANCH   3   5
ATOM      5  C   UNL     1      -1.196  -0.722   0.115  0.00  0.00    +0.056 A 
ATOM      6  C   UNL     1      -2.296  -0.146   0.734  0.00  0.00    +0.045 A 
ATOM      7  C   UNL     1      -3.478  -0.856   0.844  0.00  0.00    +0.043 A 
ATOM      8  C   UNL     1      -3.567  -2.141   0.338  0.00  0.00    +0.022 A 
ATOM      9  C   UNL     1      -2.475  -2.722  -0.279  0.00  0.00    +0.026 A 
ATOM     10  C   UNL     1      -1.288  -2.015  -0.399  0.00  0.00    +0.046 A 
ATOM     11 CL   UNL     1      -4.853  -0.133   1.619  0.00  0.00    -0.083 Cl
BRANCH  10  12
ATOM     12  N   UNL     1      -0.184  -2.599  -1.029  0.00  0.00    -0.357 N 
ATOM     13  H   UNL     1      -0.258  -3.619  -1.434  0.00  0.00    +0.142 HD
ATOM     14  H   UNL     1       0.758  -2.039  -1.120  0.00  0.00    +0.142 HD
ENDBRANCH  10  12
ENDBRANCH   3   5
BRANCH   1  15
ATOM     15  C   UNL     1       1.279   2.114   0.012  0.00  0.00    +0.155 C 
BRANCH  15  22
ATOM     16  C   UNL     1       0.672   5.209   3.470  0.00  0.00    +0.001 A 
ATOM     17  C   UNL     1       0.414   6.494   3.013  0.00  0.00    +0.004 A 
ATOM     18  C   UNL     1       0.357   6.759   1.662  0.00  0.00    +0.049 A 
ATOM     19  C   UNL     1       0.559   5.733   0.747  0.00  0.00    +0.168 A 
ATOM     20  C   UNL     1       0.819   4.434   1.214  0.00  0.00    +0.045 A 
ATOM     21  C   UNL     1       0.874   4.186   2.587  0.00  0.00    +0.013 A 
ATOM     22  C   UNL     1       0.984   3.592   0.025  0.00  0.00    +0.100 A 
ATOM     23  N   UNL     1       0.834   4.354  -1.014  0.00  0.00    -0.082 NA
ATOM     24  O   UNL     1       0.565   5.679  -0.600  0.00  0.00    -0.354 OA
ENDBRANCH  15  22
ENDBRANCH   1  15
TORSDOF 4
