REMARK  Name = ZINC21800343
REMARK  5 active torsions:
REMARK  status: ('A' for Active; 'I' for Inactive)
REMARK    1  A    between atoms: C_1  and  C_2
REMARK    2  A    between atoms: C_7  and  C_23
REMARK    3  A    between atoms: C_9  and  N_10
REMARK    4  A    between atoms: N_10  and  C_11
REMARK    5  A    between atoms: C_16  and  N_17
REMARK                            x       y       z     vdW  Elec       q    Type
REMARK                         _______ _______ _______ _____ _____    ______ ____
ROOT
ATOM      1  C   UNL     1       4.283  -0.112   0.139  0.00  0.00    +0.049 A 
ATOM      2  C   UNL     1       5.048   0.262  -0.956  0.00  0.00    +0.025 A 
ATOM      3  C   UNL     1       6.427   0.216  -0.883  0.00  0.00    +0.002 A 
ATOM      4  C   UNL     1       7.049  -0.202   0.280  0.00  0.00    +0.002 A 
ATOM      5  C   UNL     1       6.294  -0.577   1.376  0.00  0.00    +0.025 A 
ATOM      6  C   UNL     1       4.910  -0.529   1.313  0.00  0.00    +0.057 A 
ENDROOT
BRANCH   6   7
ATOM      7  N   UNL     1       4.143  -0.903   2.425  0.00  0.00    -0.270 N 
ATOM      8  C   UNL     1       3.667  -2.268   2.682  0.00  0.00    +0.114 C 
ATOM      9  C   UNL     1       3.273  -2.290   4.177  0.00  0.00    +0.029 C 
ATOM     10  C   UNL     1       2.943  -0.802   4.436  0.00  0.00    +0.098 C 
ATOM     11  C   UNL     1       3.743  -0.057   3.390  0.00  0.00    +0.220 C 
ATOM     12  O   UNL     1       3.986   1.131   3.417  0.00  0.00    -0.275 OA
ENDBRANCH   6   7
BRANCH   1  13
ATOM     13  N   UNL     1       2.886  -0.066   0.068  0.00  0.00    -0.339 N 
ATOM     14  H   UNL     1       2.280  -0.452   0.901  0.00  0.00    +0.146 HD
BRANCH  13  21
ATOM     15  C   UNL     1       2.013   2.695   0.048  0.00  0.00    +0.009 C 
ATOM     16  C   UNL     1       1.252   1.590  -0.687  0.00  0.00    +0.006 C 
ATOM     17  C   UNL     1       0.196   0.992   0.245  0.00  0.00    +0.005 C 
ATOM     18  C   UNL     1      -0.565  -0.113  -0.489  0.00  0.00    +0.001 C 
ATOM     19  C   UNL     1       0.414  -1.208  -0.919  0.00  0.00    +0.005 C 
ATOM     20  C   UNL     1       1.470  -0.610  -1.851  0.00  0.00    +0.006 C 
ATOM     21  C   UNL     1       2.231   0.495  -1.116  0.00  0.00    +0.076 C 
ATOM     22  C   UNL     1       2.449  -1.705  -2.280  0.00  0.00    +0.009 C 
ENDBRANCH  13  21
ENDBRANCH   1  13
TORSDOF 3
