REMARK  Name = ZINC39591855
REMARK  6 active torsions:
REMARK  status: ('A' for Active; 'I' for Inactive)
REMARK    1  A    between atoms: C_1  and  C_2
REMARK    2  A    between atoms: C_4  and  C_8
REMARK    3  A    between atoms: C_16  and  C_18
REMARK    4  A    between atoms: C_21  and  N_24
REMARK    5  A    between atoms: N_24  and  C_25
REMARK    6  A    between atoms: N_24  and  C_26
REMARK                            x       y       z     vdW  Elec       q    Type
REMARK                         _______ _______ _______ _____ _____    ______ ____
ROOT
ATOM      1  C   UNL     1      -0.988  -2.942  -1.264  0.00  0.00    +0.206 C 
ATOM      2  N   UNL     1      -0.346  -2.336  -2.455  0.00  0.00    -0.231 NA
ATOM      3  N   UNL     1       0.394  -3.417  -3.128  0.00  0.00    -0.224 NA
ATOM      4  C   UNL     1      -0.316  -4.633  -2.681  0.00  0.00    +0.240 C 
ATOM      5  N   UNL     1      -0.510  -4.343  -1.222  0.00  0.00    -0.206 N 
ATOM      6  N   UNL     1      -0.123  -5.375  -0.396  0.00  0.00    -0.173 NA
ATOM      7  C   UNL     1       0.628  -6.359  -0.799  0.00  0.00    +0.125 C 
ATOM      8  S   UNL     1       0.812  -6.072  -2.586  0.00  0.00    -0.063 S 
ATOM      9  H   UNL     1      -1.036  -1.932  -3.071  0.00  0.00    +0.143 HD
ATOM     10  H   UNL     1       1.359  -3.433  -2.834  0.00  0.00    +0.144 HD
ENDROOT
BRANCH   1  14
ATOM     11  C   UNL     1      -0.070   1.497   0.044  0.00  0.00    +0.067 C 
ATOM     12  C   UNL     1      -0.040  -0.010   0.028  0.00  0.00    +0.058 C 
ATOM     13  C   UNL     1      -1.124  -0.789   0.015  0.00  0.00    +0.029 C 
ATOM     14  C   UNL     1      -0.560  -2.199   0.003  0.00  0.00    +0.190 C 
ATOM     15  N   UNL     1       0.896  -1.973   0.012  0.00  0.00    -0.177 NA
ATOM     16  N   UNL     1       1.087  -0.755   0.020  0.00  0.00    -0.159 NA
ENDBRANCH   1  14
BRANCH   7  17
ATOM     17  C   UNL     1       1.195  -7.461   0.007  0.00  0.00    +0.009 A 
ATOM     18  C   UNL     1       1.992  -8.434  -0.601  0.00  0.00    +0.012 A 
ATOM     19  C   UNL     1       2.518  -9.460   0.153  0.00  0.00    +0.024 A 
ATOM     20  C   UNL     1       2.258  -9.528   1.517  0.00  0.00    +0.029 A 
ATOM     21  C   UNL     1       1.465  -8.560   2.125  0.00  0.00    +0.024 A 
ATOM     22  C   UNL     1       0.940  -7.529   1.378  0.00  0.00    +0.012 A 
BRANCH  20  23
ATOM     23  N   UNL     1       2.792 -10.569   2.278  0.00  0.00    -0.336 N 
ATOM     24  C   UNL     1       3.522 -11.656   1.621  0.00  0.00    +0.129 C 
ATOM     25  C   UNL     1       2.625 -10.573   3.733  0.00  0.00    +0.129 C 
ENDBRANCH  20  23
ENDBRANCH   7  17
TORSDOF 3
