REMARK  Name = ZINC09128877
REMARK  5 active torsions:
REMARK  status: ('A' for Active; 'I' for Inactive)
REMARK    1  A    between atoms: C_1  and  O_2
REMARK    2  A    between atoms: O_2  and  C_3
REMARK    3  A    between atoms: C_8  and  N_9
REMARK    4  A    between atoms: C_10  and  C_12
REMARK    5  A    between atoms: C_22  and  C_25
REMARK                            x       y       z     vdW  Elec       q    Type
REMARK                         _______ _______ _______ _____ _____    ______ ____
ROOT
ATOM      1  C   UNL     1      -0.648  -4.950   0.807  0.00  0.00    +0.119 C 
ATOM      2  C   UNL     1      -0.002  -4.716   2.173  0.00  0.00    +0.115 C 
ATOM      3  C   UNL     1       1.317  -5.442   2.231  0.00  0.00    +0.237 C 
ATOM      4  N   UNL     1       1.450  -6.647   1.692  0.00  0.00    -0.185 NA
ATOM      5  C   UNL     1       0.538  -7.172   0.896  0.00  0.00    +0.042 C 
ATOM      6  C   UNL     1      -0.542  -6.412   0.440  0.00  0.00    +0.026 C 
ATOM      7  C   UNL     1      -1.508  -6.959  -0.333  0.00  0.00    +0.162 C 
ATOM      8  O   UNL     1      -2.543  -6.193  -0.723  0.00  0.00    -0.292 OA
ATOM      9  C   UNL     1      -1.462  -8.397  -0.768  0.00  0.00    +0.088 C 
ATOM     10  C   UNL     1      -0.687  -9.224   0.260  0.00  0.00    +0.032 C 
ATOM     11  C   UNL     1       0.699  -8.603   0.444  0.00  0.00    +0.062 C 
ATOM     12  O   UNL     1       2.268  -4.918   2.776  0.00  0.00    -0.274 OA
ENDROOT
BRANCH  10  13
ATOM     13  C   UNL     1      -0.548 -10.642  -0.233  0.00  0.00    -0.044 A 
ATOM     14  C   UNL     1       0.108 -10.898  -1.423  0.00  0.00    +0.004 A 
ATOM     15  C   UNL     1       0.236 -12.198  -1.875  0.00  0.00    +0.000 A 
ATOM     16  C   UNL     1      -0.292 -13.241  -1.138  0.00  0.00    +0.000 A 
ATOM     17  C   UNL     1      -0.948 -12.985   0.051  0.00  0.00    +0.000 A 
ATOM     18  C   UNL     1      -1.072 -11.685   0.506  0.00  0.00    +0.004 A 
ENDBRANCH  10  13
BRANCH   1  20
ATOM     19  N   UNL     1       0.095  -2.777  -0.112  0.00  0.00    -0.282 N 
ATOM     20  C   UNL     1       0.060  -4.119  -0.232  0.00  0.00    +0.225 C 
ATOM     21  O   UNL     1       0.599  -4.658  -1.175  0.00  0.00    -0.275 OA
ATOM     22  H   UNL     1      -0.279  -2.350   0.675  0.00  0.00    +0.155 HD
BRANCH  19  28
ATOM     23  C   UNL     1       0.142  -0.747  -1.429  0.00  0.00    +0.141 A 
ATOM     24  C   UNL     1       0.720   0.022  -2.427  0.00  0.00    +0.049 A 
ATOM     25  C   UNL     1       1.816  -0.455  -3.120  0.00  0.00    +0.024 A 
ATOM     26  C   UNL     1       2.340  -1.700  -2.822  0.00  0.00    +0.043 A 
ATOM     27  C   UNL     1       1.769  -2.474  -1.827  0.00  0.00    +0.047 A 
ATOM     28  C   UNL     1       0.672  -1.998  -1.124  0.00  0.00    +0.077 A 
ATOM     29 CL   UNL     1       3.717  -2.294  -3.697  0.00  0.00    -0.083 Cl
BRANCH  23  31
ATOM     30  C   UNL     1      -1.425   1.014  -1.113  0.00  0.00    +0.277 C 
ATOM     31  O   UNL     1      -0.936  -0.278  -0.746  0.00  0.00    -0.493 OA
ENDBRANCH  23  31
ENDBRANCH  19  28
ENDBRANCH   1  20
TORSDOF 4
