REMARK  Name = ZINC35368298
REMARK  3 active torsions:
REMARK  status: ('A' for Active; 'I' for Inactive)
REMARK    1  A    between atoms: C_5  and  C_6
REMARK    2  A    between atoms: N_11  and  C_14
REMARK    3  A    between atoms: C_19  and  N_20
REMARK                            x       y       z     vdW  Elec       q    Type
REMARK                         _______ _______ _______ _____ _____    ______ ____
ROOT
ATOM      1  C   UNL     1      -1.123  -0.943   0.008  0.00  0.00    +0.253 C 
ATOM      2  O   UNL     1      -2.260  -0.529   0.141  0.00  0.00    -0.269 OA
ATOM      3  N   UNL     1      -0.896  -2.267  -0.103  0.00  0.00    -0.294 N 
ATOM      4  C   UNL     1       0.476  -2.792  -0.115  0.00  0.00    +0.127 C 
ATOM      5  C   UNL     1       0.609  -3.843   0.995  0.00  0.00    +0.124 C 
ATOM      6  N   UNL     1      -0.512  -4.787   0.884  0.00  0.00    -0.325 N 
ATOM      7  C   UNL     1      -1.885  -4.261   0.896  0.00  0.00    +0.124 C 
ATOM      8  C   UNL     1      -2.017  -3.211  -0.208  0.00  0.00    +0.127 C 
ENDROOT
BRANCH   6   9
ATOM      9  C   UNL     1      -0.278  -6.157   0.769  0.00  0.00    +0.054 A 
ATOM     10  C   UNL     1      -0.193  -6.965   1.900  0.00  0.00    +0.042 A 
ATOM     11  C   UNL     1       0.040  -8.316   1.744  0.00  0.00    +0.084 A 
ATOM     12  N   UNL     1       0.181  -8.848   0.545  0.00  0.00    -0.365 N 
ATOM     13  C   UNL     1       0.109  -8.120  -0.554  0.00  0.00    +0.107 A 
ATOM     14  C   UNL     1      -0.128  -6.757  -0.487  0.00  0.00    +0.062 A 
ATOM     15  H   UNL     1       0.344  -9.801   0.469  0.00  0.00    +0.165 HD
BRANCH  14  16
ATOM     16  N   UNL     1      -0.210  -5.991  -1.656  0.00  0.00    -0.355 N 
ATOM     17  H   UNL     1      -0.373  -5.036  -1.600  0.00  0.00    +0.142 HD
ATOM     18  H   UNL     1      -0.105  -6.415  -2.522  0.00  0.00    +0.142 HD
ENDBRANCH  14  16
ENDBRANCH   6   9
BRANCH   1  23
ATOM     19  C   UNL     1       0.077   1.287   0.476  0.00  0.00    +0.022 A 
ATOM     20  C   UNL     1       1.275   1.932   0.286  0.00  0.00    +0.024 A 
ATOM     21  C   UNL     1       2.276   1.286  -0.365  0.00  0.00    +0.056 A 
ATOM     22  S   UNL     1       1.621  -0.216  -0.738  0.00  0.00    -0.077 S 
ATOM     23  C   UNL     1      -0.001  -0.002  -0.030  0.00  0.00    +0.075 A 
ATOM     24 BR   UNL     1       4.010   1.928  -0.761  0.00  0.00    -0.043 Br
ENDBRANCH   1  23
TORSDOF 3
