REMARK  Name = ZINC13064797
REMARK  15 active torsions:
REMARK  status: ('A' for Active; 'I' for Inactive)
REMARK    1  A    between atoms: C_1  and  C_2
REMARK    2  A    between atoms: C_2  and  C_3
REMARK    3  A    between atoms: C_3  and  C_5
REMARK    4  A    between atoms: C_3  and  N_68
REMARK    5  A    between atoms: N_9  and  C_10
REMARK    6  A    between atoms: C_10  and  C_11
REMARK    7  A    between atoms: C_10  and  C_12
REMARK    8  A    between atoms: C_10  and  C_13
REMARK    9  A    between atoms: C_13  and  C_14
REMARK   10  A    between atoms: C_15  and  C_16
REMARK   11  A    between atoms: C_15  and  N_68
REMARK   12  A    between atoms: C_21  and  C_22
REMARK   13  A    between atoms: C_21  and  N_68
REMARK   14  A    between atoms: C_25  and  C_35
REMARK   15  A    between atoms: C_27  and  C_34
REMARK                            x       y       z     vdW  Elec       q    Type
REMARK                         _______ _______ _______ _____ _____    ______ ____
ROOT
ATOM      1  N   UNL     1      -1.494   3.191   0.489  0.00  0.00    +0.392 N 
ATOM      2  H   UNL     1      -0.759   3.648   1.041  0.00  0.00    -0.080 HD
ENDROOT
BRANCH   1   3
ATOM      3  C   UNL     1      -2.796   3.809   0.818  0.00  0.00    +0.003 C 
BRANCH   3   4
ATOM      4  C   UNL     1      -2.844   4.071   2.301  0.00  0.00    +0.139 A 
ATOM      5  N   UNL     1      -2.422   3.273   3.251  0.00  0.00    -0.115 NA
ATOM      6  N   UNL     1      -2.636   3.852   4.382  0.00  0.00    -0.023 NA
ATOM      7  N   UNL     1      -3.184   4.999   4.178  0.00  0.00    -0.043 NA
ATOM      8  N   UNL     1      -3.324   5.173   2.907  0.00  0.00    -0.225 N 
BRANCH   8   9
ATOM      9  C   UNL     1      -3.899   6.348   2.248  0.00  0.00    +0.061 C 
ATOM     10  C   UNL     1      -2.817   7.056   1.430  0.00  0.00    +0.036 C 
ATOM     11  C   UNL     1      -5.034   5.907   1.320  0.00  0.00    +0.036 C 
BRANCH   9  12
ATOM     12  C   UNL     1      -4.449   7.308   3.305  0.00  0.00    +0.026 C 
ATOM     13  C   UNL     1      -5.051   8.535   2.616  0.00  0.00    +0.006 C 
ENDBRANCH   9  12
ENDBRANCH   8   9
ENDBRANCH   3   4
BRANCH   3  15
ATOM     14  C   UNL     1      -3.987   2.730  -1.095  0.00  0.00    +0.002 C 
ATOM     15  C   UNL     1      -3.944   2.876   0.427  0.00  0.00    -0.011 C 
ENDBRANCH   3  15
ENDBRANCH   1   3
BRANCH   1  16
ATOM     16  C   UNL     1      -1.520   1.751   0.821  0.00  0.00    -0.034 C 
BRANCH  16  17
ATOM     17  C   UNL     1      -0.101   1.246   0.892  0.00  0.00    -0.027 A 
ATOM     18  C   UNL     1       0.720   1.157   1.966  0.00  0.00    +0.009 A 
ATOM     19  C   UNL     1       1.997   0.655   1.794  0.00  0.00    +0.008 A 
ATOM     20  C   UNL     1       2.389   0.268   0.556  0.00  0.00    +0.045 A 
ATOM     21  S   UNL     1       0.930   0.604  -0.416  0.00  0.00    -0.103 S 
ENDBRANCH  16  17
ENDBRANCH   1  16
BRANCH   1  22
ATOM     22  C   UNL     1      -1.197   3.373  -0.948  0.00  0.00    -0.036 C 
BRANCH  22  23
ATOM     23  C   UNL     1      -0.677   4.771  -1.160  0.00  0.00    +0.001 A 
ATOM     24  C   UNL     1       0.657   5.010  -1.117  0.00  0.00    +0.017 A 
ATOM     25  C   UNL     1       1.130   6.378  -1.333  0.00  0.00    +0.002 A 
ATOM     26  C   UNL     1       2.494   6.686  -1.302  0.00  0.00    -0.041 A 
ATOM     27  C   UNL     1       2.903   7.973  -1.508  0.00  0.00    +0.007 A 
ATOM     28  C   UNL     1       1.977   8.979  -1.748  0.00  0.00    -0.048 A 
ATOM     29  C   UNL     1       0.628   8.699  -1.783  0.00  0.00    +0.029 A 
ATOM     30  C   UNL     1       0.188   7.395  -1.577  0.00  0.00    +0.050 A 
ATOM     31  N   UNL     1      -1.155   7.087  -1.607  0.00  0.00    -0.322 N 
ATOM     32  H   UNL     1      -1.803   7.789  -1.775  0.00  0.00    +0.169 HD
ATOM     33  C   UNL     1      -1.581   5.827  -1.407  0.00  0.00    +0.251 A 
ATOM     34  O   UNL     1      -2.776   5.591  -1.441  0.00  0.00    -0.268 OA
ATOM     35  C   UNL     1       2.452  10.391  -1.972  0.00  0.00    +0.044 C 
ATOM     36  C   UNL     1       3.508   5.602  -1.042  0.00  0.00    +0.044 C 
ENDBRANCH  22  23
ENDBRANCH   1  22
TORSDOF 9
