REMARK  Name = ZINC11894932
REMARK  9 active torsions:
REMARK  status: ('A' for Active; 'I' for Inactive)
REMARK    1  A    between atoms: C_1  and  C_2
REMARK    2  A    between atoms: C_3  and  C_19
REMARK    3  A    between atoms: C_5  and  C_7
REMARK    4  A    between atoms: C_12  and  O_13
REMARK    5  A    between atoms: O_13  and  C_14
REMARK    6  A    between atoms: C_14  and  C_15
REMARK    7  A    between atoms: C_15  and  N_37
REMARK    8  A    between atoms: C_16  and  N_37
REMARK    9  A    between atoms: C_17  and  N_37
REMARK                            x       y       z     vdW  Elec       q    Type
REMARK                         _______ _______ _______ _____ _____    ______ ____
ROOT
ATOM      1  C   UNL     1      -0.948   1.393   3.567  0.00  0.00    +0.050 A 
ATOM      2  C   UNL     1      -0.416   1.000   4.796  0.00  0.00    +0.029 A 
ATOM      3  C   UNL     1       0.772   0.300   4.840  0.00  0.00    +0.019 A 
ATOM      4  C   UNL     1       1.440  -0.014   3.668  0.00  0.00    +0.019 A 
ATOM      5  C   UNL     1       0.920   0.363   2.445  0.00  0.00    +0.047 A 
ATOM      6  C   UNL     1      -0.269   1.072   2.384  0.00  0.00    +0.130 A 
ATOM      7 BR   UNL     1       1.492  -0.231   6.506  0.00  0.00    -0.050 Br
ENDROOT
BRANCH   1  12
ATOM      8  C   UNL     1      -4.975   3.631   5.453  0.00  0.00    +0.067 C 
ATOM      9  C   UNL     1      -4.101   3.193   4.306  0.00  0.00    +0.060 A 
ATOM     10  C   UNL     1      -4.446   3.480   2.990  0.00  0.00    +0.123 A 
ATOM     11  S   UNL     1      -3.074   2.732   2.122  0.00  0.00    -0.060 S 
ATOM     12  C   UNL     1      -2.220   2.141   3.513  0.00  0.00    +0.113 A 
ATOM     13  N   UNL     1      -2.999   2.527   4.515  0.00  0.00    -0.243 NA
BRANCH  10  14
ATOM     14  C   UNL     1      -5.608   4.195   2.463  0.00  0.00    +0.395 C 
ATOM     15  O   UNL     1      -6.447   4.637   3.225  0.00  0.00    -0.240 OA
ATOM     16  O   UNL     1      -5.749   4.365   1.132  0.00  0.00    -0.240 OA
ENDBRANCH  10  14
ENDBRANCH   1  12
BRANCH   6  17
ATOM     17  O   UNL     1      -0.778   1.449   1.183  0.00  0.00    -0.493 OA
BRANCH  17  18
ATOM     18  C   UNL     1      -0.031   1.086   0.020  0.00  0.00    +0.210 C 
BRANCH  18  19
ATOM     19  C   UNL     1      -0.754   1.593  -1.230  0.00  0.00    -0.038 C 
BRANCH  19  22
ATOM     20  C   UNL     1       0.542   3.606  -1.590  0.00  0.00    -0.096 C 
ATOM     21  C   UNL     1      -1.823   3.579  -2.111  0.00  0.00    -0.096 C 
ATOM     22  N   UNL     1      -0.779   3.070  -1.197  0.00  0.00    +0.378 N 
ATOM     23  H   UNL     1      -0.993   3.379  -0.241  0.00  0.00    -0.082 HD
ENDBRANCH  19  22
ENDBRANCH  18  19
ENDBRANCH  17  18
ENDBRANCH   6  17
TORSDOF 6
