REMARK  Name = ZINC09580945
REMARK  11 active torsions:
REMARK  status: ('A' for Active; 'I' for Inactive)
REMARK    1  A    between atoms: C_1  and  C_2
REMARK    2  A    between atoms: C_5  and  N_8
REMARK    3  A    between atoms: N_8  and  C_9
REMARK    4  A    between atoms: C_10  and  C_36
REMARK    5  A    between atoms: C_15  and  S_18
REMARK    6  A    between atoms: S_18  and  C_19
REMARK    7  A    between atoms: C_19  and  C_20
REMARK    8  A    between atoms: N_22  and  C_23
REMARK    9  A    between atoms: C_28  and  C_29
REMARK   10  A    between atoms: C_32  and  C_34
REMARK   11  A    between atoms: C_32  and  C_35
REMARK                            x       y       z     vdW  Elec       q    Type
REMARK                         _______ _______ _______ _____ _____    ______ ____
ROOT
ATOM      1  C   UNL     1      -2.973  -3.499   1.044  0.00  0.00    +0.129 A 
ATOM      2  C   UNL     1      -3.156  -2.242   0.484  0.00  0.00    +0.094 A 
ATOM      3  C   UNL     1      -2.032  -1.482   0.057  0.00  0.00    -0.015 A 
ATOM      4  C   UNL     1      -0.787  -1.987   0.204  0.00  0.00    +0.027 A 
ATOM      5  C   UNL     1      -0.617  -3.272   0.775  0.00  0.00    +0.169 A 
ATOM      6  N   UNL     1      -1.711  -4.003   1.184  0.00  0.00    -0.256 N 
ATOM      7  C   UNL     1      -1.211  -5.176   1.679  0.00  0.00    +0.198 A 
ATOM      8  N   UNL     1       0.096  -5.120   1.562  0.00  0.00    -0.122 NA
ATOM      9  N   UNL     1       0.450  -4.004   1.031  0.00  0.00    -0.128 NA
ATOM     10  C   UNL     1       0.437  -1.216  -0.216  0.00  0.00    +0.199 C 
ATOM     11  O   UNL     1       0.076  -0.141  -1.083  0.00  0.00    -0.369 OA
ATOM     12  C   UNL     1      -0.968   0.682  -0.548  0.00  0.00    +0.068 C 
ATOM     13  C   UNL     1      -2.268  -0.125  -0.554  0.00  0.00    +0.071 C 
ATOM     14  C   UNL     1      -1.134   1.932  -1.415  0.00  0.00    +0.041 C 
ATOM     15  C   UNL     1      -0.621   1.090   0.884  0.00  0.00    +0.041 C 
ENDROOT
BRANCH   1  16
ATOM     16  N   UNL     1      -4.058  -4.234   1.457  0.00  0.00    -0.299 N 
ATOM     17  H   UNL     1      -4.393  -4.137   2.362  0.00  0.00    +0.154 HD
BRANCH  16  22
ATOM     18  C   UNL     1      -6.575  -7.833  -2.131  0.00  0.00    +0.044 C 
ATOM     19  C   UNL     1      -5.906  -6.877  -1.178  0.00  0.00    -0.050 A 
ATOM     20  C   UNL     1      -6.453  -6.654   0.073  0.00  0.00    +0.005 A 
ATOM     21  C   UNL     1      -5.843  -5.778   0.949  0.00  0.00    +0.023 A 
ATOM     22  C   UNL     1      -4.678  -5.121   0.573  0.00  0.00    +0.032 A 
ATOM     23  C   UNL     1      -4.134  -5.344  -0.686  0.00  0.00    +0.023 A 
ATOM     24  C   UNL     1      -4.747  -6.225  -1.555  0.00  0.00    +0.005 A 
ENDBRANCH  16  22
ENDBRANCH   1  16
BRANCH   2  25
ATOM     25  C   UNL     1      -4.477  -1.710   0.336  0.00  0.00    +0.103 C 
ATOM     26  N   UNL     1      -5.525  -1.288   0.218  0.00  0.00    -0.191 NA
ENDBRANCH   2  25
BRANCH   7  27
ATOM     27  S   UNL     1      -2.145  -6.510   2.351  0.00  0.00    -0.076 S 
BRANCH  27  28
ATOM     28  C   UNL     1      -0.906  -7.794   2.676  0.00  0.00    +0.173 C 
BRANCH  28  29
ATOM     29  C   UNL     1      -1.594  -9.048   3.150  0.00  0.00    +0.227 C 
ATOM     30  O   UNL     1      -2.805  -9.107   3.165  0.00  0.00    -0.275 OA
ATOM     31  N   UNL     1      -0.863 -10.105   3.558  0.00  0.00    -0.285 N 
ATOM     32  H   UNL     1       0.102 -10.031   3.622  0.00  0.00    +0.155 HD
BRANCH  31  33
ATOM     33  C   UNL     1      -1.497 -11.308   3.888  0.00  0.00    +0.036 A 
ATOM     34  C   UNL     1      -2.775 -11.574   3.416  0.00  0.00    +0.023 A 
ATOM     35  C   UNL     1      -3.396 -12.764   3.739  0.00  0.00    +0.002 A 
ATOM     36  C   UNL     1      -2.749 -13.687   4.541  0.00  0.00    +0.000 A 
ATOM     37  C   UNL     1      -1.478 -13.423   5.017  0.00  0.00    +0.005 A 
ATOM     38  C   UNL     1      -0.850 -12.236   4.693  0.00  0.00    -0.029 A 
ATOM     39  C   UNL     1       0.535 -11.949   5.213  0.00  0.00    +0.045 C 
ENDBRANCH  31  33
ENDBRANCH  28  29
ENDBRANCH  27  28
ENDBRANCH   7  27
TORSDOF 7
