REMARK  Name = ZINC20611847
REMARK  11 active torsions:
REMARK  status: ('A' for Active; 'I' for Inactive)
REMARK    1  A    between atoms: C_1  and  C_2
REMARK    2  A    between atoms: C_2  and  N_3
REMARK    3  A    between atoms: N_6  and  C_9
REMARK    4  A    between atoms: C_9  and  C_10
REMARK    5  A    between atoms: C_11  and  O_32
REMARK    6  A    between atoms: C_19  and  C_22
REMARK    7  A    between atoms: C_20  and  C_21
REMARK    8  A    between atoms: C_25  and  O_30
REMARK    9  A    between atoms: C_27  and  O_28
REMARK   10  A    between atoms: O_28  and  C_29
REMARK   11  A    between atoms: O_30  and  C_31
REMARK                            x       y       z     vdW  Elec       q    Type
REMARK                         _______ _______ _______ _____ _____    ______ ____
ROOT
ATOM      1  C   UNL     1      -0.018   1.503   0.010  0.00  0.00    +0.051 A 
ATOM      2  C   UNL     1       1.171   2.212   0.003  0.00  0.00    +0.125 A 
ATOM      3  C   UNL     1       1.163   3.605   0.010  0.00  0.00    +0.046 A 
ATOM      4  C   UNL     1      -0.018   4.289   0.024  0.00  0.00    +0.015 A 
ATOM      5  C   UNL     1      -1.232   3.588   0.032  0.00  0.00    +0.022 A 
ATOM      6  C   UNL     1      -1.229   2.181   0.020  0.00  0.00    +0.147 A 
ATOM      7  O   UNL     1      -2.389   1.489   0.031  0.00  0.00    -0.421 OA
ATOM      8  C   UNL     1      -3.576   2.119   0.044  0.00  0.00    +0.345 A 
ATOM      9  O   UNL     1      -4.607   1.471   0.050  0.00  0.00    -0.244 OA
ATOM     10  C   UNL     1      -3.633   3.583   0.052  0.00  0.00    +0.074 A 
ATOM     11  C   UNL     1      -2.463   4.294   0.046  0.00  0.00    -0.025 A 
ATOM     12  C   UNL     1      -2.482   5.801   0.053  0.00  0.00    +0.045 C 
ENDROOT
BRANCH  10  13
ATOM     13  C   UNL     1      -4.938   4.284   0.067  0.00  0.00    +0.031 A 
ATOM     14  C   UNL     1      -5.564   4.621  -1.132  0.00  0.00    +0.016 A 
ATOM     15  C   UNL     1      -6.779   5.274  -1.114  0.00  0.00    +0.046 A 
ATOM     16  C   UNL     1      -7.382   5.596   0.095  0.00  0.00    +0.124 A 
ATOM     17  C   UNL     1      -6.766   5.263   1.292  0.00  0.00    +0.091 A 
ATOM     18  C   UNL     1      -5.548   4.604   1.285  0.00  0.00    +0.131 A 
BRANCH  18  19
ATOM     19  O   UNL     1      -4.946   4.274   2.457  0.00  0.00    -0.494 OA
ATOM     20  C   UNL     1      -5.627   4.633   3.661  0.00  0.00    +0.277 C 
ENDBRANCH  18  19
BRANCH  16  21
ATOM     21  O   UNL     1      -8.579   6.239   0.105  0.00  0.00    -0.495 OA
ATOM     22  C   UNL     1      -9.159   6.551  -1.163  0.00  0.00    +0.277 C 
ENDBRANCH  16  21
ENDBRANCH  10  13
BRANCH   2  23
ATOM     23  O   UNL     1       2.354   1.545  -0.012  0.00  0.00    -0.506 OA
ATOM     24  H   UNL     1       3.301   2.105  -0.018  0.00  0.00    +0.292 HD
ENDBRANCH   2  23
BRANCH   1  25
ATOM     25  C   UNL     1       0.002  -0.004   0.002  0.00  0.00    +0.126 C 
BRANCH  25  29
ATOM     26  N   UNL     1       1.009  -2.059   3.553  0.00  0.00    +0.381 N 
ATOM     27  C   UNL     1      -0.248  -2.419   2.882  0.00  0.00    -0.063 C 
ATOM     28  C   UNL     1      -0.196  -1.954   1.425  0.00  0.00    +0.066 C 
ATOM     29  N   UNL     1       0.022  -0.501   1.384  0.00  0.00    -0.301 NA
ATOM     30  C   UNL     1       1.279  -0.141   2.055  0.00  0.00    +0.066 C 
ATOM     31  C   UNL     1       1.227  -0.606   3.513  0.00  0.00    -0.063 C 
ATOM     32  H   UNL     1       1.835  -2.542   3.009  0.00  0.00    -0.082 HD
BRANCH  26  34
ATOM     33  C   UNL     1       2.433  -2.386   5.518  0.00  0.00    -0.017 C 
ATOM     34  C   UNL     1       1.029  -2.556   4.935  0.00  0.00    -0.082 C 
ENDBRANCH  26  34
ENDBRANCH  25  29
ENDBRANCH   1  25
TORSDOF 7
