REMARK  Name = ZINC03978227
REMARK  9 active torsions:
REMARK  status: ('A' for Active; 'I' for Inactive)
REMARK    1  A    between atoms: C_1  and  C_2
REMARK    2  A    between atoms: C_2  and  O_4
REMARK    3  A    between atoms: O_4  and  C_5
REMARK    4  A    between atoms: C_10  and  C_37
REMARK    5  A    between atoms: C_14  and  C_15
REMARK    6  A    between atoms: C_14  and  C_16
REMARK    7  A    between atoms: C_19  and  C_36
REMARK    8  A    between atoms: C_25  and  C_31
REMARK    9  A    between atoms: C_27  and  C_30
REMARK                            x       y       z     vdW  Elec       q    Type
REMARK                         _______ _______ _______ _____ _____    ______ ____
ROOT
ATOM      1  C   UNL     1      -1.659  -2.824  -0.663  0.00  0.00    +0.187 C 
ATOM      2  C   UNL     1      -1.816  -3.436  -2.036  0.00  0.00    +0.050 C 
ATOM      3  C   UNL     1      -3.227  -3.578  -2.576  0.00  0.00    +0.004 C 
ATOM      4  C   UNL     1      -4.182  -4.128  -1.529  0.00  0.00    -0.025 C 
ATOM      5  C   UNL     1      -5.630  -4.147  -2.034  0.00  0.00    +0.007 C 
ATOM      6  C   UNL     1      -6.024  -2.778  -2.582  0.00  0.00    +0.001 C 
ATOM      7  C   UNL     1      -5.156  -2.497  -3.807  0.00  0.00    +0.007 C 
ATOM      8  C   UNL     1      -3.687  -2.388  -3.386  0.00  0.00    -0.031 C 
ATOM      9  C   UNL     1      -2.861  -2.342  -4.694  0.00  0.00    +0.011 C 
ATOM     10  C   UNL     1      -3.487  -1.050  -2.675  0.00  0.00    +0.011 C 
ATOM     11  C   UNL     1      -4.092  -3.324  -0.245  0.00  0.00    +0.009 C 
ATOM     12  C   UNL     1      -2.702  -3.246   0.359  0.00  0.00    +0.030 C 
ATOM     13  C   UNL     1      -2.756  -2.189   1.458  0.00  0.00    -0.043 C 
ATOM     14  C   UNL     1      -1.610  -1.688   1.916  0.00  0.00    +0.092 C 
ATOM     15  C   UNL     1      -1.621  -0.672   2.984  0.00  0.00    +0.333 C 
ATOM     16  O   UNL     1      -0.580  -0.191   3.402  0.00  0.00    -0.246 OA
ATOM     17  O   UNL     1      -2.818  -0.292   3.488  0.00  0.00    -0.453 OA
ATOM     18  C   UNL     1      -3.858  -1.269   3.473  0.00  0.00    +0.220 C 
ATOM     19  C   UNL     1      -4.077  -1.776   2.037  0.00  0.00    +0.031 C 
ATOM     20  C   UNL     1      -5.059  -2.936   2.070  0.00  0.00    +0.015 C 
ATOM     21  C   UNL     1      -5.112  -3.762   0.792  0.00  0.00    +0.006 C 
ATOM     22  C   UNL     1      -4.665  -0.605   1.248  0.00  0.00    +0.020 C 
ATOM     23  C   UNL     1      -2.253  -4.547   1.043  0.00  0.00    +0.020 C 
ATOM     24  C   UNL     1      -3.828  -5.613  -1.299  0.00  0.00    +0.012 C 
ENDROOT
BRANCH  18  25
ATOM     25  C   UNL     1      -5.133  -0.639   3.971  0.00  0.00    +0.031 A 
ATOM     26  C   UNL     1      -6.088  -1.232   4.828  0.00  0.00    +0.048 A 
ATOM     27  C   UNL     1      -7.062  -0.324   5.015  0.00  0.00    +0.195 A 
ATOM     28  O   UNL     1      -6.749   0.783   4.321  0.00  0.00    -0.471 OA
ATOM     29  C   UNL     1      -5.578   0.599   3.690  0.00  0.00    +0.202 A 
ENDBRANCH  18  25
BRANCH   1  30
ATOM     30  O   UNL     1      -1.557  -1.399  -0.724  0.00  0.00    -0.461 OA
BRANCH  30  32
ATOM     31  C   UNL     1      -0.152   0.609  -1.016  0.00  0.00    +0.136 C 
ATOM     32  C   UNL     1      -0.336  -0.884  -0.939  0.00  0.00    +0.304 C 
ATOM     33  O   UNL     1       0.614  -1.618  -1.071  0.00  0.00    -0.251 OA
ENDBRANCH  30  32
ENDBRANCH   1  30
TORSDOF 3
