REMARK  Name = ZINC09938178
REMARK  9 active torsions:
REMARK  status: ('A' for Active; 'I' for Inactive)
REMARK    1  A    between atoms: C_1  and  C_2
REMARK    2  A    between atoms: C_4  and  C_25
REMARK    3  A    between atoms: C_8  and  C_24
REMARK    4  A    between atoms: C_10  and  C_22
REMARK    5  A    between atoms: C_10  and  C_23
REMARK    6  A    between atoms: C_12  and  C_14
REMARK    7  A    between atoms: C_14  and  S_15
REMARK    8  A    between atoms: S_15  and  C_16
REMARK    9  A    between atoms: N_20  and  C_21
REMARK                            x       y       z     vdW  Elec       q    Type
REMARK                         _______ _______ _______ _____ _____    ______ ____
ROOT
ATOM      1  C   UNL     1      -0.809   6.416  -0.330  0.00  0.00    +0.044 C 
ATOM      2  C   UNL     1      -0.962   5.366   0.740  0.00  0.00    -0.050 A 
ATOM      3  C   UNL     1      -0.919   5.733   2.074  0.00  0.00    +0.008 A 
ATOM      4  C   UNL     1      -1.070   4.785   3.065  0.00  0.00    -0.028 A 
ATOM      5  C   UNL     1      -1.250   3.458   2.724  0.00  0.00    +0.047 A 
ATOM      6  C   UNL     1      -1.285   3.078   1.374  0.00  0.00    -0.000 A 
ATOM      7  C   UNL     1      -1.144   4.044   0.383  0.00  0.00    +0.013 A 
ATOM      8  C   UNL     1      -1.478   1.653   1.041  0.00  0.00    -0.043 C 
ATOM      9  C   UNL     1      -1.904   0.812   1.975  0.00  0.00    +0.002 C 
ATOM     10  C   UNL     1      -2.217   1.288   3.368  0.00  0.00    +0.055 C 
ATOM     11  N   UNL     1      -1.395   2.461   3.694  0.00  0.00    -0.261 N 
ATOM     12  C   UNL     1      -0.797   2.573   4.896  0.00  0.00    +0.231 C 
ATOM     13  O   UNL     1       0.024   3.446   5.086  0.00  0.00    -0.274 OA
ATOM     14  C   UNL     1      -3.697   1.664   3.456  0.00  0.00    +0.036 C 
ATOM     15  C   UNL     1      -1.920   0.167   4.366  0.00  0.00    +0.036 C 
ATOM     16  C   UNL     1      -1.186   1.155  -0.351  0.00  0.00    +0.044 C 
ATOM     17  C   UNL     1      -1.023   5.194   4.515  0.00  0.00    +0.046 C 
ENDROOT
BRANCH  12  18
ATOM     18  C   UNL     1      -1.148   1.615   6.005  0.00  0.00    +0.173 C 
BRANCH  18  19
ATOM     19  S   UNL     1      -0.371   2.163   7.545  0.00  0.00    -0.075 S 
BRANCH  19  20
ATOM     20  C   UNL     1      -0.932   0.900   8.638  0.00  0.00    +0.210 A 
ATOM     21  N   UNL     1      -1.705  -0.117   8.325  0.00  0.00    -0.102 NA
ATOM     22  N   UNL     1      -1.920  -0.853   9.356  0.00  0.00    -0.022 NA
ATOM     23  N   UNL     1      -1.319  -0.365  10.387  0.00  0.00    -0.043 NA
ATOM     24  N   UNL     1      -0.652   0.796   9.958  0.00  0.00    -0.223 N 
ATOM     25  C   UNL     1       0.169   1.700  10.768  0.00  0.00    +0.177 C 
ENDBRANCH  19  20
ENDBRANCH  18  19
ENDBRANCH  12  18
TORSDOF 3
