REMARK  Name = ZINC36026779
REMARK  13 active torsions:
REMARK  status: ('A' for Active; 'I' for Inactive)
REMARK    1  A    between atoms: C_1  and  C_2
REMARK    2  A    between atoms: C_2  and  N_3
REMARK    3  A    between atoms: N_3  and  C_4
REMARK    4  A    between atoms: N_3  and  C_6
REMARK    5  A    between atoms: C_4  and  C_5
REMARK    6  A    between atoms: C_6  and  C_7
REMARK    7  A    between atoms: C_7  and  N_8
REMARK    8  A    between atoms: C_11  and  C_27
REMARK    9  A    between atoms: N_22  and  C_23
REMARK   10  A    between atoms: C_23  and  C_24
REMARK   11  A    between atoms: C_23  and  C_25
REMARK   12  A    between atoms: C_23  and  C_26
REMARK   13  A    between atoms: C_27  and  C_28
REMARK                            x       y       z     vdW  Elec       q    Type
REMARK                         _______ _______ _______ _____ _____    ______ ____
ROOT
ATOM      1  N   UNL     1       1.504  -3.490   0.322  0.00  0.00    -0.315 N 
ATOM      2  C   UNL     1       2.396  -4.237   1.006  0.00  0.00    +0.201 C 
ATOM      3  O   UNL     1       3.328  -3.811   1.655  0.00  0.00    -0.277 OA
ATOM      4  C   UNL     1       2.038  -5.696   0.827  0.00  0.00    +0.023 C 
ATOM      5  N   UNL     1       1.123  -5.720  -0.340  0.00  0.00    +0.401 N 
ATOM      6  C   UNL     1       0.523  -4.367  -0.322  0.00  0.00    +0.006 C 
ATOM      7  C   UNL     1      -0.777  -4.386   0.480  0.00  0.00    +0.025 C 
ATOM      8  C   UNL     1      -1.367  -2.973   0.524  0.00  0.00    +0.109 C 
ATOM      9  N   UNL     1      -1.504  -2.475  -0.852  0.00  0.00    -0.286 N 
ATOM     10  C   UNL     1      -0.325  -2.486  -1.728  0.00  0.00    +0.109 C 
ATOM     11  C   UNL     1       0.258  -3.903  -1.753  0.00  0.00    +0.025 C 
ATOM     12  C   UNL     1      -2.689  -2.018  -1.302  0.00  0.00    +0.303 C 
ATOM     13  O   UNL     1      -2.810  -1.683  -2.464  0.00  0.00    -0.253 OA
ATOM     14  N   UNL     1      -3.741  -1.931  -0.463  0.00  0.00    -0.294 N 
ATOM     15  H   UNL     1       1.638  -5.874  -1.194  0.00  0.00    -0.082 HD
ATOM     16  H   UNL     1      -3.627  -2.131   0.479  0.00  0.00    +0.151 HD
ATOM     17  H   UNL     1       0.410  -6.425  -0.220  0.00  0.00    -0.082 HD
ENDROOT
BRANCH  14  18
ATOM     18  C   UNL     1      -5.055  -1.536  -0.974  0.00  0.00    +0.028 C 
ATOM     19  C   UNL     1      -5.511  -2.537  -2.037  0.00  0.00    +0.031 C 
ATOM     20  C   UNL     1      -6.065  -1.516   0.175  0.00  0.00    +0.031 C 
ATOM     21  C   UNL     1      -4.962  -0.140  -1.595  0.00  0.00    +0.031 C 
ENDBRANCH  14  18
BRANCH   1  22
ATOM     22  C   UNL     1       1.512  -2.027   0.242  0.00  0.00    +0.087 C 
BRANCH  22  23
ATOM     23  C   UNL     1       2.373  -1.586  -0.943  0.00  0.00    -0.060 C 
BRANCH  23  24
ATOM     24  N   UNL     1       2.273  -0.129  -1.106  0.00  0.00    +0.380 N 
ATOM     25  H   UNL     1       1.302   0.133  -1.194  0.00  0.00    -0.082 HD
BRANCH  24  27
ATOM     26  C   UNL     1       2.631   2.045  -0.038  0.00  0.00    -0.017 C 
ATOM     27  C   UNL     1       2.855   0.536   0.067  0.00  0.00    -0.082 C 
ENDBRANCH  24  27
BRANCH  24  28
ATOM     28  C   UNL     1       3.002   0.280  -2.313  0.00  0.00    -0.082 C 
ATOM     29  C   UNL     1       2.309  -0.298  -3.549  0.00  0.00    -0.017 C 
ENDBRANCH  24  28
ENDBRANCH  23  24
ENDBRANCH  22  23
ENDBRANCH   1  22
BRANCH   4  30
ATOM     30  C   UNL     1       3.293  -6.522   0.539  0.00  0.00    +0.028 C 
BRANCH  30  31
ATOM     31  C   UNL     1       2.926  -7.981   0.451  0.00  0.00    -0.048 A 
ATOM     32  C   UNL     1       2.942  -8.768   1.587  0.00  0.00    +0.003 A 
ATOM     33  C   UNL     1       2.606 -10.106   1.506  0.00  0.00    +0.000 A 
ATOM     34  C   UNL     1       2.251 -10.657   0.288  0.00  0.00    +0.000 A 
ATOM     35  C   UNL     1       2.234  -9.870  -0.848  0.00  0.00    +0.000 A 
ATOM     36  C   UNL     1       2.567  -8.530  -0.766  0.00  0.00    +0.003 A 
ENDBRANCH  30  31
ENDBRANCH   4  30
TORSDOF 8
