REMARK  Name = ZINC07117975
REMARK  6 active torsions:
REMARK  status: ('A' for Active; 'I' for Inactive)
REMARK    1  A    between atoms: C_1  and  C_2
REMARK    2  A    between atoms: C_4  and  C_23
REMARK    3  A    between atoms: C_9  and  C_10
REMARK    4  A    between atoms: C_10  and  N_11
REMARK    5  A    between atoms: C_12  and  C_14
REMARK    6  A    between atoms: C_14  and  C_15
REMARK                            x       y       z     vdW  Elec       q    Type
REMARK                         _______ _______ _______ _____ _____    ______ ____
ROOT
ATOM      1  N   UNL     1       1.143   1.898   0.001  0.00  0.00    -0.311 N 
ATOM      2  C   UNL     1      -0.014   1.209   0.009  0.00  0.00    +0.218 C 
ATOM      3  O   UNL     1       0.002  -0.004   0.002  0.00  0.00    -0.275 OA
ATOM      4  H   UNL     1       1.130   2.868   0.007  0.00  0.00    +0.149 HD
ENDROOT
BRANCH   1   5
ATOM      5  C   UNL     1       2.422   1.183  -0.015  0.00  0.00    +0.145 C 
BRANCH   5  14
ATOM      6  C   UNL     1       3.677   1.978   2.461  0.00  0.00    +0.044 C 
ATOM      7  C   UNL     1       4.147   2.554   1.149  0.00  0.00    -0.039 A 
ATOM      8  C   UNL     1       5.201   3.478   1.117  0.00  0.00    +0.024 A 
ATOM      9  C   UNL     1       5.612   3.993  -0.065  0.00  0.00    +0.016 A 
ATOM     10  N   UNL     1       5.018   3.621  -1.227  0.00  0.00    -0.326 N 
ATOM     11  H   UNL     1       5.335   4.012  -2.091  0.00  0.00    +0.169 HD
ATOM     12  C   UNL     1       4.006   2.732  -1.230  0.00  0.00    +0.254 A 
ATOM     13  O   UNL     1       3.482   2.408  -2.283  0.00  0.00    -0.268 OA
ATOM     14  C   UNL     1       3.554   2.178  -0.020  0.00  0.00    +0.037 A 
ATOM     15  C   UNL     1       6.742   4.989  -0.090  0.00  0.00    +0.063 C 
ENDBRANCH   5  14
ENDBRANCH   1   5
BRANCH   2  16
ATOM     16  C   UNL     1      -1.330   1.944   0.019  0.00  0.00    +0.132 C 
BRANCH  16  17
ATOM     17  C   UNL     1      -2.462   0.950   0.019  0.00  0.00    -0.020 A 
ATOM     18  C   UNL     1      -3.112   0.643   1.199  0.00  0.00    +0.007 A 
ATOM     19  C   UNL     1      -4.151  -0.269   1.200  0.00  0.00    +0.020 A 
ATOM     20  C   UNL     1      -4.540  -0.875   0.019  0.00  0.00    +0.042 A 
ATOM     21  C   UNL     1      -3.889  -0.569  -1.163  0.00  0.00    +0.040 A 
ATOM     22  C   UNL     1      -2.853   0.347  -1.163  0.00  0.00    +0.046 A 
ATOM     23 CL   UNL     1      -2.040   0.737  -2.647  0.00  0.00    -0.083 Cl
ATOM     24 CL   UNL     1      -5.844  -2.021   0.020  0.00  0.00    -0.083 Cl
ENDBRANCH  16  17
ENDBRANCH   2  16
TORSDOF 4
