REMARK  Name = ZINC03098553
REMARK  12 active torsions:
REMARK  status: ('A' for Active; 'I' for Inactive)
REMARK    1  A    between atoms: C_1  and  C_2
REMARK    2  A    between atoms: C_2  and  O_3
REMARK    3  A    between atoms: O_3  and  C_4
REMARK    4  A    between atoms: C_4  and  C_6
REMARK    5  A    between atoms: C_10  and  N_11
REMARK    6  A    between atoms: C_12  and  C_14
REMARK    7  A    between atoms: C_15  and  S_23
REMARK    8  A    between atoms: C_16  and  C_19
REMARK    9  A    between atoms: C_19  and  N_55
REMARK   10  A    between atoms: C_20  and  C_21
REMARK   11  A    between atoms: C_20  and  N_55
REMARK   12  A    between atoms: S_23  and  C_24
REMARK                            x       y       z     vdW  Elec       q    Type
REMARK                         _______ _______ _______ _____ _____    ______ ____
ROOT
ATOM      1  C   UNL     1       2.143   0.855  -0.467  0.00  0.00    +0.091 A 
ATOM      2  C   UNL     1       1.272   1.928  -0.251  0.00  0.00    -0.016 A 
ATOM      3  C   UNL     1      -0.067   1.625  -0.307  0.00  0.00    +0.032 A 
ATOM      4  S   UNL     1      -0.114  -0.108  -0.627  0.00  0.00    -0.072 S 
ATOM      5  C   UNL     1       1.595  -0.406  -0.700  0.00  0.00    +0.087 A 
ATOM      6  C   UNL     1      -1.131   2.605  -0.105  0.00  0.00    +0.024 C 
ATOM      7  C   UNL     1      -0.780   3.903  -0.174  0.00  0.00    -0.071 C 
ATOM      8  C   UNL     1       0.625   4.314  -0.505  0.00  0.00    +0.034 C 
ATOM      9  C   UNL     1       1.676   3.363   0.059  0.00  0.00    +0.041 C 
ENDROOT
BRANCH   5  10
ATOM     10  N   UNL     1       2.252  -1.603  -0.931  0.00  0.00    -0.280 N 
ATOM     11  C   UNL     1       1.545  -2.731  -1.137  0.00  0.00    +0.214 C 
ATOM     12  O   UNL     1       0.333  -2.699  -1.119  0.00  0.00    -0.276 OA
ATOM     13  C   UNL     1       2.260  -4.033  -1.389  0.00  0.00    +0.109 C 
ATOM     14  H   UNL     1       3.221  -1.628  -0.945  0.00  0.00    +0.155 HD
ENDBRANCH   5  10
BRANCH   1  15
ATOM     15  C   UNL     1       3.595   1.052  -0.450  0.00  0.00    +0.342 C 
ATOM     16  O   UNL     1       4.183   1.331  -1.478  0.00  0.00    -0.245 OA
BRANCH  15  17
ATOM     17  O   UNL     1       4.279   0.924   0.705  0.00  0.00    -0.461 OA
BRANCH  17  19
ATOM     18  C   UNL     1       6.314   0.946   2.043  0.00  0.00    +0.048 C 
ATOM     19  C   UNL     1       5.715   1.132   0.647  0.00  0.00    +0.229 C 
ENDBRANCH  17  19
ENDBRANCH  15  17
ENDBRANCH   1  15
BRANCH   7  20
ATOM     20  C   UNL     1      -1.817   4.965   0.086  0.00  0.00    -0.050 C 
BRANCH  20  21
ATOM     21  N   UNL     1      -1.735   5.386   1.498  0.00  0.00    +0.384 N 
ATOM     22  H   UNL     1      -0.827   5.833   1.665  0.00  0.00    -0.085 HD
ATOM     23  H   UNL     1      -1.827   4.561   2.103  0.00  0.00    -0.085 HD
BRANCH  21  24
ATOM     24  C   UNL     1      -2.814   6.342   1.811  0.00  0.00    -0.055 C 
BRANCH  24  25
ATOM     25  C   UNL     1      -2.632   6.849   3.218  0.00  0.00    -0.054 C 
ATOM     26  C   UNL     1      -2.559   8.137   3.446  0.00  0.00    +0.002 C 
ENDBRANCH  24  25
ENDBRANCH  21  24
ENDBRANCH  20  21
ENDBRANCH   7  20
BRANCH   6  27
ATOM     27  S   UNL     1      -2.793   2.113   0.212  0.00  0.00    -0.088 S 
BRANCH  27  28
ATOM     28  C   UNL     1      -2.714   1.337   1.792  0.00  0.00    +0.013 A 
ATOM     29  C   UNL     1      -1.530   1.358   2.520  0.00  0.00    +0.015 A 
ATOM     30  C   UNL     1      -1.474   0.754   3.760  0.00  0.00    +0.001 A 
ATOM     31  C   UNL     1      -2.590   0.119   4.274  0.00  0.00    +0.000 A 
ATOM     32  C   UNL     1      -3.768   0.091   3.550  0.00  0.00    +0.001 A 
ATOM     33  C   UNL     1      -3.834   0.698   2.311  0.00  0.00    +0.015 A 
ENDBRANCH  27  28
ENDBRANCH   6  27
TORSDOF 10
