REMARK  Name = ZINC36586979
REMARK  21 active torsions:
REMARK  status: ('A' for Active; 'I' for Inactive)
REMARK    1  A    between atoms: C_1  and  C_2
REMARK    2  A    between atoms: C_2  and  C_3
REMARK    3  A    between atoms: C_3  and  C_4
REMARK    4  A    between atoms: C_5  and  C_6
REMARK    5  A    between atoms: C_6  and  C_8
REMARK    6  A    between atoms: C_6  and  N_19
REMARK    7  A    between atoms: N_10  and  C_11
REMARK    8  A    between atoms: C_11  and  C_12
REMARK    9  A    between atoms: C_11  and  C_13
REMARK   10  A    between atoms: C_11  and  C_14
REMARK   11  A    between atoms: C_14  and  C_15
REMARK   12  A    between atoms: C_15  and  C_16
REMARK   13  A    between atoms: C_15  and  C_17
REMARK   14  A    between atoms: C_15  and  C_18
REMARK   15  A    between atoms: N_19  and  C_30
REMARK   16  A    between atoms: C_20  and  C_22
REMARK   17  A    between atoms: C_26  and  O_29
REMARK   18  A    between atoms: C_27  and  O_28
REMARK   19  A    between atoms: C_30  and  C_31
REMARK   20  A    between atoms: C_30  and  C_32
REMARK   21  A    between atoms: C_30  and  C_33
REMARK                            x       y       z     vdW  Elec       q    Type
REMARK                         _______ _______ _______ _____ _____    ______ ____
ROOT
ATOM      1  C   UNL     1       0.813  -1.587  -1.511  0.00  0.00    +0.186 C 
ENDROOT
BRANCH   1   2
ATOM      2  C   UNL     1       1.019  -2.696  -2.510  0.00  0.00    +0.238 C 
ATOM      3  O   UNL     1       2.023  -3.374  -2.465  0.00  0.00    -0.273 OA
ATOM      4  N   UNL     1       0.087  -2.933  -3.455  0.00  0.00    -0.308 N 
ATOM      5  H   UNL     1      -0.716  -2.391  -3.491  0.00  0.00    +0.149 HD
BRANCH   4   6
ATOM      6  C   UNL     1       0.287  -4.012  -4.426  0.00  0.00    +0.030 C 
ATOM      7  C   UNL     1       1.459  -3.659  -5.345  0.00  0.00    +0.031 C 
ATOM      8  C   UNL     1       0.594  -5.315  -3.686  0.00  0.00    +0.031 C 
BRANCH   6   9
ATOM      9  C   UNL     1      -0.982  -4.187  -5.263  0.00  0.00    +0.031 C 
BRANCH   9  10
ATOM     10  C   UNL     1      -2.201  -4.222  -4.339  0.00  0.00    -0.036 C 
ATOM     11  C   UNL     1      -2.085  -3.105  -3.300  0.00  0.00    +0.010 C 
ATOM     12  C   UNL     1      -3.473  -4.020  -5.165  0.00  0.00    +0.010 C 
ATOM     13  C   UNL     1      -2.263  -5.575  -3.628  0.00  0.00    +0.010 C 
ENDBRANCH   9  10
ENDBRANCH   6   9
ENDBRANCH   4   6
ENDBRANCH   1   2
BRANCH   1  14
ATOM     14  N   UNL     1       2.034  -1.407  -0.722  0.00  0.00    -0.277 N 
ATOM     15  C   UNL     1       1.962  -1.329   0.622  0.00  0.00    +0.252 C 
ATOM     16  O   UNL     1       0.878  -1.319   1.173  0.00  0.00    -0.270 OA
BRANCH  15  17
ATOM     17  C   UNL     1       3.198  -1.254   1.424  0.00  0.00    +0.082 A 
ATOM     18  C   UNL     1       4.436  -1.097   0.793  0.00  0.00    +0.017 A 
ATOM     19  C   UNL     1       5.588  -1.027   1.545  0.00  0.00    +0.005 A 
ATOM     20  C   UNL     1       5.529  -1.112   2.926  0.00  0.00    +0.049 A 
ATOM     21  C   UNL     1       4.311  -1.268   3.566  0.00  0.00    +0.159 A 
ATOM     22  C   UNL     1       3.137  -1.334   2.820  0.00  0.00    +0.171 A 
BRANCH  22  23
ATOM     23  O   UNL     1       1.940  -1.481   3.443  0.00  0.00    -0.503 OA
ATOM     24  H   UNL     1       1.677  -2.402   3.577  0.00  0.00    +0.292 HD
ENDBRANCH  22  23
BRANCH  21  25
ATOM     25  O   UNL     1       4.260  -1.350   4.922  0.00  0.00    -0.503 OA
ATOM     26  H   UNL     1       4.159  -0.496   5.365  0.00  0.00    +0.292 HD
ENDBRANCH  21  25
ENDBRANCH  15  17
BRANCH  14  27
ATOM     27  C   UNL     1       3.333  -1.314  -1.392  0.00  0.00    +0.030 C 
ATOM     28  C   UNL     1       3.134  -1.420  -2.906  0.00  0.00    +0.031 C 
ATOM     29  C   UNL     1       3.984   0.029  -1.057  0.00  0.00    +0.031 C 
ATOM     30  C   UNL     1       4.236  -2.452  -0.915  0.00  0.00    +0.031 C 
ENDBRANCH  14  27
ENDBRANCH   1  14
BRANCH   1  32
ATOM     31  C   UNL     1       1.245   0.752  -2.064  0.00  0.00    -0.029 C 
ATOM     32  C   UNL     1       0.493  -0.307  -2.240  0.00  0.00    +0.000 C 
BRANCH  31  33
ATOM     33  C   UNL     1       1.007   1.990  -2.890  0.00  0.00    +0.027 C 
BRANCH  33  35
ATOM     34  C   UNL     1       0.555   4.446  -2.802  0.00  0.00    +0.004 C 
ATOM     35  C   UNL     1       0.796   3.189  -1.963  0.00  0.00    +0.001 C 
ENDBRANCH  33  35
ENDBRANCH  31  33
ENDBRANCH   1  32
TORSDOF 12
