REMARK  Name = ZINC27694495
REMARK  10 active torsions:
REMARK  status: ('A' for Active; 'I' for Inactive)
REMARK    1  A    between atoms: C_4  and  C_7
REMARK    2  A    between atoms: C_7  and  N_8
REMARK    3  A    between atoms: N_8  and  C_9
REMARK    4  A    between atoms: N_8  and  C_31
REMARK    5  A    between atoms: C_9  and  C_10
REMARK    6  A    between atoms: C_10  and  C_12
REMARK    7  A    between atoms: C_10  and  O_30
REMARK    8  A    between atoms: C_12  and  N_13
REMARK    9  A    between atoms: C_21  and  C_22
REMARK   10  A    between atoms: C_22  and  C_23
REMARK                            x       y       z     vdW  Elec       q    Type
REMARK                         _______ _______ _______ _____ _____    ______ ____
ROOT
ATOM      1  C   UNL     1       0.579  -0.078  -2.045  0.00  0.00    +0.118 C 
ENDROOT
BRANCH   1   2
ATOM      2  O   UNL     1       0.934   0.160  -0.681  0.00  0.00    -0.392 OA
ATOM      3  H   UNL     1       1.775  -0.386  -0.228  0.00  0.00    +0.210 HD
ENDBRANCH   1   2
BRANCH   1   4
ATOM      4  C   UNL     1      -0.614   0.802  -2.422  0.00  0.00    -0.045 C 
BRANCH   4   5
ATOM      5  N   UNL     1      -1.803   0.360  -1.681  0.00  0.00    +0.386 N 
ATOM      6  H   UNL     1      -1.796  -0.740  -1.657  0.00  0.00    -0.081 HD
BRANCH   5   7
ATOM      7  C   UNL     1      -1.769   0.843  -0.294  0.00  0.00    -0.068 C 
ATOM      8  C   UNL     1      -2.991   0.315   0.459  0.00  0.00    -0.015 C 
ATOM      9  C   UNL     1      -2.956   0.819   1.904  0.00  0.00    -0.002 C 
ATOM     10  C   UNL     1      -2.974   2.348   1.912  0.00  0.00    -0.000 C 
ATOM     11  C   UNL     1      -1.751   2.876   1.158  0.00  0.00    -0.002 C 
ATOM     12  C   UNL     1      -1.787   2.373  -0.287  0.00  0.00    -0.015 C 
ENDBRANCH   5   7
BRANCH   5  13
ATOM     13  C   UNL     1      -3.034   0.788  -2.358  0.00  0.00    -0.043 C 
BRANCH  13  17
ATOM     14  C   UNL     1      -6.233  -1.832  -1.287  0.00  0.00    +0.000 A 
ATOM     15  C   UNL     1      -6.452  -0.469  -1.361  0.00  0.00    +0.000 A 
ATOM     16  C   UNL     1      -5.417   0.379  -1.708  0.00  0.00    +0.002 A 
ATOM     17  C   UNL     1      -4.163  -0.136  -1.980  0.00  0.00    -0.064 A 
ATOM     18  C   UNL     1      -3.946  -1.500  -1.911  0.00  0.00    +0.002 A 
ATOM     19  C   UNL     1      -4.980  -2.347  -1.560  0.00  0.00    +0.000 A 
ENDBRANCH  13  17
ENDBRANCH   5  13
ENDBRANCH   4   5
ENDBRANCH   1   4
BRANCH   1  20
ATOM     20  C   UNL     1       1.767   0.259  -2.947  0.00  0.00    +0.153 C 
BRANCH  20  21
ATOM     21  N   UNL     1       2.870  -0.664  -2.668  0.00  0.00    -0.325 N 
ATOM     22  C   UNL     1       3.878  -0.478  -1.743  0.00  0.00    +0.069 A 
ATOM     23  C   UNL     1       4.189   0.531  -0.841  0.00  0.00    +0.028 A 
ATOM     24  C   UNL     1       5.300   0.408  -0.035  0.00  0.00    +0.002 A 
ATOM     25  C   UNL     1       6.110  -0.716  -0.120  0.00  0.00    +0.002 A 
ATOM     26  C   UNL     1       5.815  -1.722  -0.996  0.00  0.00    +0.030 A 
ATOM     27  C   UNL     1       4.696  -1.617  -1.826  0.00  0.00    +0.089 A 
ATOM     28  N   UNL     1       4.162  -2.419  -2.783  0.00  0.00    -0.232 NA
ATOM     29  C   UNL     1       3.094  -1.861  -3.275  0.00  0.00    +0.115 A 
BRANCH  29  30
ATOM     30  C   UNL     1       2.232  -2.453  -4.359  0.00  0.00    +0.109 C 
BRANCH  30  31
ATOM     31  C   UNL     1       2.737  -2.003  -5.705  0.00  0.00    -0.040 A 
ATOM     32  C   UNL     1       2.245  -0.843  -6.275  0.00  0.00    +0.005 A 
ATOM     33  C   UNL     1       2.712  -0.427  -7.508  0.00  0.00    +0.020 A 
ATOM     34  C   UNL     1       3.664  -1.176  -8.176  0.00  0.00    +0.041 A 
ATOM     35  C   UNL     1       4.152  -2.339  -7.607  0.00  0.00    +0.020 A 
ATOM     36  C   UNL     1       3.688  -2.752  -6.373  0.00  0.00    +0.005 A 
ATOM     37 CL   UNL     1       4.246  -0.657  -9.727  0.00  0.00    -0.084 Cl
ENDBRANCH  30  31
ENDBRANCH  29  30
ENDBRANCH  20  21
ENDBRANCH   1  20
TORSDOF 10
