REMARK  Name = ZINC43305580
REMARK  8 active torsions:
REMARK  status: ('A' for Active; 'I' for Inactive)
REMARK    1  A    between atoms: C_1  and  C_2
REMARK    2  A    between atoms: C_2  and  C_4
REMARK    3  A    between atoms: C_2  and  N_14
REMARK    4  A    between atoms: N_6  and  C_7
REMARK    5  A    between atoms: N_6  and  C_8
REMARK    6  A    between atoms: N_17  and  C_20
REMARK    7  A    between atoms: C_20  and  C_21
REMARK    8  A    between atoms: C_22  and  C_23
REMARK                            x       y       z     vdW  Elec       q    Type
REMARK                         _______ _______ _______ _____ _____    ______ ____
ROOT
ATOM      1  N   UNL     1       0.808  -0.533   1.130  0.00  0.00    -0.295 NA
ATOM      2  C   UNL     1       0.275  -0.079   2.422  0.00  0.00    +0.066 C 
ATOM      3  C   UNL     1       1.107  -0.682   3.555  0.00  0.00    -0.063 C 
ATOM      4  N   UNL     1       2.508  -0.265   3.410  0.00  0.00    +0.384 N 
ATOM      5  C   UNL     1       3.034  -0.747   2.126  0.00  0.00    -0.063 C 
ATOM      6  C   UNL     1       2.217  -0.144   0.981  0.00  0.00    +0.066 C 
ATOM      7  H   UNL     1       2.563   0.743   3.438  0.00  0.00    -0.081 HD
ENDROOT
BRANCH   1   9
ATOM      8  C   UNL     1      -0.017   1.510   0.061  0.00  0.00    +0.034 C 
ATOM      9  C   UNL     1      -0.002  -0.020   0.017  0.00  0.00    +0.140 C 
BRANCH   9  10
ATOM     10  C   UNL     1      -1.411  -0.540   0.138  0.00  0.00    +0.233 C 
ATOM     11  O   UNL     1      -1.739  -1.180   1.114  0.00  0.00    -0.274 OA
ATOM     12  N   UNL     1      -2.307  -0.293  -0.838  0.00  0.00    -0.300 N 
ATOM     13  C   UNL     1      -3.706  -0.690  -0.665  0.00  0.00    +0.132 C 
BRANCH  12  14
ATOM     14  C   UNL     1      -1.881   0.373  -2.072  0.00  0.00    +0.076 C 
ATOM     15  C   UNL     1      -2.576   1.731  -2.185  0.00  0.00    +0.022 C 
ATOM     16  C   UNL     1      -2.132   2.425  -3.474  0.00  0.00    +0.002 C 
ATOM     17  C   UNL     1      -2.507   1.558  -4.677  0.00  0.00    +0.000 C 
ATOM     18  C   UNL     1      -1.812   0.200  -4.563  0.00  0.00    +0.002 C 
ATOM     19  C   UNL     1      -2.256  -0.495  -3.275  0.00  0.00    +0.022 C 
ENDBRANCH  12  14
ENDBRANCH   9  10
ENDBRANCH   1   9
BRANCH   4  20
ATOM     20  C   UNL     1       3.304  -0.829   4.508  0.00  0.00    -0.051 C 
BRANCH  20  21
ATOM     21  C   UNL     1       4.714  -0.303   4.429  0.00  0.00    -0.045 C 
ATOM     22  C   UNL     1       5.254   0.305   5.476  0.00  0.00    +0.002 C 
BRANCH  22  23
ATOM     23  C   UNL     1       6.637   0.821   5.399  0.00  0.00    -0.025 A 
ATOM     24  C   UNL     1       7.374   0.677   4.223  0.00  0.00    +0.008 A 
ATOM     25  C   UNL     1       8.664   1.161   4.157  0.00  0.00    +0.001 A 
ATOM     26  C   UNL     1       9.227   1.789   5.254  0.00  0.00    +0.000 A 
ATOM     27  C   UNL     1       8.502   1.935   6.423  0.00  0.00    +0.001 A 
ATOM     28  C   UNL     1       7.208   1.461   6.499  0.00  0.00    +0.008 A 
ENDBRANCH  22  23
ENDBRANCH  20  21
ENDBRANCH   4  20
TORSDOF 6
