REMARK  Name = ZINC39777971
REMARK  3 active torsions:
REMARK  status: ('A' for Active; 'I' for Inactive)
REMARK    1  A    between atoms: C_8  and  C_26
REMARK    2  A    between atoms: N_10  and  C_11
REMARK    3  A    between atoms: C_13  and  C_22
REMARK                            x       y       z     vdW  Elec       q    Type
REMARK                         _______ _______ _______ _____ _____    ______ ____
ROOT
ATOM      1  C   UNL     1      -0.017   1.373   0.010  0.00  0.00    +0.001 A 
ATOM      2  C   UNL     1       1.170   2.091   0.002  0.00  0.00    +0.004 A 
ATOM      3  C   UNL     1       2.387   1.438  -0.015  0.00  0.00    +0.047 A 
ATOM      4  C   UNL     1       2.429   0.053  -0.025  0.00  0.00    +0.137 A 
ATOM      5  C   UNL     1       1.228  -0.679  -0.013  0.00  0.00    +0.018 A 
ATOM      6  C   UNL     1       0.002  -0.004   0.002  0.00  0.00    +0.011 A 
ATOM      7  C   UNL     1       1.277  -2.145  -0.014  0.00  0.00    +0.028 A 
ATOM      8  C   UNL     1       2.489  -2.739   0.245  0.00  0.00    +0.078 A 
ATOM      9  C   UNL     1       3.640  -1.845   0.501  0.00  0.00    +0.207 A 
ATOM     10  N   UNL     1       4.650  -2.240   1.230  0.00  0.00    -0.342 N 
ATOM     11  O   UNL     1       3.616  -0.603  -0.046  0.00  0.00    -0.439 OA
ATOM     12  H   UNL     1       4.652  -3.131   1.613  0.00  0.00    +0.164 HD
ENDROOT
BRANCH   8  13
ATOM     13  C   UNL     1       2.636  -4.206   0.267  0.00  0.00    +0.144 A 
ATOM     14  N   UNL     1       3.754  -4.850   0.505  0.00  0.00    -0.228 NA
ATOM     15  C   UNL     1       3.532  -6.185   0.447  0.00  0.00    +0.089 A 
ATOM     16  C   UNL     1       4.355  -7.303   0.618  0.00  0.00    +0.030 A 
ATOM     17  C   UNL     1       3.825  -8.567   0.494  0.00  0.00    +0.002 A 
ATOM     18  C   UNL     1       2.480  -8.742   0.201  0.00  0.00    +0.002 A 
ATOM     19  C   UNL     1       1.654  -7.651   0.030  0.00  0.00    +0.028 A 
ATOM     20  C   UNL     1       2.170  -6.368   0.150  0.00  0.00    +0.066 A 
ATOM     21  N   UNL     1       1.623  -5.103   0.047  0.00  0.00    -0.338 N 
ATOM     22  H   UNL     1       0.698  -4.890  -0.148  0.00  0.00    +0.167 HD
ENDBRANCH   8  13
BRANCH  10  23
ATOM     23  C   UNL     1       5.778  -1.337   1.469  0.00  0.00    +0.160 C 
ATOM     24  C   UNL     1       6.282  -1.432   2.929  0.00  0.00    +0.134 C 
ATOM     25  C   UNL     1       7.785  -1.329   3.006  0.00  0.00    -0.046 C 
ATOM     26  C   UNL     1       8.475  -1.560   1.895  0.00  0.00    -0.012 C 
ATOM     27  S   UNL     1       7.300  -1.914   0.607  0.00  0.00    -0.104 S 
ATOM     28  C   UNL     1       9.969  -1.530   1.737  0.00  0.00    +0.042 C 
ATOM     29  C   UNL     1      10.580  -0.815   2.949  0.00  0.00    +0.005 C 
ATOM     30  C   UNL     1       9.957  -1.397   4.222  0.00  0.00    +0.005 C 
ATOM     31  C   UNL     1       8.492  -0.971   4.312  0.00  0.00    +0.032 C 
BRANCH  24  32
ATOM     32  C   UNL     1       5.852  -2.753   3.513  0.00  0.00    +0.220 C 
ATOM     33  O   UNL     1       6.685  -3.552   3.886  0.00  0.00    -0.275 OA
ATOM     34  N   UNL     1       4.541  -3.047   3.621  0.00  0.00    -0.329 N 
ATOM     35  H   UNL     1       3.874  -2.408   3.323  0.00  0.00    +0.145 HD
ATOM     36  H   UNL     1       4.264  -3.897   3.997  0.00  0.00    +0.145 HD
ENDBRANCH  24  32
ENDBRANCH  10  23
TORSDOF 3
