REMARK  Name = ZINC51574247
REMARK  5 active torsions:
REMARK  status: ('A' for Active; 'I' for Inactive)
REMARK    1  A    between atoms: C_1  and  C_2
REMARK    2  A    between atoms: C_7  and  C_10
REMARK    3  A    between atoms: C_10  and  N_11
REMARK    4  A    between atoms: N_11  and  S_12
REMARK    5  A    between atoms: S_12  and  C_15
REMARK                            x       y       z     vdW  Elec       q    Type
REMARK                         _______ _______ _______ _____ _____    ______ ____
ROOT
ATOM      1  N   UNL     1       2.275  -0.005   3.478  0.00  0.00    -0.191 NA
ATOM      2  H   UNL     1       2.609   0.269   2.610  0.00  0.00    +0.148 HD
ENDROOT
BRANCH   1   3
ATOM      3  S   UNL     1       3.288  -0.018   4.788  0.00  0.00    +0.064 S 
ATOM      4  O   UNL     1       4.565   0.391   4.318  0.00  0.00    -0.153 OA
ATOM      5  O   UNL     1       2.607   0.662   5.834  0.00  0.00    -0.153 OA
BRANCH   3   6
ATOM      6  C   UNL     1       3.453  -1.695   5.302  0.00  0.00    +0.175 A 
ATOM      7  C   UNL     1       2.572  -2.225   6.230  0.00  0.00    +0.155 A 
ATOM      8  C   UNL     1       2.702  -3.543   6.634  0.00  0.00    +0.078 A 
ATOM      9  C   UNL     1       3.712  -4.331   6.110  0.00  0.00    +0.129 A 
ATOM     10  C   UNL     1       4.592  -3.801   5.182  0.00  0.00    +0.078 A 
ATOM     11  C   UNL     1       4.460  -2.485   4.775  0.00  0.00    +0.155 A 
ATOM     12  F   UNL     1       5.316  -1.970   3.865  0.00  0.00    -0.203 F 
ATOM     13  F   UNL     1       3.839  -5.617   6.505  0.00  0.00    -0.205 F 
ATOM     14  F   UNL     1       1.586  -1.456   6.741  0.00  0.00    -0.203 F 
ENDBRANCH   3   6
ENDBRANCH   1   3
BRANCH   1  15
ATOM     15  C   UNL     1       0.874  -0.407   3.631  0.00  0.00    +0.090 C 
BRANCH  15  21
ATOM     16  C   UNL     1      -0.019   1.526   0.010  0.00  0.00    -0.014 C 
ATOM     17  C   UNL     1       0.002  -0.004   0.002  0.00  0.00    -0.075 C 
ATOM     18  C   UNL     1      -1.434  -0.533   0.011  0.00  0.00    -0.016 C 
ATOM     19  C   UNL     1      -2.146  -0.038   1.273  0.00  0.00    -0.003 C 
ATOM     20  C   UNL     1      -1.354  -0.487   2.504  0.00  0.00    -0.015 C 
ATOM     21  C   UNL     1       0.079   0.040   2.403  0.00  0.00    -0.056 C 
ATOM     22  N   UNL     1       0.713  -0.490   1.191  0.00  0.00    +0.383 N 
ATOM     23  H   UNL     1       0.684  -1.498   1.210  0.00  0.00    -0.085 HD
ATOM     24  H   UNL     1       1.674  -0.184   1.155  0.00  0.00    -0.085 HD
ENDBRANCH  15  21
ENDBRANCH   1  15
TORSDOF 4
