REMARK  Name = ZINC24912935
REMARK  8 active torsions:
REMARK  status: ('A' for Active; 'I' for Inactive)
REMARK    1  A    between atoms: C_4  and  C_7
REMARK    2  A    between atoms: C_7  and  C_8
REMARK    3  A    between atoms: C_8  and  N_9
REMARK    4  A    between atoms: N_12  and  C_15
REMARK    5  A    between atoms: C_15  and  C_16
REMARK    6  A    between atoms: C_16  and  N_17
REMARK    7  A    between atoms: C_22  and  C_33
REMARK    8  A    between atoms: C_25  and  C_28
REMARK                            x       y       z     vdW  Elec       q    Type
REMARK                         _______ _______ _______ _____ _____    ______ ____
ROOT
ATOM      1  N   UNL     1       4.795   4.066   1.560  0.00  0.00    -0.330 N 
ATOM      2  C   UNL     1       4.990   5.418   1.785  0.00  0.00    +0.128 A 
ATOM      3  C   UNL     1       6.300   5.940   1.855  0.00  0.00    +0.041 A 
ATOM      4  C   UNL     1       7.434   5.128   1.701  0.00  0.00    +0.015 A 
ATOM      5  C   UNL     1       8.665   5.718   1.784  0.00  0.00    +0.033 A 
ATOM      6  C   UNL     1       8.765   7.087   2.014  0.00  0.00    +0.144 A 
ATOM      7  N   UNL     1       7.700   7.845   2.145  0.00  0.00    -0.242 NA
ATOM      8  C   UNL     1       6.475   7.327   2.081  0.00  0.00    +0.084 A 
ATOM      9  C   UNL     1       5.314   8.126   2.239  0.00  0.00    +0.027 A 
ATOM     10  C   UNL     1       4.075   7.518   2.159  0.00  0.00    +0.123 A 
ATOM     11  N   UNL     1       3.950   6.217   1.941  0.00  0.00    -0.239 NA
ATOM     12  H   UNL     1       5.660   3.400   1.430  0.00  0.00    +0.147 HD
ENDROOT
BRANCH   9  13
ATOM     13  C   UNL     1       5.426   9.584   2.484  0.00  0.00    -0.007 A 
ATOM     14  C   UNL     1       4.700  10.493   1.720  0.00  0.00    +0.016 A 
ATOM     15  C   UNL     1       4.825  11.814   1.977  0.00  0.00    +0.046 A 
ATOM     16  S   UNL     1       6.001  11.829   3.320  0.00  0.00    -0.104 S 
ATOM     17  C   UNL     1       6.250  10.067   3.463  0.00  0.00    +0.053 A 
ENDBRANCH   9  13
BRANCH   6  18
ATOM     18  C   UNL     1      10.130   7.719   2.101  0.00  0.00    +0.434 C 
ATOM     19  F   UNL     1      10.534   8.134   0.827  0.00  0.00    -0.164 F 
ATOM     20  F   UNL     1      10.079   8.824   2.957  0.00  0.00    -0.164 F 
ATOM     21  F   UNL     1      11.046   6.785   2.599  0.00  0.00    -0.164 F 
ENDBRANCH   6  18
BRANCH   1  22
ATOM     22  C   UNL     1       3.436   3.523   1.494  0.00  0.00    +0.084 C 
BRANCH  22  23
ATOM     23  C   UNL     1       3.501   2.017   1.237  0.00  0.00    -0.060 C 
BRANCH  23  27
ATOM     24  N   UNL     1       0.002  -0.004   0.002  0.00  0.00    -0.306 NA
ATOM     25  C   UNL     1      -0.018   1.465   0.010  0.00  0.00    +0.066 C 
ATOM     26  C   UNL     1       1.419   1.992  -0.001  0.00  0.00    -0.063 C 
ATOM     27  N   UNL     1       2.138   1.472   1.171  0.00  0.00    +0.382 N 
ATOM     28  C   UNL     1       2.158   0.003   1.162  0.00  0.00    -0.063 C 
ATOM     29  C   UNL     1       0.721  -0.525   1.173  0.00  0.00    +0.066 C 
ATOM     30  H   UNL     1       1.600   1.799   2.072  0.00  0.00    -0.082 HD
BRANCH  24  31
ATOM     31  C   UNL     1      -1.361  -0.549  -0.064  0.00  0.00    +0.089 C 
BRANCH  31  32
ATOM     32  C   UNL     1      -1.296  -2.055  -0.321  0.00  0.00    +0.050 C 
BRANCH  32  36
ATOM     33  C   UNL     1      -5.258  -3.640  -0.514  0.00  0.00    +0.000 A 
ATOM     34  C   UNL     1      -4.640  -3.183  -1.663  0.00  0.00    +0.000 A 
ATOM     35  C   UNL     1      -3.357  -2.670  -1.600  0.00  0.00    +0.003 A 
ATOM     36  C   UNL     1      -2.694  -2.614  -0.389  0.00  0.00    -0.046 A 
ATOM     37  C   UNL     1      -3.310  -3.076   0.759  0.00  0.00    +0.003 A 
ATOM     38  C   UNL     1      -4.594  -3.584   0.697  0.00  0.00    +0.000 A 
ENDBRANCH  32  36
ENDBRANCH  31  32
ENDBRANCH  24  31
ENDBRANCH  23  27
ENDBRANCH  22  23
ENDBRANCH   1  22
TORSDOF 8
