REMARK  Name = ZINC07435498
REMARK  10 active torsions:
REMARK  status: ('A' for Active; 'I' for Inactive)
REMARK    1  A    between atoms: C_1  and  C_2
REMARK    2  A    between atoms: C_2  and  C_3
REMARK    3  A    between atoms: C_2  and  C_4
REMARK    4  A    between atoms: C_4  and  C_5
REMARK    5  A    between atoms: C_8  and  C_11
REMARK    6  A    between atoms: C_11  and  C_13
REMARK    7  A    between atoms: C_11  and  N_14
REMARK    8  A    between atoms: C_15  and  C_17
REMARK    9  A    between atoms: C_17  and  N_56
REMARK   10  A    between atoms: C_20  and  C_23
REMARK                            x       y       z     vdW  Elec       q    Type
REMARK                         _______ _______ _______ _____ _____    ______ ____
ROOT
ATOM      1  N   UNL     1       0.011   0.984   0.313  0.00  0.00    -0.310 N 
ATOM      2  C   UNL     1       1.180   1.654   0.280  0.00  0.00    +0.197 C 
ATOM      3  O   UNL     1       1.200   2.849   0.489  0.00  0.00    -0.278 OA
ATOM      4  H   UNL     1      -0.005   0.029   0.145  0.00  0.00    +0.149 HD
ENDROOT
BRANCH   1   5
ATOM      5  C   UNL     1      -1.236   1.699   0.595  0.00  0.00    +0.100 C 
ATOM      6  C   UNL     1      -1.431   1.806   2.109  0.00  0.00    +0.033 C 
BRANCH   5  10
ATOM      7  C   UNL     1      -4.518  -0.433  -1.116  0.00  0.00    -0.047 A 
ATOM      8  C   UNL     1      -4.485   0.948  -1.175  0.00  0.00    +0.004 A 
ATOM      9  C   UNL     1      -3.423   1.637  -0.621  0.00  0.00    +0.006 A 
ATOM     10  C   UNL     1      -2.394   0.947  -0.009  0.00  0.00    -0.027 A 
ATOM     11  C   UNL     1      -2.424  -0.434   0.045  0.00  0.00    +0.006 A 
ATOM     12  C   UNL     1      -3.489  -1.124  -0.504  0.00  0.00    +0.004 A 
BRANCH   7  13
ATOM     13  C   UNL     1      -5.676  -1.185  -1.720  0.00  0.00    +0.038 C 
BRANCH  13  15
ATOM     14  C   UNL     1      -4.178  -2.473  -3.251  0.00  0.00    +0.007 C 
ATOM     15  C   UNL     1      -5.365  -1.510  -3.183  0.00  0.00    -0.013 C 
ATOM     16  C   UNL     1      -6.588  -2.163  -3.831  0.00  0.00    +0.007 C 
ENDBRANCH  13  15
ENDBRANCH   7  13
ENDBRANCH   5  10
ENDBRANCH   1   5
BRANCH   2  17
ATOM     17  C   UNL     1       2.462   0.920  -0.017  0.00  0.00    +0.019 C 
BRANCH  17  23
ATOM     18  C   UNL     1       4.861   1.202  -0.181  0.00  0.00    -0.077 C 
ATOM     19  C   UNL     1       5.986   2.240  -0.166  0.00  0.00    -0.006 C 
ATOM     20  C   UNL     1       5.838   3.163  -1.378  0.00  0.00    +0.071 C 
ATOM     21  C   UNL     1       4.458   3.826  -1.340  0.00  0.00    -0.006 C 
ATOM     22  C   UNL     1       3.377   2.742  -1.321  0.00  0.00    -0.077 C 
ATOM     23  N   UNL     1       3.561   1.903  -0.118  0.00  0.00    +0.385 N 
ATOM     24  H   UNL     1       3.547   2.505   0.714  0.00  0.00    -0.081 HD
BRANCH  20  25
ATOM     25  C   UNL     1       6.907   4.224  -1.336  0.00  0.00    +0.213 C 
ATOM     26  O   UNL     1       6.598   5.395  -1.281  0.00  0.00    -0.276 OA
ATOM     27  N   UNL     1       8.208   3.871  -1.359  0.00  0.00    -0.329 N 
ATOM     28  H   UNL     1       8.456   2.934  -1.403  0.00  0.00    +0.145 HD
ATOM     29  H   UNL     1       8.896   4.554  -1.332  0.00  0.00    +0.145 HD
ENDBRANCH  20  25
ENDBRANCH  17  23
ENDBRANCH   2  17
TORSDOF 7
