REMARK  Name = ZINC02373213
REMARK  4 active torsions:
REMARK  status: ('A' for Active; 'I' for Inactive)
REMARK    1  A    between atoms: C_1  and  C_2
REMARK    2  A    between atoms: C_9  and  C_16
REMARK    3  A    between atoms: C_9  and  C_17
REMARK    4  A    between atoms: C_18  and  C_20
REMARK                            x       y       z     vdW  Elec       q    Type
REMARK                         _______ _______ _______ _____ _____    ______ ____
ROOT
ATOM      1  C   UNL     1       8.546   2.477  -0.952  0.00  0.00    +0.044 C 
ATOM      2  C   UNL     1       7.063   2.392  -1.206  0.00  0.00    -0.049 A 
ATOM      3  C   UNL     1       6.594   1.645  -2.273  0.00  0.00    +0.004 A 
ATOM      4  C   UNL     1       5.234   1.567  -2.522  0.00  0.00    +0.011 A 
ATOM      5  C   UNL     1       4.355   2.242  -1.690  0.00  0.00    +0.006 A 
ATOM      6  C   UNL     1       4.821   2.985  -0.605  0.00  0.00    +0.046 A 
ATOM      7  C   UNL     1       6.187   3.061  -0.372  0.00  0.00    +0.027 A 
ATOM      8  N   UNL     1       3.919   3.641   0.240  0.00  0.00    -0.257 N 
ATOM      9  C   UNL     1       2.643   4.127  -0.300  0.00  0.00    +0.069 C 
ATOM     10  C   UNL     1       2.091   3.092  -1.251  0.00  0.00    +0.029 A 
ATOM     11  C   UNL     1       2.866   2.184  -1.952  0.00  0.00    +0.017 A 
ATOM     12  C   UNL     1       2.386   1.230  -2.881  0.00  0.00    +0.071 A 
ATOM     13  S   UNL     1       3.368   0.137  -3.760  0.00  0.00    -0.043 S 
ATOM     14  S   UNL     1       0.657   1.331  -3.001  0.00  0.00    -0.044 S 
ATOM     15  S   UNL     1       0.413   2.891  -1.630  0.00  0.00    -0.053 S 
ATOM     16  C   UNL     1       2.870   5.442  -1.049  0.00  0.00    +0.037 C 
ATOM     17  C   UNL     1       1.651   4.353   0.844  0.00  0.00    +0.037 C 
ATOM     18  C   UNL     1       4.220   3.825   1.540  0.00  0.00    +0.253 C 
ATOM     19  O   UNL     1       3.432   4.394   2.272  0.00  0.00    -0.270 OA
ENDROOT
BRANCH  18  20
ATOM     20  C   UNL     1       5.507   3.337   2.078  0.00  0.00    +0.050 A 
ATOM     21  C   UNL     1       6.027   2.114   1.648  0.00  0.00    +0.014 A 
ATOM     22  C   UNL     1       7.229   1.664   2.154  0.00  0.00    +0.001 A 
ATOM     23  C   UNL     1       7.918   2.420   3.085  0.00  0.00    +0.001 A 
ATOM     24  C   UNL     1       7.409   3.632   3.515  0.00  0.00    +0.015 A 
ATOM     25  C   UNL     1       6.210   4.098   3.014  0.00  0.00    +0.025 A 
ATOM     26  I   UNL     1       5.445   5.938   3.660  0.00  0.00    -0.043 I 
ENDBRANCH  18  20
TORSDOF 1
