REMARK  Name = ZINC16227396
REMARK  14 active torsions:
REMARK  status: ('A' for Active; 'I' for Inactive)
REMARK    1  A    between atoms: C_1  and  O_2
REMARK    2  A    between atoms: O_2  and  C_3
REMARK    3  A    between atoms: C_6  and  C_11
REMARK    4  A    between atoms: C_8  and  O_9
REMARK    5  A    between atoms: O_9  and  C_10
REMARK    6  A    between atoms: C_11  and  C_12
REMARK    7  A    between atoms: C_12  and  N_58
REMARK    8  A    between atoms: C_13  and  C_14
REMARK    9  A    between atoms: C_13  and  N_58
REMARK   10  A    between atoms: C_16  and  O_31
REMARK   11  A    between atoms: C_17  and  O_21
REMARK   12  A    between atoms: O_21  and  C_22
REMARK   13  A    between atoms: C_22  and  C_23
REMARK   14  A    between atoms: O_31  and  C_32
REMARK                            x       y       z     vdW  Elec       q    Type
REMARK                         _______ _______ _______ _____ _____    ______ ____
ROOT
ATOM      1  C   UNL     1      -0.368   5.119   0.561  0.00  0.00    -0.059 A 
ATOM      2  C   UNL     1      -0.259   3.751   0.395  0.00  0.00    +0.051 A 
ATOM      3  C   UNL     1      -0.787   2.893   1.346  0.00  0.00    +0.163 A 
ATOM      4  C   UNL     1      -1.432   3.411   2.465  0.00  0.00    +0.181 A 
ATOM      5  C   UNL     1      -1.532   4.784   2.630  0.00  0.00    +0.086 A 
ATOM      6  C   UNL     1      -1.002   5.635   1.675  0.00  0.00    +0.025 A 
ATOM      7 CL   UNL     1      -2.327   5.436   4.028  0.00  0.00    -0.080 Cl
ENDROOT
BRANCH   3   8
ATOM      8  O   UNL     1      -0.682   1.547   1.184  0.00  0.00    -0.491 OA
ATOM      9  C   UNL     1      -0.013   1.086   0.008  0.00  0.00    +0.277 C 
ENDBRANCH   3   8
BRANCH   1  10
ATOM     10  C   UNL     1       0.207   6.050  -0.475  0.00  0.00    -0.047 C 
BRANCH  10  11
ATOM     11  N   UNL     1      -0.822   6.335  -1.493  0.00  0.00    +0.382 N 
ATOM     12  H   UNL     1      -1.112   5.456  -1.937  0.00  0.00    -0.085 HD
ATOM     13  H   UNL     1      -1.632   6.775  -1.041  0.00  0.00    -0.085 HD
BRANCH  11  14
ATOM     14  C   UNL     1      -0.286   7.246  -2.522  0.00  0.00    -0.077 C 
BRANCH  14  15
ATOM     15  C   UNL     1      -1.373   7.524  -3.561  0.00  0.00    +0.016 C 
BRANCH  15  19
ATOM     16  C   UNL     1       0.156  10.168  -6.554  0.00  0.00    +0.161 A 
ATOM     17  C   UNL     1      -0.465  10.679  -5.426  0.00  0.00    +0.049 A 
ATOM     18  C   UNL     1      -0.963   9.822  -4.463  0.00  0.00    +0.007 A 
ATOM     19  C   UNL     1      -0.834   8.454  -4.617  0.00  0.00    -0.045 A 
ATOM     20  C   UNL     1      -0.215   7.937  -5.740  0.00  0.00    +0.053 A 
ATOM     21  C   UNL     1       0.282   8.791  -6.712  0.00  0.00    +0.162 A 
BRANCH  16  23
ATOM     22  C   UNL     1       0.478  12.411  -7.275  0.00  0.00    +0.277 C 
ATOM     23  O   UNL     1       0.643  11.011  -7.504  0.00  0.00    -0.491 OA
ENDBRANCH  16  23
BRANCH  21  24
ATOM     24  O   UNL     1       0.891   8.285  -7.817  0.00  0.00    -0.491 OA
ATOM     25  C   UNL     1       0.984   6.862  -7.912  0.00  0.00    +0.277 C 
ENDBRANCH  21  24
ENDBRANCH  15  19
ENDBRANCH  14  15
ENDBRANCH  11  14
ENDBRANCH  10  11
ENDBRANCH   1  10
BRANCH   4  26
ATOM     26  O   UNL     1      -1.957   2.573   3.399  0.00  0.00    -0.482 OA
BRANCH  26  27
ATOM     27  C   UNL     1      -1.101   2.184   4.476  0.00  0.00    +0.266 C 
BRANCH  27  28
ATOM     28  C   UNL     1      -1.850   1.262   5.404  0.00  0.00    +0.008 A 
ATOM     29  C   UNL     1      -3.163   0.925   5.133  0.00  0.00    +0.010 A 
ATOM     30  C   UNL     1      -3.850   0.079   5.983  0.00  0.00    +0.020 A 
ATOM     31  C   UNL     1      -3.223  -0.432   7.105  0.00  0.00    +0.042 A 
ATOM     32  C   UNL     1      -1.909  -0.096   7.377  0.00  0.00    +0.040 A 
ATOM     33  C   UNL     1      -1.220   0.747   6.523  0.00  0.00    +0.049 A 
ATOM     34 CL   UNL     1       0.431   1.164   6.859  0.00  0.00    -0.083 Cl
ATOM     35 CL   UNL     1      -4.086  -1.494   8.173  0.00  0.00    -0.083 Cl
ENDBRANCH  27  28
ENDBRANCH  26  27
ENDBRANCH   4  26
TORSDOF 11
