REMARK  Name = ZINC38984106
REMARK  7 active torsions:
REMARK  status: ('A' for Active; 'I' for Inactive)
REMARK    1  A    between atoms: C_1  and  C_2
REMARK    2  A    between atoms: C_5  and  C_32
REMARK    3  A    between atoms: C_6  and  S_8
REMARK    4  A    between atoms: S_8  and  N_11
REMARK    5  A    between atoms: C_13  and  N_23
REMARK    6  A    between atoms: N_23  and  C_24
REMARK    7  A    between atoms: C_29  and  C_30
REMARK                            x       y       z     vdW  Elec       q    Type
REMARK                         _______ _______ _______ _____ _____    ______ ____
ROOT
ATOM      1  N   UNL     1      -1.264  -3.918   2.380  0.00  0.00    -0.110 NA
ATOM      2  C   UNL     1      -1.521  -4.473   3.528  0.00  0.00    +0.192 C 
ATOM      3  C   UNL     1      -2.843  -5.167   3.766  0.00  0.00    +0.237 C 
ATOM      4  N   UNL     1      -3.072  -5.775   5.085  0.00  0.00    -0.359 N 
ATOM      5  C   UNL     1      -2.130  -5.689   5.982  0.00  0.00    +0.063 A 
ATOM      6  C   UNL     1      -2.308  -6.280   7.316  0.00  0.00    +0.027 A 
ATOM      7  C   UNL     1      -1.309  -6.171   8.219  0.00  0.00    +0.002 A 
ATOM      8  C   UNL     1      -0.108  -5.508   7.915  0.00  0.00    +0.002 A 
ATOM      9  C   UNL     1       0.128  -4.940   6.712  0.00  0.00    +0.030 A 
ATOM     10  C   UNL     1      -0.851  -4.995   5.689  0.00  0.00    +0.089 A 
ATOM     11  N   UNL     1      -0.613  -4.444   4.517  0.00  0.00    -0.226 NA
ATOM     12  H   UNL     1      -3.905  -6.230   5.284  0.00  0.00    +0.162 HD
ENDROOT
BRANCH   1  13
ATOM     13  S   UNL     1       0.191  -3.168   2.130  0.00  0.00    +0.101 S 
ATOM     14  O   UNL     1       1.184  -4.184   2.171  0.00  0.00    -0.146 OA
ATOM     15  O   UNL     1       0.220  -2.039   2.993  0.00  0.00    -0.146 OA
BRANCH  13  21
ATOM     16  C   UNL     1       0.253   0.799  -1.273  0.00  0.00    +0.044 C 
ATOM     17  C   UNL     1       0.208  -0.688  -1.031  0.00  0.00    -0.049 A 
ATOM     18  C   UNL     1       0.158  -1.561  -2.102  0.00  0.00    +0.004 A 
ATOM     19  C   UNL     1       0.118  -2.925  -1.880  0.00  0.00    +0.005 A 
ATOM     20  C   UNL     1       0.128  -3.416  -0.587  0.00  0.00    -0.024 A 
ATOM     21  C   UNL     1       0.179  -2.543   0.483  0.00  0.00    +0.116 A 
ATOM     22  C   UNL     1       0.224  -1.179   0.261  0.00  0.00    +0.032 A 
ATOM     23  C   UNL     1       0.082  -4.902  -0.345  0.00  0.00    +0.046 C 
ENDBRANCH  13  21
ENDBRANCH   1  13
BRANCH   3  24
ATOM     24  N   UNL     1      -2.983  -6.220   2.758  0.00  0.00    -0.318 N 
ATOM     25  H   UNL     1      -2.229  -6.792   2.546  0.00  0.00    +0.148 HD
BRANCH  24  26
ATOM     26  C   UNL     1      -4.203  -6.402   2.102  0.00  0.00    +0.033 A 
ATOM     27  C   UNL     1      -5.319  -5.672   2.493  0.00  0.00    +0.043 A 
ATOM     28  C   UNL     1      -6.524  -5.854   1.841  0.00  0.00    +0.043 A 
ATOM     29  C   UNL     1      -6.619  -6.762   0.800  0.00  0.00    +0.020 A 
ATOM     30  C   UNL     1      -5.510  -7.489   0.409  0.00  0.00    +0.006 A 
ATOM     31  C   UNL     1      -4.301  -7.307   1.053  0.00  0.00    -0.029 A 
ATOM     32  C   UNL     1      -3.091  -8.095   0.621  0.00  0.00    +0.045 C 
ATOM     33 CL   UNL     1      -7.919  -4.944   2.329  0.00  0.00    -0.083 Cl
ENDBRANCH  24  26
ENDBRANCH   3  24
TORSDOF 4
