REMARK  Name = ZINC04811681
REMARK  7 active torsions:
REMARK  status: ('A' for Active; 'I' for Inactive)
REMARK    1  A    between atoms: C_1  and  C_2
REMARK    2  A    between atoms: C_2  and  C_3
REMARK    3  A    between atoms: C_10  and  C_12
REMARK    4  A    between atoms: C_17  and  N_18
REMARK    5  A    between atoms: N_18  and  C_19
REMARK    6  A    between atoms: C_19  and  C_20
REMARK    7  A    between atoms: C_20  and  O_21
REMARK                            x       y       z     vdW  Elec       q    Type
REMARK                         _______ _______ _______ _____ _____    ______ ____
ROOT
ATOM      1  C   UNL     1       1.226   1.749   0.792  0.00  0.00    +0.058 A 
ATOM      2  C   UNL     1       2.436   1.058   0.762  0.00  0.00    +0.015 A 
ATOM      3  C   UNL     1       3.636   1.743   0.834  0.00  0.00    +0.013 A 
ATOM      4  C   UNL     1       3.648   3.130   0.949  0.00  0.00    +0.035 A 
ATOM      5  C   UNL     1       2.437   3.843   0.986  0.00  0.00    +0.055 A 
ATOM      6  C   UNL     1       1.220   3.151   0.908  0.00  0.00    +0.051 A 
ATOM      7  C   UNL     1       2.446   5.311   1.107  0.00  0.00    +0.196 C 
ATOM      8  O   UNL     1       1.397   5.924   1.138  0.00  0.00    -0.287 OA
ATOM      9  C   UNL     1       3.730   6.037   1.190  0.00  0.00    +0.033 A 
ATOM     10  C   UNL     1       3.746   7.424   1.303  0.00  0.00    +0.012 A 
ATOM     11  C   UNL     1       4.953   8.096   1.379  0.00  0.00    +0.001 A 
ATOM     12  C   UNL     1       6.147   7.399   1.343  0.00  0.00    +0.001 A 
ATOM     13  C   UNL     1       6.150   6.020   1.231  0.00  0.00    +0.012 A 
ATOM     14  C   UNL     1       4.944   5.328   1.153  0.00  0.00    +0.033 A 
ATOM     15  C   UNL     1       4.936   3.856   1.032  0.00  0.00    +0.195 C 
ATOM     16  O   UNL     1       5.984   3.242   1.001  0.00  0.00    -0.287 OA
ENDROOT
BRANCH   1  23
ATOM     17  C   UNL     1      -1.608  -0.671   1.569  0.00  0.00    +0.076 C 
ATOM     18  C   UNL     1      -2.195  -0.629   2.983  0.00  0.00    +0.022 C 
ATOM     19  C   UNL     1      -1.184  -1.218   3.969  0.00  0.00    +0.003 C 
ATOM     20  C   UNL     1       0.095  -0.378   3.953  0.00  0.00    +0.019 C 
ATOM     21  C   UNL     1       0.711  -0.421   2.546  0.00  0.00    +0.108 C 
ATOM     22  N   UNL     1      -0.306   0.011   1.577  0.00  0.00    -0.294 N 
ATOM     23  C   UNL     1      -0.049   1.009   0.709  0.00  0.00    +0.249 C 
ATOM     24  O   UNL     1      -0.864   1.297  -0.145  0.00  0.00    -0.270 OA
BRANCH  17  26
ATOM     25  C   UNL     1      -3.926  -0.635   0.637  0.00  0.00    +0.006 C 
ATOM     26  C   UNL     1      -2.553   0.040   0.599  0.00  0.00    +0.019 C 
ENDBRANCH  17  26
ENDBRANCH   1  23
BRANCH   6  27
ATOM     27  N   UNL     1       0.025   3.840   0.944  0.00  0.00    -0.341 N 
ATOM     28  H   UNL     1      -0.693   3.295   1.397  0.00  0.00    +0.146 HD
BRANCH  27  29
ATOM     29  C   UNL     1      -0.392   4.240  -0.407  0.00  0.00    +0.129 C 
BRANCH  29  30
ATOM     30  C   UNL     1      -1.669   5.078  -0.318  0.00  0.00    +0.174 C 
BRANCH  30  31
ATOM     31  O   UNL     1      -1.391   6.299   0.370  0.00  0.00    -0.393 OA
ATOM     32  H   UNL     1      -2.158   6.881   0.463  0.00  0.00    +0.209 HD
ENDBRANCH  30  31
ENDBRANCH  29  30
ENDBRANCH  27  29
ENDBRANCH   6  27
TORSDOF 6
