REMARK  Name = ZINC03308221
REMARK  11 active torsions:
REMARK  status: ('A' for Active; 'I' for Inactive)
REMARK    1  A    between atoms: C_1  and  C_2
REMARK    2  A    between atoms: C_5  and  S_11
REMARK    3  A    between atoms: C_7  and  N_8
REMARK    4  A    between atoms: S_11  and  O_14
REMARK    5  A    between atoms: O_14  and  C_15
REMARK    6  A    between atoms: C_18  and  C_23
REMARK    7  A    between atoms: C_20  and  O_21
REMARK    8  A    between atoms: O_21  and  C_22
REMARK    9  A    between atoms: N_27  and  C_31
REMARK   10  A    between atoms: C_31  and  C_32
REMARK   11  A    between atoms: C_32  and  N_52
REMARK                            x       y       z     vdW  Elec       q    Type
REMARK                         _______ _______ _______ _____ _____    ______ ____
ROOT
ATOM      1  C   UNL     1      -1.049   1.372   3.527  0.00  0.00    +0.198 A 
ATOM      2  C   UNL     1      -0.114   1.414   4.552  0.00  0.00    +0.053 A 
ATOM      3  C   UNL     1       1.153   0.909   4.355  0.00  0.00    +0.012 A 
ATOM      4  C   UNL     1       1.499   0.352   3.118  0.00  0.00    -0.020 A 
ATOM      5  C   UNL     1       0.553   0.306   2.087  0.00  0.00    +0.057 A 
ATOM      6  C   UNL     1      -0.712   0.819   2.292  0.00  0.00    +0.165 A 
ENDROOT
BRANCH   4   7
ATOM      7  C   UNL     1       2.848  -0.187   2.905  0.00  0.00    +0.028 C 
ATOM      8  C   UNL     1       3.459  -0.033   1.703  0.00  0.00    +0.080 C 
ATOM      9  C   UNL     1       3.042   0.763   0.531  0.00  0.00    +0.260 C 
ATOM     10  O   UNL     1       2.015   1.416   0.534  0.00  0.00    -0.269 OA
ATOM     11  N   UNL     1       3.841   0.730  -0.522  0.00  0.00    -0.230 N 
ATOM     12  C   UNL     1       4.978   0.004  -0.522  0.00  0.00    +0.286 C 
ATOM     13  O   UNL     1       5.797  -0.116  -1.412  0.00  0.00    -0.262 OA
ATOM     14  S   UNL     1       4.992  -0.730   1.105  0.00  0.00    -0.026 S 
BRANCH  11  15
ATOM     15  C   UNL     1       3.482   1.498  -1.717  0.00  0.00    +0.098 C 
BRANCH  15  16
ATOM     16  C   UNL     1       4.082   2.902  -1.620  0.00  0.00    -0.067 C 
BRANCH  16  19
ATOM     17  H   UNL     1       2.721   3.699  -2.944  0.00  0.00    -0.090 HD
ATOM     18  H   UNL     1       4.106   4.604  -2.778  0.00  0.00    -0.090 HD
ATOM     19  N   UNL     1       3.733   3.658  -2.836  0.00  0.00    +0.379 N 
ATOM     20  H   UNL     1       4.139   3.188  -3.654  0.00  0.00    -0.090 HD
ENDBRANCH  16  19
ENDBRANCH  15  16
ENDBRANCH  11  15
ENDBRANCH   4   7
BRANCH   6  21
ATOM     21  O   UNL     1      -1.632   0.780   1.291  0.00  0.00    -0.491 OA
ATOM     22  C   UNL     1      -1.218   0.199   0.052  0.00  0.00    +0.277 C 
ENDBRANCH   6  21
BRANCH   1  23
ATOM     23  O   UNL     1      -2.297   1.871   3.727  0.00  0.00    -0.339 OA
BRANCH  23  24
ATOM     24  S   UNL     1      -3.293   0.852   4.260  0.00  0.00    +0.151 S 
ATOM     25  O   UNL     1      -4.572   1.471   4.213  0.00  0.00    -0.131 OA
ATOM     26  O   UNL     1      -3.016  -0.373   3.596  0.00  0.00    -0.131 OA
BRANCH  24  31
ATOM     27  C   UNL     1      -2.011  -0.018  10.091  0.00  0.00    +0.046 C 
ATOM     28  C   UNL     1      -2.332   0.199   8.635  0.00  0.00    -0.020 A 
ATOM     29  C   UNL     1      -1.731  -0.588   7.670  0.00  0.00    +0.007 A 
ATOM     30  C   UNL     1      -2.028  -0.392   6.335  0.00  0.00    +0.031 A 
ATOM     31  C   UNL     1      -2.919   0.598   5.963  0.00  0.00    +0.130 A 
ATOM     32  C   UNL     1      -3.520   1.385   6.927  0.00  0.00    +0.063 A 
ATOM     33  C   UNL     1      -3.226   1.185   8.264  0.00  0.00    +0.131 A 
BRANCH  33  34
ATOM     34  N   UNL     1      -3.870   2.028   9.297  0.00  0.00    +0.057 N 
ATOM     35  O   UNL     1      -4.559   2.976   8.966  0.00  0.00    -0.126 OA
ATOM     36  O   UNL     1      -3.709   1.773  10.477  0.00  0.00    -0.126 OA
ENDBRANCH  33  34
ENDBRANCH  24  31
ENDBRANCH  23  24
ENDBRANCH   1  23
TORSDOF 9
