REMARK  Name = ZINC21891878
REMARK  6 active torsions:
REMARK  status: ('A' for Active; 'I' for Inactive)
REMARK    1  A    between atoms: C_1  and  N_2
REMARK    2  A    between atoms: N_2  and  C_3
REMARK    3  A    between atoms: N_2  and  C_4
REMARK    4  A    between atoms: C_7  and  C_10
REMARK    5  A    between atoms: N_27  and  C_28
REMARK    6  A    between atoms: C_28  and  C_29
REMARK                            x       y       z     vdW  Elec       q    Type
REMARK                         _______ _______ _______ _____ _____    ______ ____
ROOT
ATOM      1  C   UNL     1       2.450   1.171  -0.010  0.00  0.00    +0.155 C 
ATOM      2  C   UNL     1       3.385   1.905  -0.942  0.00  0.00    +0.049 A 
ATOM      3  C   UNL     1       3.871   1.501  -2.126  0.00  0.00    +0.025 A 
ATOM      4  C   UNL     1       4.701   2.533  -2.615  0.00  0.00    +0.020 A 
ATOM      5  C   UNL     1       4.689   3.531  -1.704  0.00  0.00    +0.091 A 
ATOM      6  N   UNL     1       3.886   3.153  -0.678  0.00  0.00    -0.318 N 
ATOM      7  C   UNL     1       3.563   3.848   0.498  0.00  0.00    +0.051 A 
ATOM      8  C   UNL     1       4.549   4.411   1.290  0.00  0.00    +0.026 A 
ATOM      9  C   UNL     1       4.210   4.977   2.505  0.00  0.00    +0.002 A 
ATOM     10  C   UNL     1       2.892   4.982   2.923  0.00  0.00    +0.000 A 
ATOM     11  C   UNL     1       1.903   4.442   2.121  0.00  0.00    +0.007 A 
ATOM     12  C   UNL     1       2.232   3.892   0.899  0.00  0.00    -0.006 A 
ATOM     13  C   UNL     1       1.169   3.346  -0.013  0.00  0.00    +0.147 C 
ATOM     14  N   UNL     1       1.150   1.871  -0.007  0.00  0.00    -0.269 N 
ATOM     15  C   UNL     1      -0.011   1.187   0.006  0.00  0.00    +0.304 C 
ATOM     16  O   UNL     1      -0.001  -0.028   0.010  0.00  0.00    -0.253 OA
ATOM     17  N   UNL     1      -1.184   1.851   0.008  0.00  0.00    -0.295 N 
ATOM     18  H   UNL     1      -1.194   2.951   0.004  0.00  0.00    +0.151 HD
ENDROOT
BRANCH   1  22
ATOM     19  C   UNL     1       4.074   1.145   3.943  0.00  0.00    +0.029 A 
ATOM     20  C   UNL     1       2.697   1.154   3.756  0.00  0.00    +0.023 A 
ATOM     21  C   UNL     1       2.176   1.163   2.477  0.00  0.00    +0.007 A 
ATOM     22  C   UNL     1       3.023   1.162   1.384  0.00  0.00    -0.021 A 
ATOM     23  C   UNL     1       4.393   1.147   1.567  0.00  0.00    +0.007 A 
ATOM     24  C   UNL     1       4.921   1.144   2.843  0.00  0.00    +0.023 A 
BRANCH  19  26
ATOM     25  C   UNL     1       3.714   1.018   6.392  0.00  0.00    +0.129 C 
ATOM     26  N   UNL     1       4.604   1.136   5.235  0.00  0.00    -0.336 N 
ATOM     27  C   UNL     1       6.052   1.246   5.433  0.00  0.00    +0.129 C 
ENDBRANCH  19  26
ENDBRANCH   1  22
BRANCH  17  28
ATOM     28  C   UNL     1      -2.447   1.108   0.016  0.00  0.00    +0.141 C 
BRANCH  28  29
ATOM     29  C   UNL     1      -3.600   2.078   0.018  0.00  0.00    -0.030 A 
ATOM     30  C   UNL     1      -4.128   2.522   1.215  0.00  0.00    +0.005 A 
ATOM     31  C   UNL     1      -5.183   3.416   1.216  0.00  0.00    +0.000 A 
ATOM     32  C   UNL     1      -5.717   3.856   0.020  0.00  0.00    +0.000 A 
ATOM     33  C   UNL     1      -5.193   3.407  -1.178  0.00  0.00    +0.000 A 
ATOM     34  C   UNL     1      -4.135   2.518  -1.179  0.00  0.00    +0.005 A 
ENDBRANCH  28  29
ENDBRANCH  17  28
TORSDOF 4
