REMARK  Name = ZINC02468532
REMARK  4 active torsions:
REMARK  status: ('A' for Active; 'I' for Inactive)
REMARK    1  A    between atoms: C_1  and  C_2
REMARK    2  A    between atoms: N_17  and  C_18
REMARK    3  A    between atoms: C_22  and  S_24
REMARK    4  A    between atoms: S_24  and  C_25
REMARK                            x       y       z     vdW  Elec       q    Type
REMARK                         _______ _______ _______ _____ _____    ______ ____
ROOT
ATOM      1  C   UNL     1       4.722   1.434   0.631  0.00  0.00    +0.079 C 
ATOM      2  C   UNL     1       4.862   0.129  -0.154  0.00  0.00    +0.185 C 
ATOM      3  C   UNL     1       6.176  -0.559   0.243  0.00  0.00    +0.096 C 
ATOM      4  C   UNL     1       6.201  -1.919  -0.472  0.00  0.00    +0.114 C 
ATOM      5  C   UNL     1       5.990  -1.681  -1.951  0.00  0.00    +0.016 A 
ATOM      6  C   UNL     1       6.442  -2.626  -2.853  0.00  0.00    +0.024 A 
ATOM      7  C   UNL     1       6.254  -2.438  -4.210  0.00  0.00    +0.018 A 
ATOM      8  C   UNL     1       5.612  -1.300  -4.666  0.00  0.00    +0.019 A 
ATOM      9  C   UNL     1       5.162  -0.354  -3.768  0.00  0.00    +0.047 A 
ATOM     10  C   UNL     1       5.352  -0.539  -2.402  0.00  0.00    +0.128 A 
ATOM     11  O   UNL     1       4.902   0.417  -1.549  0.00  0.00    -0.468 OA
ATOM     12 BR   UNL     1       6.875  -3.732  -5.441  0.00  0.00    -0.050 Br
ATOM     13  N   UNL     1       5.052  -2.699   0.015  0.00  0.00    -0.292 N 
ATOM     14  C   UNL     1       3.888  -2.080   0.276  0.00  0.00    +0.310 C 
ATOM     15  O   UNL     1       2.932  -2.748   0.620  0.00  0.00    -0.252 OA
ATOM     16  N   UNL     1       3.741  -0.751   0.164  0.00  0.00    -0.216 N 
ATOM     17  H   UNL     1       5.135  -3.656   0.151  0.00  0.00    +0.151 HD
ENDROOT
BRANCH  16  18
ATOM     18  C   UNL     1       2.474  -0.189   0.365  0.00  0.00    +0.043 A 
ATOM     19  C   UNL     1       1.657   0.090  -0.724  0.00  0.00    +0.024 A 
ATOM     20  C   UNL     1       0.407   0.645  -0.527  0.00  0.00    +0.003 A 
ATOM     21  C   UNL     1      -0.035   0.923   0.751  0.00  0.00    +0.015 A 
ATOM     22  C   UNL     1       0.777   0.646   1.845  0.00  0.00    +0.009 A 
ATOM     23  C   UNL     1       2.034   0.089   1.650  0.00  0.00    +0.038 A 
BRANCH  22  24
ATOM     24  S   UNL     1       0.213   1.002   3.476  0.00  0.00    -0.129 S 
ATOM     25  C   UNL     1      -1.441   1.702   3.225  0.00  0.00    +0.090 C 
ENDBRANCH  22  24
ENDBRANCH  16  18
TORSDOF 2
