REMARK  Name = ZINC39354981
REMARK  7 active torsions:
REMARK  status: ('A' for Active; 'I' for Inactive)
REMARK    1  A    between atoms: C_1  and  C_2
REMARK    2  A    between atoms: N_9  and  C_19
REMARK    3  A    between atoms: C_11  and  C_14
REMARK    4  A    between atoms: C_19  and  C_20
REMARK    5  A    between atoms: N_22  and  C_23
REMARK    6  A    between atoms: C_23  and  C_24
REMARK    7  A    between atoms: C_24  and  C_30
REMARK                            x       y       z     vdW  Elec       q    Type
REMARK                         _______ _______ _______ _____ _____    ______ ____
ROOT
ATOM      1  C   UNL     1       1.983  -3.978   4.190  0.00  0.00    +0.180 C 
ENDROOT
BRANCH   1  10
ATOM      2  C   UNL     1       0.171   0.888  -0.221  0.00  0.00    +0.044 C 
ATOM      3  C   UNL     1       0.304  -0.611  -0.149  0.00  0.00    -0.050 A 
ATOM      4  C   UNL     1       0.416  -1.351  -1.311  0.00  0.00    +0.007 A 
ATOM      5  C   UNL     1       0.549  -2.726  -1.251  0.00  0.00    +0.046 A 
ATOM      6  C   UNL     1       0.565  -3.361  -0.017  0.00  0.00    +0.126 A 
ATOM      7  C   UNL     1       0.436  -2.618   1.141  0.00  0.00    +0.009 A 
ATOM      8  C   UNL     1       0.321  -1.244   1.082  0.00  0.00    +0.012 A 
ATOM      9  C   UNL     1       0.398  -3.329   2.480  0.00  0.00    +0.124 C 
ATOM     10  N   UNL     1       1.720  -3.907   2.746  0.00  0.00    -0.286 NA
ATOM     11  C   UNL     1       1.897  -5.213   2.117  0.00  0.00    +0.134 C 
ATOM     12  C   UNL     1       1.968  -5.154   0.607  0.00  0.00    +0.218 C 
ATOM     13  O   UNL     1       0.722  -4.711   0.056  0.00  0.00    -0.483 OA
BRANCH  12  14
ATOM     14  C   UNL     1       2.286  -6.526   0.071  0.00  0.00    +0.001 A 
ATOM     15  C   UNL     1       3.591  -6.886  -0.206  0.00  0.00    +0.015 A 
ATOM     16  C   UNL     1       3.843  -8.128  -0.687  0.00  0.00    +0.045 A 
ATOM     17  S   UNL     1       2.205  -8.834  -0.761  0.00  0.00    -0.105 S 
ATOM     18  C   UNL     1       1.296  -7.428  -0.141  0.00  0.00    +0.052 A 
ENDBRANCH  12  14
ENDBRANCH   1  10
BRANCH   1  19
ATOM     19  C   UNL     1       2.082  -2.583   4.751  0.00  0.00    +0.227 C 
ATOM     20  O   UNL     1       1.947  -1.624   4.021  0.00  0.00    -0.274 OA
ATOM     21  N   UNL     1       2.321  -2.401   6.065  0.00  0.00    -0.313 N 
ATOM     22  H   UNL     1       2.429  -3.167   6.649  0.00  0.00    +0.149 HD
BRANCH  21  23
ATOM     23  C   UNL     1       2.417  -1.044   6.611  0.00  0.00    +0.116 C 
BRANCH  23  24
ATOM     24  C   UNL     1       2.575  -1.117   8.131  0.00  0.00    +0.015 C 
ATOM     25  C   UNL     1       2.635   0.301   8.708  0.00  0.00    +0.041 C 
ATOM     26  C   UNL     1       3.872   1.016   8.157  0.00  0.00    +0.160 C 
ATOM     27  O   UNL     1       5.041   0.265   8.487  0.00  0.00    -0.380 OA
ATOM     28  C   UNL     1       5.063  -1.053   7.935  0.00  0.00    +0.160 C 
ATOM     29  C   UNL     1       3.874  -1.851   8.477  0.00  0.00    +0.041 C 
BRANCH  24  30
ATOM     30  C   UNL     1       1.404  -1.856   8.725  0.00  0.00    -0.040 A 
ATOM     31  C   UNL     1       1.615  -3.003   9.468  0.00  0.00    +0.004 A 
ATOM     32  C   UNL     1       0.541  -3.681  10.013  0.00  0.00    +0.000 A 
ATOM     33  C   UNL     1      -0.744  -3.212   9.816  0.00  0.00    +0.000 A 
ATOM     34  C   UNL     1      -0.955  -2.065   9.074  0.00  0.00    +0.000 A 
ATOM     35  C   UNL     1       0.119  -1.384   8.533  0.00  0.00    +0.004 A 
ENDBRANCH  24  30
ENDBRANCH  23  24
ENDBRANCH  21  23
ENDBRANCH   1  19
TORSDOF 6
