REMARK  Name = ZINC15072226
REMARK  9 active torsions:
REMARK  status: ('A' for Active; 'I' for Inactive)
REMARK    1  A    between atoms: C_1  and  C_2
REMARK    2  A    between atoms: N_5  and  S_11
REMARK    3  A    between atoms: C_7  and  C_10
REMARK    4  A    between atoms: S_11  and  C_14
REMARK    5  A    between atoms: C_15  and  C_32
REMARK    6  A    between atoms: C_23  and  C_25
REMARK    7  A    between atoms: C_25  and  C_26
REMARK    8  A    between atoms: C_32  and  O_34
REMARK    9  A    between atoms: O_34  and  C_35
REMARK                            x       y       z     vdW  Elec       q    Type
REMARK                         _______ _______ _______ _____ _____    ______ ____
ROOT
ATOM      1  C   UNL     1      -4.468   1.025   1.998  0.00  0.00    +0.157 A 
ATOM      2  C   UNL     1      -3.136   1.267   2.259  0.00  0.00    +0.096 A 
ATOM      3  C   UNL     1      -2.221   1.312   1.134  0.00  0.00    -0.018 A 
ATOM      4  C   UNL     1      -2.791   1.102  -0.075  0.00  0.00    +0.013 A 
ATOM      5  S   UNL     1      -4.508   0.856   0.273  0.00  0.00    -0.071 S 
ATOM      6  C   UNL     1      -2.099   1.086  -1.404  0.00  0.00    +0.150 C 
ATOM      7  N   UNL     1      -0.723   1.573  -1.184  0.00  0.00    -0.296 N 
ATOM      8  C   UNL     1      -0.013   1.086   0.008  0.00  0.00    +0.113 C 
ATOM      9  C   UNL     1      -0.728   1.579   1.268  0.00  0.00    +0.056 C 
ATOM     10  C   UNL     1      -0.139   2.430  -2.044  0.00  0.00    +0.220 C 
ATOM     11  O   UNL     1       0.993   2.815  -1.842  0.00  0.00    -0.275 OA
ENDROOT
BRANCH   1  12
ATOM     12  S   UNL     1      -5.805   0.914   3.140  0.00  0.00    +0.068 S 
ATOM     13  O   UNL     1      -5.988  -0.468   3.418  0.00  0.00    -0.152 OA
ATOM     14  O   UNL     1      -5.548   1.869   4.160  0.00  0.00    -0.152 OA
BRANCH  12  18
ATOM     15  C   UNL     1      -9.286   0.160  -0.521  0.00  0.00    +0.039 C 
ATOM     16  C   UNL     1      -8.255   1.029   0.203  0.00  0.00    +0.131 C 
ATOM     17  C   UNL     1      -8.014   0.471   1.611  0.00  0.00    +0.140 C 
ATOM     18  N   UNL     1      -7.168   1.422   2.348  0.00  0.00    -0.171 NA
ATOM     19  C   UNL     1      -7.572   2.837   2.367  0.00  0.00    +0.140 C 
ATOM     20  C   UNL     1      -7.832   3.280   0.919  0.00  0.00    +0.131 C 
ATOM     21  O   UNL     1      -8.745   2.368   0.305  0.00  0.00    -0.371 OA
ATOM     22  C   UNL     1      -8.434   4.687   0.916  0.00  0.00    +0.039 C 
ENDBRANCH  12  18
ENDBRANCH   1  12
BRANCH   2  23
ATOM     23  C   UNL     1      -2.659   1.473   3.635  0.00  0.00    +0.342 C 
ATOM     24  O   UNL     1      -2.631   2.593   4.107  0.00  0.00    -0.245 OA
BRANCH  23  25
ATOM     25  O   UNL     1      -2.252   0.420   4.372  0.00  0.00    -0.464 OA
ATOM     26  C   UNL     1      -1.793   0.699   5.721  0.00  0.00    +0.280 C 
ENDBRANCH  23  25
ENDBRANCH   2  23
BRANCH  10  27
ATOM     27  C   UNL     1      -0.893   2.911  -3.257  0.00  0.00    +0.126 C 
BRANCH  27  28
ATOM     28  C   UNL     1      -0.023   3.854  -4.048  0.00  0.00    -0.065 C 
ATOM     29  C   UNL     1       0.660   3.367  -5.034  0.00  0.00    -0.027 C 
ATOM     30  C   UNL     1       1.576   4.177  -5.904  0.00  0.00    +0.027 C 
ATOM     31  C   UNL     1       1.267   5.668  -5.749  0.00  0.00    +0.004 C 
ATOM     32  C   UNL     1       1.214   6.000  -4.253  0.00  0.00    +0.005 C 
ATOM     33  C   UNL     1      -0.007   5.300  -3.648  0.00  0.00    +0.031 C 
ENDBRANCH  27  28
ENDBRANCH  10  27
TORSDOF 6
