REMARK  Name = ZINC11935366
REMARK  9 active torsions:
REMARK  status: ('A' for Active; 'I' for Inactive)
REMARK    1  A    between atoms: C_1  and  C_2
REMARK    2  A    between atoms: C_2  and  C_3
REMARK    3  A    between atoms: C_4  and  C_27
REMARK    4  A    between atoms: C_5  and  C_9
REMARK    5  A    between atoms: N_19  and  C_22
REMARK    6  A    between atoms: C_22  and  C_23
REMARK    7  A    between atoms: C_23  and  C_24
REMARK    8  A    between atoms: C_23  and  C_25
REMARK    9  A    between atoms: C_23  and  C_26
REMARK                            x       y       z     vdW  Elec       q    Type
REMARK                         _______ _______ _______ _____ _____    ______ ____
ROOT
ATOM      1  C   UNL     1      -5.849   5.681   2.304  0.00  0.00    +0.265 C 
ATOM      2  O   UNL     1      -5.394   6.808   2.258  0.00  0.00    -0.268 OA
ATOM      3  N   UNL     1      -5.076   4.658   2.718  0.00  0.00    -0.295 N 
ATOM      4  C   UNL     1      -5.526   3.269   2.925  0.00  0.00    +0.109 C 
ATOM      5  C   UNL     1      -4.519   2.670   3.940  0.00  0.00    +0.036 C 
ATOM      6  C   UNL     1      -3.199   3.343   3.500  0.00  0.00    +0.064 C 
ATOM      7  C   UNL     1      -3.642   4.742   3.040  0.00  0.00    +0.124 C 
ATOM      8  C   UNL     1      -2.246   3.449   4.685  0.00  0.00    +0.019 C 
ATOM      9  C   UNL     1      -0.870   3.886   4.163  0.00  0.00    +0.020 C 
ATOM     10  C   UNL     1      -0.298   2.769   3.291  0.00  0.00    +0.108 C 
ATOM     11  N   UNL     1      -1.264   2.355   2.281  0.00  0.00    -0.300 N 
ATOM     12  C   UNL     1      -2.577   2.589   2.369  0.00  0.00    +0.223 C 
ATOM     13  O   UNL     1      -3.299   2.165   1.491  0.00  0.00    -0.275 OA
ENDROOT
BRANCH   1  16
ATOM     14  C   UNL     1      -9.352   5.663   1.278  0.00  0.00    +0.066 A 
ATOM     15  C   UNL     1      -8.196   6.386   1.581  0.00  0.00    +0.002 A 
ATOM     16  C   UNL     1      -7.245   5.434   1.907  0.00  0.00    +0.123 A 
ATOM     17  N   UNL     1      -7.859   4.221   1.780  0.00  0.00    -0.272 N 
ATOM     18  H   UNL     1      -7.424   3.335   1.942  0.00  0.00    +0.189 HD
ATOM     19  N   UNL     1      -9.080   4.391   1.420  0.00  0.00    -0.178 NA
ATOM     20  C   UNL     1      -8.021   7.882   1.559  0.00  0.00    +0.048 C 
BRANCH  14  22
ATOM     21  C   UNL     1     -10.722   6.376  -0.662  0.00  0.00    +0.010 C 
ATOM     22  C   UNL     1     -10.678   6.246   0.861  0.00  0.00    +0.054 C 
ENDBRANCH  14  22
ENDBRANCH   1  16
BRANCH  11  23
ATOM     23  C   UNL     1      -0.767   1.646   1.100  0.00  0.00    +0.113 C 
BRANCH  23  24
ATOM     24  C   UNL     1      -0.694   0.147   1.397  0.00  0.00    -0.022 C 
ATOM     25  C   UNL     1      -2.063  -0.347   1.868  0.00  0.00    +0.012 C 
ATOM     26  C   UNL     1      -0.288  -0.606   0.128  0.00  0.00    +0.012 C 
ATOM     27  C   UNL     1       0.344  -0.105   2.493  0.00  0.00    +0.012 C 
ENDBRANCH  23  24
ENDBRANCH  11  23
TORSDOF 4
