REMARK  Name = ZINC00583570
REMARK  7 active torsions:
REMARK  status: ('A' for Active; 'I' for Inactive)
REMARK    1  A    between atoms: C_1  and  C_2
REMARK    2  A    between atoms: C_5  and  N_9
REMARK    3  A    between atoms: C_6  and  C_8
REMARK    4  A    between atoms: N_9  and  C_10
REMARK    5  A    between atoms: C_10  and  C_11
REMARK    6  A    between atoms: N_13  and  N_14
REMARK    7  A    between atoms: C_15  and  C_16
REMARK                            x       y       z     vdW  Elec       q    Type
REMARK                         _______ _______ _______ _____ _____    ______ ____
ROOT
ATOM      1  C   UNL     1      -0.742   1.585  -1.213  0.00  0.00    +0.249 C 
ATOM      2  O   UNL     1      -1.736   2.268  -1.088  0.00  0.00    -0.272 OA
ATOM      3  N   UNL     1      -0.288   1.272  -2.443  0.00  0.00    -0.206 N 
ATOM      4  H   UNL     1       0.507   0.726  -2.543  0.00  0.00    +0.177 HD
ENDROOT
BRANCH   3   5
ATOM      5  N   UNL     1      -0.966   1.736  -3.578  0.00  0.00    -0.188 NA
ATOM      6  C   UNL     1      -0.530   1.435  -4.763  0.00  0.00    +0.138 C 
BRANCH   6   7
ATOM      7  C   UNL     1      -1.243   1.924  -5.957  0.00  0.00    -0.005 A 
ATOM      8  C   UNL     1      -2.399   2.711  -5.807  0.00  0.00    +0.010 A 
ATOM      9  C   UNL     1      -3.069   3.177  -6.891  0.00  0.00    +0.009 A 
ATOM     10  C   UNL     1      -2.617   2.865  -8.186  0.00  0.00    -0.018 A 
ATOM     11  C   UNL     1      -3.298   3.331  -9.323  0.00  0.00    +0.008 A 
ATOM     12  C   UNL     1      -2.837   3.012 -10.564  0.00  0.00    +0.001 A 
ATOM     13  C   UNL     1      -1.696   2.228 -10.727  0.00  0.00    +0.001 A 
ATOM     14  C   UNL     1      -1.010   1.759  -9.649  0.00  0.00    +0.008 A 
ATOM     15  C   UNL     1      -1.456   2.067  -8.352  0.00  0.00    -0.017 A 
ATOM     16  C   UNL     1      -0.772   1.599  -7.220  0.00  0.00    +0.018 A 
ENDBRANCH   6   7
ENDBRANCH   3   5
BRANCH   1  17
ATOM     17  C   UNL     1      -0.013   1.086   0.008  0.00  0.00    +0.199 C 
BRANCH  17  18
ATOM     18  N   UNL     1      -0.698   1.558   1.213  0.00  0.00    -0.335 N 
ATOM     19  H   UNL     1      -1.495   2.106   1.135  0.00  0.00    +0.147 HD
BRANCH  18  24
ATOM     20  C   UNL     1       1.308   0.190   6.338  0.00  0.00    +0.044 C 
ATOM     21  C   UNL     1       0.774   0.553   4.976  0.00  0.00    -0.050 A 
ATOM     22  C   UNL     1       1.423   0.105   3.839  0.00  0.00    +0.005 A 
ATOM     23  C   UNL     1       0.937   0.437   2.590  0.00  0.00    +0.023 A 
ATOM     24  C   UNL     1      -0.205   1.221   2.475  0.00  0.00    +0.030 A 
ATOM     25  C   UNL     1      -0.850   1.672   3.619  0.00  0.00    -0.029 A 
ATOM     26  C   UNL     1      -0.362   1.333   4.866  0.00  0.00    +0.008 A 
ATOM     27  C   UNL     1      -2.085   2.528   3.500  0.00  0.00    +0.045 C 
ENDBRANCH  18  24
ENDBRANCH  17  18
ENDBRANCH   1  17
TORSDOF 5
