REMARK  Name = ZINC04411141
REMARK  9 active torsions:
REMARK  status: ('A' for Active; 'I' for Inactive)
REMARK    1  A    between atoms: C_1  and  C_2
REMARK    2  A    between atoms: C_2  and  O_4
REMARK    3  A    between atoms: O_4  and  C_5
REMARK    4  A    between atoms: C_8  and  O_37
REMARK    5  A    between atoms: C_13  and  C_27
REMARK    6  A    between atoms: C_14  and  O_26
REMARK    7  A    between atoms: C_17  and  C_19
REMARK    8  A    between atoms: C_28  and  C_36
REMARK    9  A    between atoms: C_31  and  O_35
REMARK                            x       y       z     vdW  Elec       q    Type
REMARK                         _______ _______ _______ _____ _____    ______ ____
ROOT
ATOM      1  C   UNL     1      -2.428   4.438   2.913  0.00  0.00    +0.206 C 
ATOM      2  C   UNL     1      -1.132   4.092   3.676  0.00  0.00    +0.087 C 
ATOM      3  C   UNL     1      -1.344   4.383   5.154  0.00  0.00    +0.102 C 
ATOM      4  C   UNL     1      -1.637   5.865   5.403  0.00  0.00    +0.034 C 
ATOM      5  C   UNL     1      -0.387   6.729   5.265  0.00  0.00    +0.008 C 
ATOM      6  C   UNL     1       0.713   6.267   6.238  0.00  0.00    +0.010 C 
ATOM      7  C   UNL     1       1.058   4.835   5.910  0.00  0.00    +0.006 C 
ATOM      8  C   UNL     1      -0.203   3.965   6.048  0.00  0.00    +0.101 C 
ATOM      9  C   UNL     1       0.379   2.556   5.860  0.00  0.00    +0.039 C 
ATOM     10  C   UNL     1       1.643   2.623   6.767  0.00  0.00    +0.012 C 
ATOM     11  C   UNL     1       2.054   4.116   6.832  0.00  0.00    +0.031 C 
ATOM     12  C   UNL     1       1.688   4.771   4.512  0.00  0.00    +0.015 C 
ATOM     13  C   UNL     1      -2.765   6.407   4.536  0.00  0.00    -0.002 C 
ATOM     14  C   UNL     1      -2.640   5.930   3.121  0.00  0.00    -0.025 C 
ATOM     15  C   UNL     1      -2.700   6.708   2.079  0.00  0.00    +0.007 C 
ATOM     16  C   UNL     1      -2.894   8.196   2.209  0.00  0.00    +0.138 C 
ATOM     17  C   UNL     1      -2.212   8.646   3.508  0.00  0.00    +0.036 C 
ATOM     18  C   UNL     1      -2.877   7.917   4.671  0.00  0.00    +0.014 C 
ATOM     19  C   UNL     1      -4.093   5.861   5.083  0.00  0.00    +0.016 C 
ENDROOT
BRANCH  11  20
ATOM     20  C   UNL     1       2.014   4.638   8.246  0.00  0.00    -0.009 A 
ATOM     21  C   UNL     1       1.196   4.014   9.203  0.00  0.00    +0.014 A 
ATOM     22  C   UNL     1       1.177   4.503  10.476  0.00  0.00    +0.092 A 
ATOM     23  C   UNL     1       1.977   5.616  10.792  0.00  0.00    +0.337 A 
ATOM     24  O   UNL     1       1.973   6.068  11.925  0.00  0.00    -0.245 OA
ATOM     25  O   UNL     1       2.745   6.182   9.846  0.00  0.00    -0.430 OA
ATOM     26  C   UNL     1       2.769   5.700   8.595  0.00  0.00    +0.203 A 
ENDBRANCH  11  20
BRANCH   8  27
ATOM     27  O   UNL     1      -0.693   4.043   7.413  0.00  0.00    -0.385 OA
ATOM     28  H   UNL     1      -1.459   3.479   7.589  0.00  0.00    +0.210 HD
ENDBRANCH   8  27
BRANCH  16  29
ATOM     29  O   UNL     1      -2.296   8.860   1.095  0.00  0.00    -0.388 OA
ATOM     30  H   UNL     1      -2.681   8.620   0.241  0.00  0.00    +0.210 HD
ENDBRANCH  16  29
BRANCH   3  31
ATOM     31  O   UNL     1      -2.493   3.606   5.582  0.00  0.00    -0.385 OA
ATOM     32  H   UNL     1      -3.254   3.669   4.990  0.00  0.00    +0.210 HD
ENDBRANCH   3  31
BRANCH   1  33
ATOM     33  O   UNL     1      -2.250   4.139   1.506  0.00  0.00    -0.457 OA
BRANCH  33  35
ATOM     34  C   UNL     1      -2.444   2.526  -0.354  0.00  0.00    +0.136 C 
ATOM     35  C   UNL     1      -2.601   2.910   1.095  0.00  0.00    +0.305 C 
ATOM     36  O   UNL     1      -3.042   2.111   1.887  0.00  0.00    -0.251 OA
ENDBRANCH  33  35
ENDBRANCH   1  33
TORSDOF 6
