REMARK  Name = ZINC12708929
REMARK  10 active torsions:
REMARK  status: ('A' for Active; 'I' for Inactive)
REMARK    1  A    between atoms: C_1  and  C_2
REMARK    2  A    between atoms: C_2  and  N_65
REMARK    3  A    between atoms: C_6  and  C_8
REMARK    4  A    between atoms: C_8  and  N_9
REMARK    5  A    between atoms: N_9  and  C_10
REMARK    6  A    between atoms: C_10  and  C_11
REMARK    7  A    between atoms: C_15  and  O_23
REMARK    8  A    between atoms: O_23  and  C_24
REMARK    9  A    between atoms: C_24  and  C_25
REMARK   10  A    between atoms: N_28  and  C_29
REMARK                            x       y       z     vdW  Elec       q    Type
REMARK                         _______ _______ _______ _____ _____    ______ ____
ROOT
ATOM      1  N   UNL     1      -2.109  -0.545  -0.121  0.00  0.00    -0.282 N 
ATOM      2  C   UNL     1      -2.599  -0.916  -1.320  0.00  0.00    +0.307 C 
ATOM      3  O   UNL     1      -3.288  -0.146  -1.961  0.00  0.00    -0.252 OA
ATOM      4  N   UNL     1      -2.326  -2.143  -1.809  0.00  0.00    -0.269 N 
ATOM      5  H   UNL     1      -1.841  -2.784  -1.266  0.00  0.00    +0.156 HD
ENDROOT
BRANCH   4   6
ATOM      6  C   UNL     1      -2.744  -2.490  -3.099  0.00  0.00    +0.035 A 
ATOM      7  C   UNL     1      -3.108  -3.800  -3.383  0.00  0.00    +0.025 A 
ATOM      8  C   UNL     1      -3.524  -4.139  -4.655  0.00  0.00    +0.022 A 
ATOM      9  C   UNL     1      -3.567  -3.178  -5.650  0.00  0.00    +0.041 A 
ATOM     10  C   UNL     1      -3.199  -1.874  -5.371  0.00  0.00    +0.022 A 
ATOM     11  C   UNL     1      -2.788  -1.528  -4.099  0.00  0.00    +0.025 A 
ATOM     12 CL   UNL     1      -4.082  -3.610  -7.250  0.00  0.00    -0.084 Cl
ENDBRANCH   4   6
BRANCH   1  13
ATOM     13  C   UNL     1      -1.280  -1.473   0.651  0.00  0.00    +0.094 C 
BRANCH  13  17
ATOM     14  C   UNL     1      -3.717  -3.922   1.963  0.00  0.00    -0.078 C 
ATOM     15  C   UNL     1      -2.393  -4.488   2.520  0.00  0.00    -0.020 C 
ATOM     16  C   UNL     1      -1.362  -3.356   2.333  0.00  0.00    -0.016 C 
ATOM     17  C   UNL     1      -2.150  -2.201   1.679  0.00  0.00    -0.051 C 
ATOM     18  N   UNL     1      -3.281  -2.879   1.037  0.00  0.00    +0.382 N 
ATOM     19  H   UNL     1      -2.981  -3.301   0.150  0.00  0.00    -0.081 HD
BRANCH  18  21
ATOM     20  C   UNL     1      -5.378  -2.507  -0.234  0.00  0.00    -0.017 C 
ATOM     21  C   UNL     1      -4.390  -1.909   0.769  0.00  0.00    -0.082 C 
ENDBRANCH  18  21
ENDBRANCH  13  17
ENDBRANCH   1  13
BRANCH   1  22
ATOM     22  C   UNL     1      -2.406   0.788   0.410  0.00  0.00    +0.149 C 
BRANCH  22  23
ATOM     23  C   UNL     1      -1.302   1.739   0.027  0.00  0.00    +0.035 A 
ATOM     24  C   UNL     1      -1.419   2.494  -1.093  0.00  0.00    +0.020 A 
ATOM     25  C   UNL     1      -0.328   3.408  -1.438  0.00  0.00    +0.002 A 
ATOM     26  C   UNL     1      -0.394   4.211  -2.582  0.00  0.00    +0.055 A 
ATOM     27  C   UNL     1       0.651   5.062  -2.877  0.00  0.00    +0.121 A 
ATOM     28  C   UNL     1       1.766   5.123  -2.044  0.00  0.00    +0.047 A 
ATOM     29  C   UNL     1       1.842   4.337  -0.916  0.00  0.00    +0.030 A 
ATOM     30  C   UNL     1       0.800   3.472  -0.600  0.00  0.00    +0.049 A 
ATOM     31  N   UNL     1       0.857   2.677   0.527  0.00  0.00    -0.322 N 
ATOM     32  H   UNL     1       1.635   2.722   1.105  0.00  0.00    +0.169 HD
ATOM     33  C   UNL     1      -0.152   1.845   0.838  0.00  0.00    +0.254 A 
ATOM     34  O   UNL     1      -0.069   1.161   1.844  0.00  0.00    -0.268 OA
BRANCH  27  35
ATOM     35  O   UNL     1       0.593   5.846  -3.987  0.00  0.00    -0.492 OA
BRANCH  35  36
ATOM     36  C   UNL     1       1.708   6.704  -4.235  0.00  0.00    +0.225 C 
ATOM     37  C   UNL     1       1.463   7.501  -5.518  0.00  0.00    +0.048 C 
ENDBRANCH  35  36
ENDBRANCH  27  35
ENDBRANCH  22  23
ENDBRANCH   1  22
TORSDOF 8
