REMARK  Name = ZINC39710556
REMARK  13 active torsions:
REMARK  status: ('A' for Active; 'I' for Inactive)
REMARK    1  A    between atoms: C_1  and  C_2
REMARK    2  A    between atoms: C_2  and  C_3
REMARK    3  A    between atoms: C_10  and  C_15
REMARK    4  A    between atoms: C_15  and  C_17
REMARK    5  A    between atoms: C_15  and  N_27
REMARK    6  A    between atoms: N_22  and  C_23
REMARK    7  A    between atoms: C_23  and  C_24
REMARK    8  A    between atoms: C_23  and  C_25
REMARK    9  A    between atoms: C_23  and  C_26
REMARK   10  A    between atoms: N_27  and  C_28
REMARK   11  A    between atoms: N_27  and  C_34
REMARK   12  A    between atoms: C_28  and  C_29
REMARK   13  A    between atoms: C_34  and  C_35
REMARK                            x       y       z     vdW  Elec       q    Type
REMARK                         _______ _______ _______ _____ _____    ______ ____
ROOT
ATOM      1  C   UNL     1       0.915  -0.494   7.033  0.00  0.00    -0.009 C 
ENDROOT
BRANCH   1   9
ATOM      2  C   UNL     1      -1.828  -4.923   4.403  0.00  0.00    -0.047 A 
ATOM      3  C   UNL     1      -2.170  -4.125   3.311  0.00  0.00    +0.005 A 
ATOM      4  C   UNL     1      -1.627  -2.898   3.101  0.00  0.00    +0.024 A 
ATOM      5  C   UNL     1      -0.678  -2.374   3.998  0.00  0.00    +0.040 A 
ATOM      6  N   UNL     1      -0.152  -1.168   3.782  0.00  0.00    -0.285 N 
ATOM      7  C   UNL     1       0.744  -0.617   4.583  0.00  0.00    +0.223 C 
ATOM      8  O   UNL     1       1.188   0.488   4.334  0.00  0.00    -0.275 OA
ATOM      9  C   UNL     1       1.213  -1.365   5.811  0.00  0.00    +0.088 C 
ATOM     10  C   UNL     1       0.618  -2.736   6.061  0.00  0.00    -0.006 C 
ATOM     11  C   UNL     1      -0.298  -3.194   5.160  0.00  0.00    -0.007 A 
ATOM     12  C   UNL     1      -0.925  -4.505   5.329  0.00  0.00    +0.013 A 
ATOM     13  H   UNL     1      -0.440  -0.672   2.999  0.00  0.00    +0.155 HD
BRANCH   2  15
ATOM     14  C   UNL     1      -3.761  -6.128   5.383  0.00  0.00    +0.009 C 
ATOM     15  C   UNL     1      -2.478  -6.273   4.563  0.00  0.00    +0.032 C 
ENDBRANCH   2  15
ENDBRANCH   1   9
BRANCH   1  16
ATOM     16  C   UNL     1      -0.596  -0.289   7.157  0.00  0.00    +0.205 C 
ATOM     17  N   UNL     1      -1.296  -1.579   7.089  0.00  0.00    -0.152 NA
ATOM     18  N   UNL     1      -2.049  -1.573   6.112  0.00  0.00    -0.070 NA
ATOM     19  N   UNL     1      -2.002  -0.376   5.399  0.00  0.00    -0.179 N 
ATOM     20  N   UNL     1      -1.110   0.476   6.002  0.00  0.00    -0.183 NA
ATOM     21  H   UNL     1      -2.518  -0.177   4.602  0.00  0.00    +0.191 HD
BRANCH  20  22
ATOM     22  C   UNL     1      -1.773   1.711   6.441  0.00  0.00    +0.035 C 
ATOM     23  C   UNL     1      -0.772   2.584   7.202  0.00  0.00    +0.029 C 
ATOM     24  C   UNL     1      -2.290   2.474   5.220  0.00  0.00    +0.029 C 
ATOM     25  C   UNL     1      -2.946   1.361   7.359  0.00  0.00    +0.029 C 
ENDBRANCH  20  22
ENDBRANCH   1  16
BRANCH   1  26
ATOM     26  N   UNL     1       1.420  -1.159   8.242  0.00  0.00    +0.389 N 
ATOM     27  H   UNL     1       0.951  -2.044   8.361  0.00  0.00    -0.081 HD
BRANCH  26  28
ATOM     28  C   UNL     1       1.164  -0.308   9.412  0.00  0.00    -0.035 C 
BRANCH  28  29
ATOM     29  C   UNL     1       1.583  -1.035  10.664  0.00  0.00    -0.027 A 
ATOM     30  C   UNL     1       2.742  -0.938  11.360  0.00  0.00    +0.009 A 
ATOM     31  C   UNL     1       2.909  -1.711  12.493  0.00  0.00    +0.008 A 
ATOM     32  C   UNL     1       1.909  -2.542  12.876  0.00  0.00    +0.045 A 
ATOM     33  S   UNL     1       0.678  -2.241  11.619  0.00  0.00    -0.103 S 
ENDBRANCH  28  29
ENDBRANCH  26  28
BRANCH  26  34
ATOM     34  C   UNL     1       2.865  -1.385   8.109  0.00  0.00    -0.046 C 
BRANCH  34  35
ATOM     35  C   UNL     1       3.556  -0.071   7.739  0.00  0.00    +0.102 C 
ATOM     36  C   UNL     1       5.049  -0.328   7.444  0.00  0.00    +0.032 C 
ATOM     37  C   UNL     1       5.730   0.913   8.082  0.00  0.00    +0.030 C 
ATOM     38  C   UNL     1       4.806   1.162   9.301  0.00  0.00    +0.160 C 
ATOM     39  O   UNL     1       3.481   0.844   8.839  0.00  0.00    -0.378 OA
ENDBRANCH  34  35
ENDBRANCH  26  34
ENDBRANCH   1  26
TORSDOF 9
