REMARK  Name = ZINC13977189
REMARK  6 active torsions:
REMARK  status: ('A' for Active; 'I' for Inactive)
REMARK    1  A    between atoms: C_3  and  C_8
REMARK    2  A    between atoms: N_10  and  N_11
REMARK    3  A    between atoms: N_11  and  C_12
REMARK    4  A    between atoms: C_12  and  N_14
REMARK    5  A    between atoms: C_15  and  C_17
REMARK    6  A    between atoms: C_18  and  C_19
REMARK                            x       y       z     vdW  Elec       q    Type
REMARK                         _______ _______ _______ _____ _____    ______ ____
ROOT
ATOM      1  C   UNL     1       2.320   1.244  -0.013  0.00  0.00    +0.153 C 
ATOM      2  S   UNL     1       2.343  -0.467  -0.023  0.00  0.00    -0.017 S 
ENDROOT
BRANCH   1   3
ATOM      3  N   UNL     1       1.143   1.902   0.001  0.00  0.00    -0.263 N 
ATOM      4  C   UNL     1      -0.014   1.213   0.009  0.00  0.00    +0.242 C 
ATOM      5  O   UNL     1       0.002  -0.004   0.002  0.00  0.00    -0.270 OA
ATOM      6  H   UNL     1       1.130   2.872   0.007  0.00  0.00    +0.157 HD
BRANCH   4   7
ATOM      7  C   UNL     1      -1.290   1.927   0.019  0.00  0.00    +0.068 C 
ATOM      8  C   UNL     1      -2.450   1.236   0.020  0.00  0.00    +0.013 C 
BRANCH   8   9
ATOM      9  C   UNL     1      -3.734   1.954   0.030  0.00  0.00    -0.025 A 
ATOM     10  C   UNL     1      -3.756   3.353   0.044  0.00  0.00    +0.011 A 
ATOM     11  C   UNL     1      -4.962   4.019   0.048  0.00  0.00    +0.039 A 
ATOM     12  C   UNL     1      -6.152   3.307   0.050  0.00  0.00    +0.123 A 
ATOM     13  C   UNL     1      -6.137   1.920   0.042  0.00  0.00    +0.039 A 
ATOM     14  C   UNL     1      -4.938   1.241   0.032  0.00  0.00    +0.011 A 
ATOM     15  F   UNL     1      -7.331   3.966   0.060  0.00  0.00    -0.205 F 
ENDBRANCH   8   9
ENDBRANCH   4   7
ENDBRANCH   1   3
BRANCH   1  16
ATOM     16  N   UNL     1       3.478   1.934  -0.021  0.00  0.00    -0.245 N 
ATOM     17  H   UNL     1       4.324   1.461  -0.031  0.00  0.00    +0.172 HD
BRANCH  16  20
ATOM     18  C   UNL     1       4.616   4.025  -0.020  0.00  0.00    +0.260 C 
ATOM     19  O   UNL     1       5.677   3.431  -0.034  0.00  0.00    -0.269 OA
ATOM     20  N   UNL     1       3.458   3.335  -0.013  0.00  0.00    -0.231 N 
ATOM     21  H   UNL     1       2.612   3.808  -0.002  0.00  0.00    +0.173 HD
BRANCH  18  24
ATOM     22  C   UNL     1       3.368   7.567   0.009  0.00  0.00    +0.002 A 
ATOM     23  C   UNL     1       3.380   6.187  -0.003  0.00  0.00    +0.013 A 
ATOM     24  C   UNL     1       4.596   5.503  -0.012  0.00  0.00    +0.040 A 
ATOM     25  C   UNL     1       5.794   6.220  -0.020  0.00  0.00    +0.033 A 
ATOM     26  C   UNL     1       5.768   7.601  -0.013  0.00  0.00    +0.042 A 
ATOM     27  C   UNL     1       4.557   8.273   0.002  0.00  0.00    +0.020 A 
ATOM     28 CL   UNL     1       7.256   8.495  -0.023  0.00  0.00    -0.084 Cl
ENDBRANCH  18  24
ENDBRANCH  16  20
ENDBRANCH   1  16
TORSDOF 6
