REMARK  Name = ZINC63339756
REMARK  14 active torsions:
REMARK  status: ('A' for Active; 'I' for Inactive)
REMARK    1  A    between atoms: C_1  and  C_2
REMARK    2  A    between atoms: C_5  and  C_37
REMARK    3  A    between atoms: C_6  and  C_8
REMARK    4  A    between atoms: C_8  and  S_9
REMARK    5  A    between atoms: S_9  and  C_10
REMARK    6  A    between atoms: C_14  and  C_17
REMARK    7  A    between atoms: C_17  and  C_19
REMARK    8  A    between atoms: C_17  and  N_29
REMARK    9  A    between atoms: C_19  and  C_20
REMARK   10  A    between atoms: C_30  and  O_32
REMARK   11  A    between atoms: O_32  and  C_33
REMARK   12  A    between atoms: C_33  and  C_34
REMARK   13  A    between atoms: C_33  and  C_35
REMARK   14  A    between atoms: C_33  and  C_36
REMARK                            x       y       z     vdW  Elec       q    Type
REMARK                         _______ _______ _______ _____ _____    ______ ____
ROOT
ATOM      1  C   UNL     1      -0.129  -4.315   4.871  0.00  0.00    +0.133 C 
ENDROOT
BRANCH   1   5
ATOM      2  C   UNL     1       2.918  -5.031   6.525  0.00  0.00    +0.319 C 
ATOM      3  N   UNL     1       3.267  -4.437   5.228  0.00  0.00    -0.146 NA
ATOM      4  N   UNL     1       2.293  -4.480   4.465  0.00  0.00    -0.155 NA
ATOM      5  C   UNL     1       1.151  -5.109   5.140  0.00  0.00    +0.280 C 
ATOM      6  O   UNL     1       1.477  -5.078   6.546  0.00  0.00    -0.316 OA
BRANCH   2   7
ATOM      7  S   UNL     1       3.534  -3.992   7.879  0.00  0.00    -0.100 S 
BRANCH   7   8
ATOM      8  C   UNL     1       2.873  -2.345   7.503  0.00  0.00    +0.109 C 
BRANCH   8  14
ATOM      9  C   UNL     1       2.360   0.234  11.761  0.00  0.00    +0.044 C 
ATOM     10  C   UNL     1       3.164  -0.115  10.536  0.00  0.00    -0.050 A 
ATOM     11  C   UNL     1       4.395   0.478  10.325  0.00  0.00    +0.003 A 
ATOM     12  C   UNL     1       5.134   0.157   9.202  0.00  0.00    +0.004 A 
ATOM     13  C   UNL     1       4.641  -0.756   8.288  0.00  0.00    -0.046 A 
ATOM     14  C   UNL     1       3.410  -1.349   8.499  0.00  0.00    -0.034 A 
ATOM     15  C   UNL     1       2.674  -1.032   9.626  0.00  0.00    +0.008 A 
ATOM     16  C   UNL     1       5.445  -1.105   7.062  0.00  0.00    +0.044 C 
ENDBRANCH   8  14
ENDBRANCH   7   8
ENDBRANCH   2   7
ENDBRANCH   1   5
BRANCH   1  17
ATOM     17  N   UNL     1      -0.398  -4.296   3.431  0.00  0.00    -0.274 N 
ATOM     18  C   UNL     1      -0.499  -5.455   2.749  0.00  0.00    +0.401 C 
ATOM     19  O   UNL     1      -0.462  -6.514   3.343  0.00  0.00    -0.226 OA
ATOM     20  H   UNL     1      -0.504  -3.450   2.968  0.00  0.00    +0.152 HD
BRANCH  18  21
ATOM     21  O   UNL     1      -0.640  -5.438   1.411  0.00  0.00    -0.445 OA
BRANCH  21  22
ATOM     22  C   UNL     1      -0.637  -6.701   0.742  0.00  0.00    +0.107 C 
ATOM     23  C   UNL     1      -1.852  -7.517   1.187  0.00  0.00    +0.055 C 
ATOM     24  C   UNL     1      -0.698  -6.477  -0.770  0.00  0.00    +0.055 C 
ATOM     25  C   UNL     1       0.644  -7.460   1.094  0.00  0.00    +0.055 C 
ENDBRANCH  21  22
ENDBRANCH  18  21
ENDBRANCH   1  17
BRANCH   1  26
ATOM     26  C   UNL     1      -1.301  -4.973   5.601  0.00  0.00    +0.060 C 
BRANCH  26  27
ATOM     27  C   UNL     1      -2.535  -4.124   5.437  0.00  0.00    -0.040 C 
ATOM     28  C   UNL     1      -3.507  -4.272   4.508  0.00  0.00    -0.001 A 
ATOM     29  C   UNL     1      -3.698  -5.231   3.413  0.00  0.00    +0.010 A 
ATOM     30  C   UNL     1      -4.796  -5.123   2.631  0.00  0.00    +0.001 A 
ATOM     31  C   UNL     1      -5.754  -4.122   2.840  0.00  0.00    +0.002 A 
ATOM     32  C   UNL     1      -5.648  -3.205   3.825  0.00  0.00    +0.026 A 
ATOM     33  C   UNL     1      -4.533  -3.224   4.708  0.00  0.00    +0.043 A 
ATOM     34  N   UNL     1      -4.209  -2.458   5.721  0.00  0.00    -0.380 N 
ATOM     35  C   UNL     1      -2.941  -2.938   6.283  0.00  0.00    +0.144 C 
ATOM     36  H   UNL     1      -4.723  -1.703   6.047  0.00  0.00    +0.160 HD
ENDBRANCH  26  27
ENDBRANCH   1  26
TORSDOF 9
