REMARK  Name = ZINC20841210
REMARK  9 active torsions:
REMARK  status: ('A' for Active; 'I' for Inactive)
REMARK    1  A    between atoms: C_4  and  S_22
REMARK    2  A    between atoms: C_5  and  N_7
REMARK    3  A    between atoms: C_8  and  C_10
REMARK    4  A    between atoms: C_10  and  S_11
REMARK    5  A    between atoms: S_11  and  C_12
REMARK    6  A    between atoms: C_15  and  C_18
REMARK    7  A    between atoms: N_16  and  N_17
REMARK    8  A    between atoms: S_22  and  C_23
REMARK    9  A    between atoms: C_23  and  C_24
REMARK                            x       y       z     vdW  Elec       q    Type
REMARK                         _______ _______ _______ _____ _____    ______ ____
ROOT
ATOM      1  N   UNL     1      -4.126   4.266   7.208  0.00  0.00    -0.284 N 
ATOM      2  C   UNL     1      -3.188   4.688   6.337  0.00  0.00    +0.228 C 
ATOM      3  O   UNL     1      -2.897   5.864   6.281  0.00  0.00    -0.275 OA
ATOM      4  H   UNL     1      -4.444   3.213   7.208  0.00  0.00    +0.155 HD
ENDROOT
BRANCH   1   9
ATOM      5  C   UNL     1      -5.476   7.378   8.635  0.00  0.00    +0.002 A 
ATOM      6  C   UNL     1      -5.826   6.959   9.906  0.00  0.00    +0.001 A 
ATOM      7  C   UNL     1      -5.615   5.647  10.288  0.00  0.00    +0.016 A 
ATOM      8  C   UNL     1      -5.051   4.747   9.396  0.00  0.00    +0.029 A 
ATOM      9  C   UNL     1      -4.697   5.170   8.114  0.00  0.00    +0.047 A 
ATOM     10  C   UNL     1      -4.908   6.489   7.741  0.00  0.00    +0.024 A 
BRANCH   8  11
ATOM     11  S   UNL     1      -4.781   3.074   9.880  0.00  0.00    -0.119 S 
BRANCH  11  12
ATOM     12  C   UNL     1      -5.385   3.009  11.589  0.00  0.00    +0.109 C 
BRANCH  12  13
ATOM     13  C   UNL     1      -5.210   1.614  12.130  0.00  0.00    -0.037 A 
ATOM     14  C   UNL     1      -6.224   0.685  11.987  0.00  0.00    +0.006 A 
ATOM     15  C   UNL     1      -6.062  -0.597  12.479  0.00  0.00    +0.020 A 
ATOM     16  C   UNL     1      -4.889  -0.946  13.124  0.00  0.00    +0.041 A 
ATOM     17  C   UNL     1      -3.877  -0.015  13.273  0.00  0.00    +0.020 A 
ATOM     18  C   UNL     1      -4.038   1.265  12.776  0.00  0.00    +0.006 A 
ATOM     19 CL   UNL     1      -4.688  -2.554  13.748  0.00  0.00    -0.084 Cl
ENDBRANCH  12  13
ENDBRANCH  11  12
ENDBRANCH   8  11
ENDBRANCH   1   9
BRANCH   2  20
ATOM     20  C   UNL     1      -2.502   3.698   5.431  0.00  0.00    +0.173 C 
BRANCH  20  21
ATOM     21  S   UNL     1      -1.304   4.565   4.387  0.00  0.00    -0.075 S 
BRANCH  21  22
ATOM     22  C   UNL     1      -0.669   3.209   3.459  0.00  0.00    +0.209 A 
ATOM     23  N   UNL     1      -1.030   1.951   3.568  0.00  0.00    -0.121 NA
ATOM     24  N   UNL     1      -0.366   1.232   2.734  0.00  0.00    -0.123 NA
ATOM     25  C   UNL     1       0.457   1.980   2.056  0.00  0.00    +0.255 A 
ATOM     26  N   UNL     1       0.291   3.267   2.490  0.00  0.00    -0.220 N 
BRANCH  25  27
ATOM     27  C   UNL     1       1.411   1.515   0.986  0.00  0.00    +0.454 C 
ATOM     28  F   UNL     1       1.064   0.222   0.581  0.00  0.00    -0.163 F 
ATOM     29  F   UNL     1       2.715   1.511   1.493  0.00  0.00    -0.163 F 
ATOM     30  F   UNL     1       1.340   2.382  -0.111  0.00  0.00    -0.163 F 
ENDBRANCH  25  27
BRANCH  26  31
ATOM     31  N   UNL     1       0.950   4.378   2.047  0.00  0.00    -0.295 N 
ATOM     32  H   UNL     1       1.707   4.289   1.254  0.00  0.00    +0.163 HD
ATOM     33  H   UNL     1       0.722   5.362   2.482  0.00  0.00    +0.163 HD
ENDBRANCH  26  31
ENDBRANCH  21  22
ENDBRANCH  20  21
ENDBRANCH   2  20
TORSDOF 9
