REMARK  Name = ZINC12565928
REMARK  8 active torsions:
REMARK  status: ('A' for Active; 'I' for Inactive)
REMARK    1  A    between atoms: C_1  and  C_2
REMARK    2  A    between atoms: C_7  and  C_38
REMARK    3  A    between atoms: C_10  and  C_12
REMARK    4  A    between atoms: C_12  and  O_13
REMARK    5  A    between atoms: O_13  and  C_14
REMARK    6  A    between atoms: C_14  and  C_16
REMARK    7  A    between atoms: C_30  and  C_31
REMARK    8  A    between atoms: C_34  and  O_37
REMARK                            x       y       z     vdW  Elec       q    Type
REMARK                         _______ _______ _______ _____ _____    ______ ____
ROOT
ATOM      1  C   UNL     1       7.673   5.341   3.130  0.00  0.00    +0.073 A 
ATOM      2  C   UNL     1       8.374   5.157   1.859  0.00  0.00    +0.015 A 
ATOM      3  C   UNL     1       9.673   5.636   1.664  0.00  0.00    +0.011 A 
ATOM      4  C   UNL     1      10.290   5.441   0.463  0.00  0.00    +0.001 A 
ATOM      5  C   UNL     1       9.643   4.770  -0.571  0.00  0.00    +0.002 A 
ATOM      6  C   UNL     1       8.378   4.291  -0.415  0.00  0.00    +0.028 A 
ATOM      7  C   UNL     1       7.709   4.474   0.810  0.00  0.00    +0.072 A 
ATOM      8  N   UNL     1       6.471   4.017   0.993  0.00  0.00    -0.247 NA
ATOM      9  C   UNL     1       5.817   4.166   2.132  0.00  0.00    +0.072 A 
ATOM     10  C   UNL     1       6.386   4.831   3.236  0.00  0.00    -0.007 A 
ATOM     11  C   UNL     1       5.643   4.999   4.532  0.00  0.00    +0.038 C 
ATOM     12  C   UNL     1       4.135   4.897   4.323  0.00  0.00    +0.009 C 
ATOM     13  C   UNL     1       3.810   3.577   3.611  0.00  0.00    +0.037 C 
ATOM     14  C   UNL     1       4.441   3.634   2.237  0.00  0.00    -0.021 C 
ATOM     15  C   UNL     1       3.775   3.211   1.148  0.00  0.00    +0.013 C 
ENDROOT
BRANCH  15  16
ATOM     16  C   UNL     1       2.479   2.527   1.297  0.00  0.00    -0.024 A 
ATOM     17  C   UNL     1       1.450   2.766   0.381  0.00  0.00    +0.011 A 
ATOM     18  C   UNL     1       0.240   2.123   0.525  0.00  0.00    +0.046 A 
ATOM     19  C   UNL     1       0.042   1.239   1.577  0.00  0.00    +0.117 A 
ATOM     20  C   UNL     1       1.059   1.002   2.493  0.00  0.00    +0.046 A 
ATOM     21  C   UNL     1       2.275   1.635   2.355  0.00  0.00    +0.011 A 
BRANCH  19  22
ATOM     22  O   UNL     1      -1.153   0.608   1.715  0.00  0.00    -0.507 OA
ATOM     23  H   UNL     1      -1.207  -0.239   1.252  0.00  0.00    +0.292 HD
ENDBRANCH  19  22
ENDBRANCH  15  16
BRANCH   1  24
ATOM     24  C   UNL     1       8.312   6.045   4.262  0.00  0.00    +0.341 C 
ATOM     25  O   UNL     1       8.965   5.421   5.074  0.00  0.00    -0.245 OA
BRANCH  24  26
ATOM     26  O   UNL     1       8.171   7.378   4.393  0.00  0.00    -0.452 OA
BRANCH  26  27
ATOM     27  C   UNL     1       8.826   8.002   5.528  0.00  0.00    +0.328 C 
BRANCH  27  35
ATOM     28  C   UNL     1       7.955  12.093   5.266  0.00  0.00    +0.028 C 
ATOM     29  C   UNL     1       8.983  11.746   6.346  0.00  0.00    +0.073 C 
ATOM     30  C   UNL     1       8.486  12.243   7.712  0.00  0.00    +0.022 C 
ATOM     31  C   UNL     1       9.452  11.774   8.802  0.00  0.00    +0.004 C 
ATOM     32  C   UNL     1       9.488  10.244   8.830  0.00  0.00    +0.022 C 
ATOM     33  C   UNL     1       9.992   9.724   7.480  0.00  0.00    +0.073 C 
ATOM     34  N   UNL     1       9.154  10.289   6.413  0.00  0.00    -0.293 N 
ATOM     35  C   UNL     1       8.559   9.485   5.510  0.00  0.00    +0.254 C 
ATOM     36  O   UNL     1       7.807   9.956   4.682  0.00  0.00    -0.272 OA
ATOM     37  C   UNL     1      11.445  10.156   7.274  0.00  0.00    +0.028 C 
ENDBRANCH  27  35
ENDBRANCH  26  27
ENDBRANCH  24  26
ENDBRANCH   1  24
TORSDOF 6
