REMARK  Name = ZINC14833995
REMARK  9 active torsions:
REMARK  status: ('A' for Active; 'I' for Inactive)
REMARK    1  A    between atoms: C_1  and  C_2
REMARK    2  A    between atoms: C_2  and  C_4
REMARK    3  A    between atoms: C_2  and  O_22
REMARK    4  A    between atoms: N_6  and  N_7
REMARK    5  A    between atoms: N_7  and  C_8
REMARK    6  A    between atoms: C_8  and  N_10
REMARK    7  A    between atoms: C_11  and  C_13
REMARK    8  A    between atoms: C_14  and  C_15
REMARK    9  A    between atoms: O_22  and  C_23
REMARK                            x       y       z     vdW  Elec       q    Type
REMARK                         _______ _______ _______ _____ _____    ______ ____
ROOT
ATOM      1  N   UNL     1       3.530   1.950   0.494  0.00  0.00    -0.245 N 
ATOM      2  H   UNL     1       4.382   1.502   0.618  0.00  0.00    +0.172 HD
ENDROOT
BRANCH   1   5
ATOM      3  C   UNL     1       4.638   4.040   0.223  0.00  0.00    +0.270 C 
ATOM      4  O   UNL     1       5.703   3.480   0.378  0.00  0.00    -0.270 OA
ATOM      5  N   UNL     1       3.492   3.332   0.268  0.00  0.00    -0.232 N 
ATOM      6  H   UNL     1       2.640   3.780   0.144  0.00  0.00    +0.173 HD
BRANCH   3   8
ATOM      7  C   UNL     1       3.897   6.216   1.153  0.00  0.00    +0.062 C 
ATOM      8  C   UNL     1       4.597   5.527  -0.020  0.00  0.00    +0.257 C 
BRANCH   8   9
ATOM      9  O   UNL     1       5.930   6.027  -0.140  0.00  0.00    -0.478 OA
BRANCH   9  10
ATOM     10  C   UNL     1       6.098   7.174  -0.849  0.00  0.00    +0.140 A 
ATOM     11  C   UNL     1       4.992   7.865  -1.322  0.00  0.00    +0.048 A 
ATOM     12  C   UNL     1       5.164   9.034  -2.039  0.00  0.00    +0.023 A 
ATOM     13  C   UNL     1       6.438   9.510  -2.294  0.00  0.00    +0.043 A 
ATOM     14  C   UNL     1       7.543   8.819  -1.828  0.00  0.00    +0.043 A 
ATOM     15  C   UNL     1       7.375   7.652  -1.106  0.00  0.00    +0.084 A 
ATOM     16 CL   UNL     1       8.761   6.786  -0.521  0.00  0.00    -0.080 Cl
ATOM     17 CL   UNL     1       6.651  10.975  -3.201  0.00  0.00    -0.083 Cl
ENDBRANCH   9  10
ENDBRANCH   8   9
ENDBRANCH   3   8
ENDBRANCH   1   5
BRANCH   1  18
ATOM     18  C   UNL     1       2.384   1.243   0.539  0.00  0.00    +0.153 C 
ATOM     19  S   UNL     1       2.431  -0.446   0.815  0.00  0.00    -0.017 S 
BRANCH  18  20
ATOM     20  N   UNL     1       1.201   1.865   0.367  0.00  0.00    -0.263 N 
ATOM     21  C   UNL     1       0.055   1.158   0.413  0.00  0.00    +0.242 C 
ATOM     22  O   UNL     1       0.088  -0.043   0.609  0.00  0.00    -0.270 OA
ATOM     23  H   UNL     1       1.174   2.822   0.211  0.00  0.00    +0.157 HD
BRANCH  21  24
ATOM     24  C   UNL     1      -1.229   1.832   0.220  0.00  0.00    +0.068 C 
ATOM     25  C   UNL     1      -2.376   1.123   0.260  0.00  0.00    +0.013 C 
BRANCH  25  26
ATOM     26  C   UNL     1      -3.667   1.801   0.066  0.00  0.00    -0.025 A 
ATOM     27  C   UNL     1      -3.710   3.182  -0.154  0.00  0.00    +0.009 A 
ATOM     28  C   UNL     1      -4.923   3.810  -0.340  0.00  0.00    +0.020 A 
ATOM     29  C   UNL     1      -6.099   3.078  -0.298  0.00  0.00    +0.041 A 
ATOM     30  C   UNL     1      -6.065   1.711  -0.075  0.00  0.00    +0.020 A 
ATOM     31  C   UNL     1      -4.859   1.069   0.107  0.00  0.00    +0.009 A 
ATOM     32 CL   UNL     1      -7.622   3.879  -0.526  0.00  0.00    -0.084 Cl
ENDBRANCH  25  26
ENDBRANCH  21  24
ENDBRANCH  18  20
ENDBRANCH   1  18
TORSDOF 8
