REMARK  Name = ZINC66963783
REMARK  8 active torsions:
REMARK  status: ('A' for Active; 'I' for Inactive)
REMARK    1  A    between atoms: C_1  and  C_2
REMARK    2  A    between atoms: C_5  and  N_11
REMARK    3  A    between atoms: C_7  and  C_8
REMARK    4  A    between atoms: N_11  and  C_12
REMARK    5  A    between atoms: C_12  and  C_14
REMARK    6  A    between atoms: C_12  and  C_15
REMARK    7  A    between atoms: N_17  and  C_18
REMARK    8  A    between atoms: C_19  and  C_28
REMARK                            x       y       z     vdW  Elec       q    Type
REMARK                         _______ _______ _______ _____ _____    ______ ____
ROOT
ATOM      1  C   UNL     1       0.409  -4.847  -1.375  0.00  0.00    +0.154 C 
ATOM      2  C   UNL     1       1.727  -4.728  -2.143  0.00  0.00    +0.038 C 
ENDROOT
BRANCH   1   3
ATOM      3  C   UNL     1       0.112  -6.301  -1.110  0.00  0.00    +0.238 C 
ATOM      4  O   UNL     1       0.003  -6.699   0.030  0.00  0.00    -0.273 OA
ATOM      5  N   UNL     1      -0.032  -7.158  -2.140  0.00  0.00    -0.277 N 
ATOM      6  H   UNL     1       0.056  -6.839  -3.052  0.00  0.00    +0.155 HD
BRANCH   5   7
ATOM      7  C   UNL     1      -0.305  -8.497  -1.896  0.00  0.00    +0.090 A 
ATOM      8  C   UNL     1      -0.478  -9.512  -2.819  0.00  0.00    +0.084 A 
ATOM      9  C   UNL     1      -0.759 -10.845  -2.305  0.00  0.00    -0.018 A 
ATOM     10  C   UNL     1      -0.820 -10.910  -0.958  0.00  0.00    -0.004 A 
ATOM     11  S   UNL     1      -0.495  -9.258  -0.411  0.00  0.00    -0.077 S 
ATOM     12  C   UNL     1      -1.106 -12.112  -0.113  0.00  0.00    +0.043 C 
ATOM     13  C   UNL     1      -0.223 -13.277  -0.579  0.00  0.00    +0.005 C 
ATOM     14  C   UNL     1      -0.965 -14.044  -1.669  0.00  0.00    +0.001 C 
ATOM     15  C   UNL     1      -1.826 -13.090  -2.494  0.00  0.00    +0.005 C 
ATOM     16  C   UNL     1      -0.952 -12.059  -3.202  0.00  0.00    +0.037 C 
BRANCH   8  17
ATOM     17  C   UNL     1      -0.384  -9.262  -4.226  0.00  0.00    +0.102 C 
ATOM     18  N   UNL     1      -0.310  -9.063  -5.342  0.00  0.00    -0.191 NA
ENDBRANCH   8  17
ENDBRANCH   5   7
ENDBRANCH   1   3
BRANCH   1  19
ATOM     19  N   UNL     1       0.519  -4.131  -0.102  0.00  0.00    -0.333 N 
ATOM     20  H   UNL     1       0.764  -4.611   0.705  0.00  0.00    +0.147 HD
BRANCH  19  25
ATOM     21  C   UNL     1      -0.501   1.454   0.081  0.00  0.00    +0.044 C 
ATOM     22  C   UNL     1      -0.230  -0.027   0.036  0.00  0.00    -0.038 A 
ATOM     23  C   UNL     1      -0.330  -0.711  -1.159  0.00  0.00    +0.006 A 
ATOM     24  C   UNL     1      -0.082  -2.070  -1.206  0.00  0.00    +0.023 A 
ATOM     25  C   UNL     1       0.270  -2.757  -0.050  0.00  0.00    +0.028 A 
ATOM     26  C   UNL     1       0.373  -2.079   1.155  0.00  0.00    +0.036 A 
ATOM     27  C   UNL     1       0.128  -0.707   1.201  0.00  0.00    +0.041 A 
BRANCH  27  28
ATOM     28  C   UNL     1       0.243   0.025   2.481  0.00  0.00    +0.242 C 
ATOM     29  O   UNL     1       0.140   1.236   2.500  0.00  0.00    -0.270 OA
ATOM     30  N   UNL     1       0.461  -0.651   3.627  0.00  0.00    -0.325 N 
ATOM     31  H   UNL     1       0.542  -1.618   3.611  0.00  0.00    +0.145 HD
ATOM     32  H   UNL     1       0.536  -0.172   4.466  0.00  0.00    +0.145 HD
ENDBRANCH  27  28
ENDBRANCH  19  25
ENDBRANCH   1  19
TORSDOF 6
