REMARK  Name = ZINC02100777
REMARK  9 active torsions:
REMARK  status: ('A' for Active; 'I' for Inactive)
REMARK    1  A    between atoms: C_1  and  C_2
REMARK    2  A    between atoms: C_2  and  C_3
REMARK    3  A    between atoms: C_3  and  C_5
REMARK    4  A    between atoms: C_3  and  N_21
REMARK    5  A    between atoms: N_7  and  N_8
REMARK    6  A    between atoms: C_9  and  C_10
REMARK    7  A    between atoms: C_19  and  O_20
REMARK    8  A    between atoms: N_21  and  C_22
REMARK    9  A    between atoms: C_27  and  C_28
REMARK                            x       y       z     vdW  Elec       q    Type
REMARK                         _______ _______ _______ _____ _____    ______ ____
ROOT
ATOM      1  C   UNL     1      -1.416  -2.035  -0.119  0.00  0.00    +0.252 C 
ATOM      2  O   UNL     1      -1.898  -2.726   0.754  0.00  0.00    -0.272 OA
ATOM      3  N   UNL     1      -0.865  -2.609  -1.207  0.00  0.00    -0.205 N 
ATOM      4  H   UNL     1      -0.480  -2.056  -1.905  0.00  0.00    +0.177 HD
ENDROOT
BRANCH   3   5
ATOM      5  N   UNL     1      -0.849  -4.005  -1.330  0.00  0.00    -0.188 NA
ATOM      6  C   UNL     1      -0.318  -4.559  -2.379  0.00  0.00    +0.142 C 
BRANCH   6   7
ATOM      7  C   UNL     1      -0.301  -6.023  -2.507  0.00  0.00    +0.044 A 
ATOM      8  C   UNL     1       0.298  -6.662  -3.677  0.00  0.00    -0.006 A 
ATOM      9  C   UNL     1       0.872  -5.909  -4.709  0.00  0.00    +0.009 A 
ATOM     10  C   UNL     1       1.420  -6.545  -5.783  0.00  0.00    +0.001 A 
ATOM     11  C   UNL     1       1.417  -7.935  -5.869  0.00  0.00    +0.001 A 
ATOM     12  C   UNL     1       0.868  -8.698  -4.884  0.00  0.00    +0.008 A 
ATOM     13  C   UNL     1       0.293  -8.076  -3.762  0.00  0.00    -0.017 A 
ATOM     14  C   UNL     1      -0.282  -8.831  -2.725  0.00  0.00    +0.012 A 
ATOM     15  C   UNL     1      -0.834  -8.220  -1.644  0.00  0.00    +0.046 A 
ATOM     16  C   UNL     1      -0.850  -6.832  -1.513  0.00  0.00    +0.126 A 
BRANCH  16  17
ATOM     17  O   UNL     1      -1.408  -6.264  -0.413  0.00  0.00    -0.506 OA
ATOM     18  H   UNL     1      -2.351  -6.073  -0.505  0.00  0.00    +0.292 HD
ENDBRANCH  16  17
ENDBRANCH   6   7
ENDBRANCH   3   5
BRANCH   1  19
ATOM     19  C   UNL     1      -1.433  -0.534   0.013  0.00  0.00    +0.158 C 
BRANCH  19  21
ATOM     20  C   UNL     1      -0.019   1.526   0.010  0.00  0.00    +0.006 C 
ATOM     21  C   UNL     1       0.002  -0.004   0.002  0.00  0.00    +0.028 C 
ENDBRANCH  19  21
BRANCH  19  22
ATOM     22  N   UNL     1      -2.082  -0.162   1.273  0.00  0.00    -0.333 N 
ATOM     23  H   UNL     1      -2.092  -0.785   2.016  0.00  0.00    +0.147 HD
BRANCH  22  24
ATOM     24  C   UNL     1      -2.685   1.092   1.405  0.00  0.00    +0.031 A 
ATOM     25  C   UNL     1      -2.676   1.984   0.340  0.00  0.00    +0.024 A 
ATOM     26  C   UNL     1      -3.274   3.221   0.473  0.00  0.00    +0.022 A 
ATOM     27  C   UNL     1      -3.882   3.573   1.666  0.00  0.00    +0.041 A 
ATOM     28  C   UNL     1      -3.892   2.687   2.728  0.00  0.00    +0.025 A 
ATOM     29  C   UNL     1      -3.300   1.446   2.599  0.00  0.00    -0.028 A 
ATOM     30  C   UNL     1      -3.317   0.478   3.754  0.00  0.00    +0.046 C 
ATOM     31 CL   UNL     1      -4.631   5.130   1.829  0.00  0.00    -0.084 Cl
ENDBRANCH  22  24
ENDBRANCH  19  22
ENDBRANCH   1  19
TORSDOF 7
