REMARK  Name = ZINC41586169
REMARK  9 active torsions:
REMARK  status: ('A' for Active; 'I' for Inactive)
REMARK    1  A    between atoms: C_1  and  C_2
REMARK    2  A    between atoms: C_2  and  O_3
REMARK    3  A    between atoms: O_3  and  C_4
REMARK    4  A    between atoms: C_4  and  C_6
REMARK    5  A    between atoms: N_9  and  C_12
REMARK    6  A    between atoms: C_12  and  C_13
REMARK    7  A    between atoms: C_14  and  O_33
REMARK    8  A    between atoms: C_16  and  C_32
REMARK    9  A    between atoms: C_21  and  C_22
REMARK                            x       y       z     vdW  Elec       q    Type
REMARK                         _______ _______ _______ _____ _____    ______ ____
ROOT
ATOM      1  C   UNL     1      -6.006  -6.221  -1.548  0.00  0.00    +0.020 A 
ATOM      2  C   UNL     1      -5.893  -6.774  -2.814  0.00  0.00    +0.122 A 
ATOM      3  C   UNL     1      -5.735  -8.147  -2.975  0.00  0.00    +0.050 A 
ATOM      4  C   UNL     1      -5.689  -8.966  -1.882  0.00  0.00    -0.033 A 
ATOM      5  C   UNL     1      -5.802  -8.423  -0.602  0.00  0.00    +0.071 A 
ATOM      6  C   UNL     1      -5.957  -7.038  -0.426  0.00  0.00    +0.145 A 
ATOM      7  O   UNL     1      -6.037  -6.752   0.891  0.00  0.00    -0.451 OA
ATOM      8  C   UNL     1      -5.941  -7.866   1.655  0.00  0.00    +0.176 C 
ATOM      9  C   UNL     1      -5.985  -7.915   3.011  0.00  0.00    +0.062 C 
ATOM     10  C   UNL     1      -5.792  -9.014   0.749  0.00  0.00    +0.232 C 
ATOM     11  O   UNL     1      -5.675 -10.190   1.048  0.00  0.00    -0.283 OA
ATOM     12  C   UNL     1      -5.519 -10.453  -2.059  0.00  0.00    +0.045 C 
ENDROOT
BRANCH   9  13
ATOM     13  C   UNL     1      -5.868  -9.204   3.703  0.00  0.00    +0.032 A 
ATOM     14  C   UNL     1      -6.663 -10.290   3.312  0.00  0.00    +0.132 A 
ATOM     15  C   UNL     1      -6.545 -11.499   3.969  0.00  0.00    +0.039 A 
ATOM     16  C   UNL     1      -5.645 -11.639   5.011  0.00  0.00    +0.004 A 
ATOM     17  C   UNL     1      -4.856 -10.572   5.404  0.00  0.00    +0.021 A 
ATOM     18  C   UNL     1      -4.956  -9.358   4.755  0.00  0.00    +0.051 A 
ATOM     19 CL   UNL     1      -3.959  -8.024   5.246  0.00  0.00    -0.083 Cl
ATOM     20  F   UNL     1      -7.543 -10.155   2.295  0.00  0.00    -0.205 F 
ENDBRANCH   9  13
BRANCH   2  21
ATOM     21  O   UNL     1      -5.938  -5.969  -3.906  0.00  0.00    -0.506 OA
ATOM     22  H   UNL     1      -5.073  -5.639  -4.187  0.00  0.00    +0.292 HD
ENDBRANCH   2  21
BRANCH   1  23
ATOM     23  C   UNL     1      -6.177  -4.732  -1.389  0.00  0.00    -0.036 C 
BRANCH  23  27
ATOM     24  C   UNL     1      -2.881  -2.427   0.017  0.00  0.00    +0.094 C 
ATOM     25  C   UNL     1      -3.645  -1.967  -1.229  0.00  0.00    -0.004 C 
ATOM     26  C   UNL     1      -5.020  -2.637  -1.253  0.00  0.00    -0.078 C 
ATOM     27  N   UNL     1      -4.857  -4.096  -1.288  0.00  0.00    +0.383 N 
ATOM     28  C   UNL     1      -4.189  -4.551  -0.063  0.00  0.00    -0.078 C 
ATOM     29  C   UNL     1      -2.782  -3.955   0.007  0.00  0.00    -0.004 C 
ATOM     30  H   UNL     1      -4.300  -4.352  -2.089  0.00  0.00    -0.081 HD
BRANCH  24  31
ATOM     31  C   UNL     1      -1.496  -1.832   0.006  0.00  0.00    +0.310 C 
ATOM     32  O   UNL     1      -0.528  -2.555  -0.007  0.00  0.00    -0.251 OA
BRANCH  31  33
ATOM     33  O   UNL     1      -1.339  -0.499   0.012  0.00  0.00    -0.465 OA
BRANCH  33  35
ATOM     34  C   UNL     1      -0.019   1.526   0.010  0.00  0.00    +0.048 C 
ATOM     35  C   UNL     1       0.002  -0.004   0.002  0.00  0.00    +0.229 C 
ENDBRANCH  33  35
ENDBRANCH  31  33
ENDBRANCH  24  31
ENDBRANCH  23  27
ENDBRANCH   1  23
TORSDOF 7
