REMARK  Name = ZINC14884568
REMARK  8 active torsions:
REMARK  status: ('A' for Active; 'I' for Inactive)
REMARK    1  A    between atoms: C_1  and  O_2
REMARK    2  A    between atoms: O_2  and  C_3
REMARK    3  A    between atoms: C_6  and  C_9
REMARK    4  A    between atoms: C_9  and  C_19
REMARK    5  A    between atoms: N_13  and  C_16
REMARK    6  A    between atoms: C_19  and  C_20
REMARK    7  A    between atoms: C_32  and  O_33
REMARK    8  A    between atoms: O_33  and  C_34
REMARK                            x       y       z     vdW  Elec       q    Type
REMARK                         _______ _______ _______ _____ _____    ______ ____
ROOT
ATOM      1  C   UNL     1       0.921   7.309  -3.864  0.00  0.00    +0.089 C 
ATOM      2  C   UNL     1       1.829   6.885  -5.037  0.00  0.00    +0.117 C 
ATOM      3  C   UNL     1       2.542   8.166  -5.414  0.00  0.00    +0.223 C 
ATOM      4  O   UNL     1       3.359   8.279  -6.302  0.00  0.00    -0.275 OA
ATOM      5  N   UNL     1       2.127   9.154  -4.612  0.00  0.00    -0.238 N 
ATOM      6  C   UNL     1       1.216   8.785  -3.703  0.00  0.00    +0.233 C 
ATOM      7  O   UNL     1       0.708   9.516  -2.881  0.00  0.00    -0.274 OA
ENDROOT
BRANCH   1  11
ATOM      8  C   UNL     1      -3.191   6.687  -4.846  0.00  0.00    +0.120 A 
ATOM      9  C   UNL     1      -2.672   7.973  -4.811  0.00  0.00    +0.046 A 
ATOM     10  C   UNL     1      -1.342   8.172  -4.493  0.00  0.00    +0.008 A 
ATOM     11  C   UNL     1      -0.529   7.090  -4.211  0.00  0.00    -0.031 A 
ATOM     12  C   UNL     1      -1.042   5.807  -4.251  0.00  0.00    +0.008 A 
ATOM     13  C   UNL     1      -2.373   5.604  -4.563  0.00  0.00    +0.046 A 
BRANCH   8  15
ATOM     14  C   UNL     1      -4.965   5.139  -5.176  0.00  0.00    +0.277 C 
ATOM     15  O   UNL     1      -4.499   6.490  -5.158  0.00  0.00    -0.495 OA
ENDBRANCH   8  15
ENDBRANCH   1  11
BRANCH   5  16
ATOM     16  C   UNL     1       2.630  10.526  -4.719  0.00  0.00    +0.084 C 
ATOM     17  C   UNL     1       3.394  10.901  -5.990  0.00  0.00    +0.025 C 
ATOM     18  C   UNL     1       4.145  10.729  -4.668  0.00  0.00    +0.025 C 
ENDBRANCH   5  16
BRANCH   1  19
ATOM     19  C   UNL     1       1.291   6.544  -2.592  0.00  0.00    +0.117 C 
BRANCH  19  20
ATOM     20  C   UNL     1       0.310   6.881  -1.500  0.00  0.00    +0.217 C 
ATOM     21  O   UNL     1      -0.533   7.733  -1.684  0.00  0.00    -0.276 OA
ATOM     22  N   UNL     1       0.370   6.237  -0.317  0.00  0.00    -0.297 N 
ATOM     23  C   UNL     1      -0.579   6.561   0.744  0.00  0.00    +0.111 C 
ATOM     24  C   UNL     1      -1.010   5.331   1.524  0.00  0.00    +0.060 C 
ATOM     25  C   UNL     1      -2.048   4.650   0.640  0.00  0.00    +0.231 C 
ATOM     26  O   UNL     1      -1.444   4.223  -0.583  0.00  0.00    -0.488 OA
ATOM     27  C   UNL     1      -0.393   3.366  -0.490  0.00  0.00    +0.167 A 
ATOM     28  C   UNL     1       0.887   3.795  -0.203  0.00  0.00    +0.015 A 
ATOM     29  C   UNL     1       1.878   2.819  -0.042  0.00  0.00    +0.009 A 
ATOM     30  C   UNL     1       1.605   1.480  -0.188  0.00  0.00    +0.004 A 
ATOM     31  C   UNL     1       0.325   1.061  -0.502  0.00  0.00    +0.049 A 
ATOM     32  C   UNL     1      -0.672   2.007  -0.649  0.00  0.00    +0.162 A 
ATOM     33  C   UNL     1       1.383   5.210  -0.080  0.00  0.00    +0.146 C 
BRANCH  32  34
ATOM     34  O   UNL     1      -1.936   1.611  -0.957  0.00  0.00    -0.491 OA
ATOM     35  C   UNL     1      -2.156   0.207  -1.112  0.00  0.00    +0.277 C 
ENDBRANCH  32  34
ENDBRANCH  19  20
ENDBRANCH   1  19
TORSDOF 6
