REMARK  Name = ZINC13987960
REMARK  9 active torsions:
REMARK  status: ('A' for Active; 'I' for Inactive)
REMARK    1  A    between atoms: C_1  and  C_2
REMARK    2  A    between atoms: C_2  and  N_3
REMARK    3  A    between atoms: N_3  and  C_4
REMARK    4  A    between atoms: C_4  and  C_5
REMARK    5  A    between atoms: C_11  and  C_13
REMARK    6  A    between atoms: C_13  and  N_14
REMARK    7  A    between atoms: C_17  and  C_21
REMARK    8  A    between atoms: C_17  and  C_22
REMARK    9  A    between atoms: C_26  and  N_28
REMARK                            x       y       z     vdW  Elec       q    Type
REMARK                         _______ _______ _______ _____ _____    ______ ____
ROOT
ATOM      1  N   UNL     1       0.887   4.816  -1.889  0.00  0.00    -0.215 N 
ATOM      2  C   UNL     1       1.723   4.943  -2.939  0.00  0.00    +0.251 C 
ATOM      3  O   UNL     1       2.449   4.090  -3.404  0.00  0.00    -0.272 OA
ATOM      4  C   UNL     1       1.566   6.372  -3.417  0.00  0.00    +0.135 C 
ATOM      5  N   UNL     1       0.572   6.940  -2.490  0.00  0.00    -0.281 N 
ATOM      6  C   UNL     1       0.236   5.957  -1.636  0.00  0.00    +0.310 C 
ATOM      7  O   UNL     1      -0.569   6.090  -0.735  0.00  0.00    -0.252 OA
ATOM      8  C   UNL     1       2.894   7.124  -3.309  0.00  0.00    +0.047 C 
ATOM      9  H   UNL     1       0.227   7.847  -2.495  0.00  0.00    +0.152 HD
ENDROOT
BRANCH   4  10
ATOM     10  C   UNL     1       1.052   6.408  -4.833  0.00  0.00    -0.014 A 
ATOM     11  C   UNL     1       1.437   5.431  -5.733  0.00  0.00    +0.006 A 
ATOM     12  C   UNL     1       0.963   5.457  -7.031  0.00  0.00    +0.002 A 
ATOM     13  C   UNL     1       0.112   6.467  -7.437  0.00  0.00    +0.028 A 
ATOM     14  C   UNL     1      -0.272   7.453  -6.538  0.00  0.00    +0.069 A 
ATOM     15  C   UNL     1       0.202   7.420  -5.233  0.00  0.00    +0.034 A 
BRANCH  14  16
ATOM     16  N   UNL     1      -1.135   8.480  -6.947  0.00  0.00    -0.200 N 
ATOM     17  C   UNL     1      -1.680   8.654  -8.171  0.00  0.00    +0.250 A 
ATOM     18  N   UNL     1      -2.419   9.732  -8.116  0.00  0.00    -0.116 NA
ATOM     19  N   UNL     1      -2.378  10.250  -6.942  0.00  0.00    -0.023 NA
ATOM     20  N   UNL     1      -1.623   9.545  -6.170  0.00  0.00    -0.039 NA
ENDBRANCH  14  16
ENDBRANCH   4  10
BRANCH   1  21
ATOM     21  C   UNL     1       0.717   3.583  -1.117  0.00  0.00    +0.213 C 
BRANCH  21  23
ATOM     22  N   UNL     1      -0.721   1.571  -1.179  0.00  0.00    -0.296 N 
ATOM     23  C   UNL     1      -0.386   2.756  -1.726  0.00  0.00    +0.234 C 
ATOM     24  O   UNL     1      -0.973   3.158  -2.708  0.00  0.00    -0.274 OA
BRANCH  22  26
ATOM     25  C   UNL     1      -0.729   1.579   1.267  0.00  0.00    +0.024 C 
ATOM     26  C   UNL     1      -0.013   1.086   0.008  0.00  0.00    +0.105 C 
ENDBRANCH  22  26
BRANCH  22  27
ATOM     27  C   UNL     1      -1.794   0.768  -1.771  0.00  0.00    +0.150 C 
BRANCH  27  28
ATOM     28  C   UNL     1      -3.110   1.145  -1.141  0.00  0.00    +0.008 A 
ATOM     29  C   UNL     1      -3.998   2.094  -1.524  0.00  0.00    +0.014 A 
ATOM     30  C   UNL     1      -5.155   2.267  -0.786  0.00  0.00    +0.028 A 
ATOM     31  C   UNL     1      -5.366   1.480   0.298  0.00  0.00    +0.078 A 
ATOM     32  S   UNL     1      -3.907   0.451   0.298  0.00  0.00    -0.080 S 
ATOM     33 CL   UNL     1      -6.710   1.471   1.397  0.00  0.00    -0.076 Cl
ENDBRANCH  27  28
ENDBRANCH  22  27
ENDBRANCH  21  23
ENDBRANCH   1  21
TORSDOF 7
