REMARK  Name = ZINC10514556
REMARK  7 active torsions:
REMARK  status: ('A' for Active; 'I' for Inactive)
REMARK    1  A    between atoms: C_1  and  C_2
REMARK    2  A    between atoms: C_2  and  C_3
REMARK    3  A    between atoms: C_3  and  C_4
REMARK    4  A    between atoms: C_7  and  S_10
REMARK    5  A    between atoms: S_10  and  N_13
REMARK    6  A    between atoms: C_21  and  S_23
REMARK    7  A    between atoms: S_23  and  N_26
REMARK                            x       y       z     vdW  Elec       q    Type
REMARK                         _______ _______ _______ _____ _____    ______ ____
ROOT
ATOM      1  N   UNL     1       0.236  -7.036  -0.032  0.00  0.00    -0.203 N 
ATOM      2  C   UNL     1       0.915  -7.340  -1.298  0.00  0.00    +0.132 C 
ATOM      3  C   UNL     1       1.716  -8.634  -1.101  0.00  0.00    +0.025 C 
ATOM      4  C   UNL     1       2.789  -8.394  -0.039  0.00  0.00    +0.039 C 
ATOM      5  C   UNL     1       2.179  -7.795   1.201  0.00  0.00    -0.023 A 
ATOM      6  C   UNL     1       0.954  -7.143   1.164  0.00  0.00    +0.055 A 
ATOM      7  C   UNL     1       0.423  -6.592   2.325  0.00  0.00    +0.027 A 
ATOM      8  C   UNL     1       1.115  -6.690   3.516  0.00  0.00    +0.030 A 
ATOM      9  C   UNL     1       2.336  -7.337   3.553  0.00  0.00    +0.105 A 
ATOM     10  C   UNL     1       2.863  -7.896   2.400  0.00  0.00    +0.034 A 
ENDROOT
BRANCH   1  11
ATOM     11  S   UNL     1      -1.352  -6.567  -0.020  0.00  0.00    +0.075 S 
ATOM     12  O   UNL     1      -1.891  -6.988   1.225  0.00  0.00    -0.150 OA
ATOM     13  O   UNL     1      -1.904  -6.972  -1.266  0.00  0.00    -0.150 OA
BRANCH  11  17
ATOM     14  C   UNL     1      -1.413  -2.041   0.010  0.00  0.00    -0.047 A 
ATOM     15  C   UNL     1      -1.409  -2.724  -1.192  0.00  0.00    +0.005 A 
ATOM     16  C   UNL     1      -1.390  -4.106  -1.201  0.00  0.00    +0.029 A 
ATOM     17  C   UNL     1      -1.375  -4.805  -0.009  0.00  0.00    +0.109 A 
ATOM     18  C   UNL     1      -1.378  -4.122   1.193  0.00  0.00    +0.029 A 
ATOM     19  C   UNL     1      -1.393  -2.740   1.202  0.00  0.00    +0.005 A 
BRANCH  14  20
ATOM     20  C   UNL     1      -1.433  -0.534   0.020  0.00  0.00    +0.035 C 
BRANCH  20  22
ATOM     21  C   UNL     1      -0.019   1.526   0.021  0.00  0.00    +0.004 C 
ATOM     22  C   UNL     1       0.002  -0.004   0.011  0.00  0.00    +0.001 C 
ENDBRANCH  20  22
ENDBRANCH  14  20
ENDBRANCH  11  17
ENDBRANCH   1  11
BRANCH   9  23
ATOM     23  S   UNL     1       3.218  -7.464   5.073  0.00  0.00    +0.056 S 
ATOM     24  O   UNL     1       4.587  -7.638   4.735  0.00  0.00    -0.153 OA
ATOM     25  O   UNL     1       2.766  -6.396   5.895  0.00  0.00    -0.153 OA
BRANCH  23  26
ATOM     26  N   UNL     1       2.730  -8.866   5.806  0.00  0.00    -0.204 NA
ATOM     27  H   UNL     1       3.341  -9.350   6.383  0.00  0.00    +0.144 HD
ATOM     28  H   UNL     1       1.832  -9.203   5.660  0.00  0.00    +0.144 HD
ENDBRANCH  23  26
ENDBRANCH   9  23
TORSDOF 6
