REMARK  Name = ZINC58646448
REMARK  8 active torsions:
REMARK  status: ('A' for Active; 'I' for Inactive)
REMARK    1  A    between atoms: C_1  and  C_2
REMARK    2  A    between atoms: C_5  and  S_12
REMARK    3  A    between atoms: S_12  and  N_15
REMARK    4  A    between atoms: N_15  and  C_16
REMARK    5  A    between atoms: N_15  and  C_23
REMARK    6  A    between atoms: C_16  and  C_17
REMARK    7  A    between atoms: C_23  and  C_25
REMARK    8  A    between atoms: C_23  and  C_26
REMARK                            x       y       z     vdW  Elec       q    Type
REMARK                         _______ _______ _______ _____ _____    ______ ____
ROOT
ATOM      1  S   UNL     1       0.075  -4.092  -0.419  0.00  0.00    +0.062 S 
ATOM      2  O   UNL     1      -0.699  -3.550   0.642  0.00  0.00    -0.153 OA
ATOM      3  O   UNL     1      -0.490  -4.911  -1.434  0.00  0.00    -0.153 OA
ENDROOT
BRANCH   1   8
ATOM      4  C   UNL     1       2.667   0.568  -3.305  0.00  0.00    +0.046 C 
ATOM      5  C   UNL     1       2.027  -0.580  -2.567  0.00  0.00    -0.024 A 
ATOM      6  C   UNL     1       1.545  -1.651  -3.256  0.00  0.00    +0.007 A 
ATOM      7  C   UNL     1       0.949  -2.722  -2.595  0.00  0.00    +0.029 A 
ATOM      8  C   UNL     1       0.833  -2.728  -1.238  0.00  0.00    +0.115 A 
ATOM      9  C   UNL     1       1.319  -1.641  -0.495  0.00  0.00    +0.027 A 
ATOM     10  C   UNL     1       1.930  -0.552  -1.165  0.00  0.00    +0.076 A 
ATOM     11  N   UNL     1       2.399   0.484  -0.462  0.00  0.00    -0.255 NA
ATOM     12  C   UNL     1       2.311   0.515   0.845  0.00  0.00    +0.111 A 
ATOM     13  C   UNL     1       1.727  -0.524   1.566  0.00  0.00    +0.020 A 
ATOM     14  C   UNL     1       1.218  -1.608   0.909  0.00  0.00    +0.013 A 
ENDBRANCH   1   8
BRANCH   1  15
ATOM     15  N   UNL     1       1.286  -4.977   0.282  0.00  0.00    -0.169 NA
BRANCH  15  16
ATOM     16  C   UNL     1       2.244  -5.702  -0.556  0.00  0.00    +0.080 C 
ATOM     17  C   UNL     1       3.666  -5.261  -0.206  0.00  0.00    +0.026 C 
BRANCH  16  18
ATOM     18  C   UNL     1       2.100  -7.206  -0.310  0.00  0.00    +0.008 C 
ATOM     19  C   UNL     1       3.316  -7.949   0.248  0.00  0.00    +0.005 C 
ATOM     20  C   UNL     1       2.900  -8.149  -1.211  0.00  0.00    +0.005 C 
ENDBRANCH  16  18
ENDBRANCH  15  16
BRANCH  15  21
ATOM     21  C   UNL     1       1.401  -5.033   1.742  0.00  0.00    +0.144 C 
BRANCH  21  22
ATOM     22  C   UNL     1       0.643  -6.229   2.259  0.00  0.00    -0.032 A 
ATOM     23  C   UNL     1      -0.717  -6.139   2.487  0.00  0.00    +0.005 A 
ATOM     24  C   UNL     1      -1.412  -7.236   2.962  0.00  0.00    +0.000 A 
ATOM     25  C   UNL     1      -0.747  -8.422   3.208  0.00  0.00    +0.000 A 
ATOM     26  C   UNL     1       0.614  -8.512   2.979  0.00  0.00    +0.000 A 
ATOM     27  C   UNL     1       1.308  -7.417   2.500  0.00  0.00    +0.005 A 
ENDBRANCH  21  22
ENDBRANCH  15  21
ENDBRANCH   1  15
TORSDOF 6
