REMARK  Name = ZINC09170925
REMARK  8 active torsions:
REMARK  status: ('A' for Active; 'I' for Inactive)
REMARK    1  A    between atoms: C_1  and  C_2
REMARK    2  A    between atoms: C_2  and  N_3
REMARK    3  A    between atoms: C_6  and  N_17
REMARK    4  A    between atoms: C_12  and  C_15
REMARK    5  A    between atoms: C_12  and  C_16
REMARK    6  A    between atoms: N_17  and  S_18
REMARK    7  A    between atoms: S_18  and  C_21
REMARK    8  A    between atoms: C_21  and  C_22
REMARK                            x       y       z     vdW  Elec       q    Type
REMARK                         _______ _______ _______ _____ _____    ______ ____
ROOT
ATOM      1  N   UNL     1      -5.693  -3.615  -1.274  0.00  0.00    -0.268 N 
ATOM      2  C   UNL     1      -4.836  -3.482  -0.173  0.00  0.00    +0.080 A 
ATOM      3  C   UNL     1      -4.630  -2.244   0.414  0.00  0.00    +0.051 A 
ATOM      4  C   UNL     1      -3.768  -2.129   1.496  0.00  0.00    +0.050 A 
ATOM      5  C   UNL     1      -3.125  -3.254   1.994  0.00  0.00    +0.028 A 
ATOM      6  C   UNL     1      -3.337  -4.491   1.413  0.00  0.00    +0.049 A 
ATOM      7  C   UNL     1      -4.191  -4.610   0.331  0.00  0.00    +0.142 A 
ATOM      8  O   UNL     1      -4.411  -5.824  -0.242  0.00  0.00    -0.489 OA
ATOM      9  C   UNL     1      -5.654  -6.461   0.038  0.00  0.00    +0.244 C 
ATOM     10  C   UNL     1      -6.801  -5.455  -0.049  0.00  0.00    +0.076 C 
ATOM     11  C   UNL     1      -6.634  -4.585  -1.268  0.00  0.00    +0.229 C 
ATOM     12  O   UNL     1      -7.340  -4.756  -2.239  0.00  0.00    -0.275 OA
ATOM     13  C   UNL     1      -8.130  -6.207  -0.140  0.00  0.00    +0.024 C 
ATOM     14  C   UNL     1      -6.800  -4.575   1.203  0.00  0.00    +0.024 C 
ENDROOT
BRANCH   1  16
ATOM     15  C   UNL     1      -6.462  -1.487  -2.203  0.00  0.00    +0.025 C 
ATOM     16  C   UNL     1      -5.571  -2.711  -2.421  0.00  0.00    +0.110 C 
ENDBRANCH   1  16
BRANCH   4  17
ATOM     17  N   UNL     1      -3.552  -0.880   2.088  0.00  0.00    -0.220 N 
ATOM     18  H   UNL     1      -4.303  -0.294   2.272  0.00  0.00    +0.173 HD
BRANCH  17  19
ATOM     19  S   UNL     1      -2.015  -0.402   2.476  0.00  0.00    +0.047 S 
ATOM     20  O   UNL     1      -1.476  -1.484   3.223  0.00  0.00    -0.155 OA
ATOM     21  O   UNL     1      -2.172   0.880   3.069  0.00  0.00    -0.155 OA
BRANCH  19  22
ATOM     22  C   UNL     1      -1.157  -0.253   0.884  0.00  0.00    +0.223 C 
BRANCH  22  23
ATOM     23  C   UNL     1       0.266   0.181   1.119  0.00  0.00    -0.023 A 
ATOM     24  C   UNL     1       1.257  -0.766   1.302  0.00  0.00    +0.005 A 
ATOM     25  C   UNL     1       2.564  -0.369   1.512  0.00  0.00    +0.002 A 
ATOM     26  C   UNL     1       2.881   0.977   1.545  0.00  0.00    +0.020 A 
ATOM     27  C   UNL     1       1.889   1.925   1.369  0.00  0.00    +0.041 A 
ATOM     28  C   UNL     1       0.581   1.526   1.159  0.00  0.00    +0.025 A 
ATOM     29 CL   UNL     1       2.286   3.614   1.411  0.00  0.00    -0.084 Cl
ENDBRANCH  22  23
ENDBRANCH  19  22
ENDBRANCH  17  19
ENDBRANCH   4  17
TORSDOF 5
