REMARK  Name = ZINC09349873
REMARK  5 active torsions:
REMARK  status: ('A' for Active; 'I' for Inactive)
REMARK    1  A    between atoms: N_13  and  C_14
REMARK    2  A    between atoms: C_14  and  C_15
REMARK    3  A    between atoms: C_15  and  C_17
REMARK    4  A    between atoms: C_15  and  O_28
REMARK    5  A    between atoms: C_17  and  N_52
REMARK                            x       y       z     vdW  Elec       q    Type
REMARK                         _______ _______ _______ _____ _____    ______ ____
ROOT
ATOM      1  C   UNL     1       4.691   7.169  -2.382  0.00  0.00    +0.118 C 
ENDROOT
BRANCH   1   2
ATOM      2  O   UNL     1       5.122   6.360  -3.478  0.00  0.00    -0.392 OA
ATOM      3  H   UNL     1       6.062   6.135  -3.455  0.00  0.00    +0.210 HD
ENDBRANCH   1   2
BRANCH   1   4
ATOM      4  C   UNL     1       5.471   8.486  -2.382  0.00  0.00    +0.151 C 
BRANCH   4  17
ATOM      5  C   UNL     1       2.217  12.074  -4.411  0.00  0.00    +0.001 A 
ATOM      6  C   UNL     1       2.225  11.554  -3.125  0.00  0.00    +0.002 A 
ATOM      7  C   UNL     1       3.159  10.611  -2.756  0.00  0.00    +0.026 A 
ATOM      8  C   UNL     1       4.105  10.169  -3.676  0.00  0.00    +0.050 A 
ATOM      9  C   UNL     1       4.096  10.696  -4.976  0.00  0.00    +0.008 A 
ATOM     10  C   UNL     1       3.147  11.650  -5.336  0.00  0.00    +0.010 A 
ATOM     11  C   UNL     1       5.200  10.042  -5.701  0.00  0.00    +0.009 A 
ATOM     12  C   UNL     1       5.687  10.145  -7.003  0.00  0.00    +0.026 A 
ATOM     13  C   UNL     1       6.765   9.380  -7.394  0.00  0.00    +0.019 A 
ATOM     14  C   UNL     1       7.365   8.509  -6.496  0.00  0.00    +0.017 A 
ATOM     15  C   UNL     1       6.894   8.398  -5.206  0.00  0.00    +0.027 A 
ATOM     16  C   UNL     1       5.810   9.166  -4.791  0.00  0.00    +0.050 A 
ATOM     17  N   UNL     1       5.136   9.252  -3.585  0.00  0.00    -0.337 N 
ATOM     18 BR   UNL     1       7.428   9.518  -9.159  0.00  0.00    -0.050 Br
ENDBRANCH   4  17
ENDBRANCH   1   4
BRANCH   1  19
ATOM     19  C   UNL     1       4.945   6.426  -1.069  0.00  0.00    -0.045 C 
BRANCH  19  30
ATOM     20  C   UNL     1       4.595   4.314   0.062  0.00  0.00    -0.059 C 
ATOM     21  C   UNL     1       3.852   2.978  -0.018  0.00  0.00    +0.088 C 
ATOM     22  N   UNL     1       2.403   3.225  -0.003  0.00  0.00    -0.313 N 
ATOM     23  C   UNL     1       2.004   4.073  -1.135  0.00  0.00    +0.088 C 
ATOM     24  C   UNL     1       2.747   5.409  -1.054  0.00  0.00    -0.059 C 
ATOM     25  C   UNL     1       1.696   2.032  -0.003  0.00  0.00    +0.160 A 
ATOM     26  N   UNL     1       2.156   0.796  -0.014  0.00  0.00    -0.233 NA
ATOM     27  C   UNL     1       1.336  -0.238  -0.012  0.00  0.00    +0.120 A 
ATOM     28  C   UNL     1       0.002  -0.004   0.002  0.00  0.00    +0.068 A 
ATOM     29  S   UNL     1      -0.022   1.783   0.012  0.00  0.00    -0.061 S 
ATOM     30  N   UNL     1       4.202   5.148  -1.093  0.00  0.00    +0.383 N 
ATOM     31  H   UNL     1       4.428   4.647  -1.959  0.00  0.00    -0.082 HD
ENDBRANCH  19  30
ENDBRANCH   1  19
TORSDOF 5
