REMARK  Name = ZINC24695998
REMARK  8 active torsions:
REMARK  status: ('A' for Active; 'I' for Inactive)
REMARK    1  A    between atoms: C_1  and  C_2
REMARK    2  A    between atoms: C_2  and  C_3
REMARK    3  A    between atoms: C_2  and  C_4
REMARK    4  A    between atoms: C_2  and  C_5
REMARK    5  A    between atoms: C_12  and  C_14
REMARK    6  A    between atoms: N_19  and  S_22
REMARK    7  A    between atoms: S_22  and  N_25
REMARK    8  A    between atoms: N_28  and  C_31
REMARK                            x       y       z     vdW  Elec       q    Type
REMARK                         _______ _______ _______ _____ _____    ______ ____
ROOT
ATOM      1  C   UNL     1      -3.691   3.370   3.745  0.00  0.00    +0.253 C 
ATOM      2  O   UNL     1      -4.761   2.822   3.932  0.00  0.00    -0.269 OA
ATOM      3  N   UNL     1      -2.777   2.805   2.932  0.00  0.00    -0.295 N 
ATOM      4  C   UNL     1      -3.080   1.555   2.221  0.00  0.00    +0.125 C 
ATOM      5  C   UNL     1      -1.996   0.523   2.560  0.00  0.00    +0.129 C 
ATOM      6  N   UNL     1      -0.679   1.146   2.369  0.00  0.00    -0.163 NA
ATOM      7  C   UNL     1      -0.374   2.393   3.084  0.00  0.00    +0.129 C 
ATOM      8  C   UNL     1      -1.460   3.428   2.740  0.00  0.00    +0.125 C 
ENDROOT
BRANCH   1  15
ATOM      9  C   UNL     1      -2.986   8.161   7.687  0.00  0.00    -0.001 C 
ATOM     10  C   UNL     1      -2.730   9.107   6.510  0.00  0.00    +0.009 C 
ATOM     11  C   UNL     1      -1.909   8.361   5.448  0.00  0.00    +0.043 C 
ATOM     12  C   UNL     1      -2.543   7.025   5.213  0.00  0.00    -0.006 A 
ATOM     13  C   UNL     1      -3.473   6.405   5.998  0.00  0.00    -0.036 A 
ATOM     14  C   UNL     1      -3.918   5.163   5.576  0.00  0.00    +0.024 A 
ATOM     15  C   UNL     1      -3.396   4.645   4.405  0.00  0.00    +0.075 A 
ATOM     16  S   UNL     1      -2.262   5.933   3.911  0.00  0.00    -0.088 S 
ATOM     17  C   UNL     1      -3.978   7.073   7.275  0.00  0.00    +0.040 C 
BRANCH   9  19
ATOM     18  C   UNL     1      -3.809   8.015  10.042  0.00  0.00    +0.011 C 
ATOM     19  C   UNL     1      -3.563   8.956   8.861  0.00  0.00    -0.035 C 
ATOM     20  C   UNL     1      -2.572  10.046   9.274  0.00  0.00    +0.011 C 
ATOM     21  C   UNL     1      -4.885   9.601   8.439  0.00  0.00    +0.011 C 
ENDBRANCH   9  19
ENDBRANCH   1  15
BRANCH   6  22
ATOM     22  S   UNL     1       0.444   0.451   1.370  0.00  0.00    +0.099 S 
ATOM     23  O   UNL     1       0.121  -0.931   1.295  0.00  0.00    -0.141 OA
ATOM     24  O   UNL     1       1.716   0.913   1.805  0.00  0.00    -0.141 OA
BRANCH  22  25
ATOM     25  N   UNL     1       0.206   1.076  -0.145  0.00  0.00    -0.170 NA
ATOM     26  C   UNL     1      -0.706   0.423  -1.096  0.00  0.00    +0.092 C 
ATOM     27  C   UNL     1      -1.681   1.482  -1.633  0.00  0.00    -0.062 C 
ATOM     28  N   UNL     1      -0.917   2.611  -2.181  0.00  0.00    +0.380 N 
ATOM     29  C   UNL     1      -0.128   3.278  -1.136  0.00  0.00    -0.062 C 
ATOM     30  C   UNL     1       0.906   2.295  -0.577  0.00  0.00    +0.092 C 
ATOM     31  C   UNL     1      -1.802   3.565  -2.862  0.00  0.00    -0.096 C 
ATOM     32  H   UNL     1      -0.214   2.209  -2.926  0.00  0.00    -0.082 HD
ENDBRANCH  22  25
ENDBRANCH   6  22
TORSDOF 4
