REMARK  Name = ZINC28573652
REMARK  3 active torsions:
REMARK  status: ('A' for Active; 'I' for Inactive)
REMARK    1  A    between atoms: C_6  and  C_7
REMARK    2  A    between atoms: C_7  and  N_8
REMARK    3  A    between atoms: C_14  and  C_16
REMARK                            x       y       z     vdW  Elec       q    Type
REMARK                         _______ _______ _______ _____ _____    ______ ____
ROOT
ATOM      1  N   UNL     1       0.002  -0.004   0.002  0.00  0.00    -0.264 N 
ATOM      2  C   UNL     1      -0.016   1.347   0.009  0.00  0.00    +0.130 A 
ATOM      3  C   UNL     1       1.266   1.778  -0.001  0.00  0.00    +0.100 A 
ATOM      4  C   UNL     1       2.101   0.649  -0.015  0.00  0.00    +0.165 A 
ATOM      5  N   UNL     1       1.340  -0.420  -0.013  0.00  0.00    -0.154 NA
ATOM      6  N   UNL     1       3.502   0.662  -0.027  0.00  0.00    -0.268 N 
ATOM      7  C   UNL     1       4.187  -0.499  -0.039  0.00  0.00    +0.221 C 
ATOM      8  O   UNL     1       3.590  -1.555  -0.039  0.00  0.00    -0.275 OA
ATOM      9 CL   UNL     1       1.786   3.435   0.003  0.00  0.00    -0.078 Cl
ATOM     10  H   UNL     1       4.044   1.619  -0.028  0.00  0.00    +0.156 HD
ENDROOT
BRANCH   7  11
ATOM     11  C   UNL     1       5.694  -0.486  -0.053  0.00  0.00    +0.075 C 
ATOM     12  C   UNL     1       6.186   0.246  -1.304  0.00  0.00    +0.013 C 
ATOM     13  C   UNL     1       7.715   0.259  -1.318  0.00  0.00    +0.001 C 
ATOM     14  C   UNL     1       8.238  -1.179  -1.329  0.00  0.00    +0.000 C 
ATOM     15  C   UNL     1       7.746  -1.910  -0.079  0.00  0.00    +0.001 C 
ATOM     16  C   UNL     1       6.216  -1.924  -0.065  0.00  0.00    +0.013 C 
ENDBRANCH   7  11
BRANCH   1  17
ATOM     17  C   UNL     1      -1.172  -0.881   0.008  0.00  0.00    +0.178 C 
BRANCH  17  23
ATOM     18  C   UNL     1      -1.661  -1.475  -2.373  0.00  0.00    +0.007 A 
ATOM     19  C   UNL     1      -1.588  -2.341  -3.448  0.00  0.00    +0.020 A 
ATOM     20  C   UNL     1      -0.961  -3.566  -3.308  0.00  0.00    +0.041 A 
ATOM     21  C   UNL     1      -0.401  -3.921  -2.093  0.00  0.00    +0.020 A 
ATOM     22  C   UNL     1      -0.470  -3.052  -1.021  0.00  0.00    +0.007 A 
ATOM     23  C   UNL     1      -1.097  -1.828  -1.162  0.00  0.00    -0.026 A 
ATOM     24 CL   UNL     1      -0.874  -4.657  -4.655  0.00  0.00    -0.084 Cl
ENDBRANCH  17  23
ENDBRANCH   1  17
TORSDOF 3
