REMARK  Name = ZINC17105577
REMARK  10 active torsions:
REMARK  status: ('A' for Active; 'I' for Inactive)
REMARK    1  A    between atoms: C_1  and  C_2
REMARK    2  A    between atoms: C_2  and  N_3
REMARK    3  A    between atoms: C_7  and  C_25
REMARK    4  A    between atoms: C_10  and  C_13
REMARK    5  A    between atoms: N_14  and  N_15
REMARK    6  A    between atoms: N_15  and  C_16
REMARK    7  A    between atoms: C_21  and  N_22
REMARK    8  A    between atoms: N_26  and  N_27
REMARK    9  A    between atoms: N_27  and  C_28
REMARK   10  A    between atoms: C_33  and  N_34
REMARK                            x       y       z     vdW  Elec       q    Type
REMARK                         _______ _______ _______ _____ _____    ______ ____
ROOT
ATOM      1  N   UNL     1      13.475   2.107  -0.371  0.00  0.00    -0.331 N 
ATOM      2  C   UNL     1      13.911   0.888  -0.869  0.00  0.00    +0.051 A 
ATOM      3  C   UNL     1      15.121   0.502  -1.438  0.00  0.00    +0.027 A 
ATOM      4  C   UNL     1      15.310  -0.797  -1.862  0.00  0.00    +0.011 A 
ATOM      5  C   UNL     1      14.290  -1.743  -1.726  0.00  0.00    -0.005 A 
ATOM      6  C   UNL     1      13.067  -1.368  -1.154  0.00  0.00    +0.020 A 
ATOM      7  C   UNL     1      12.883  -0.058  -0.729  0.00  0.00    +0.011 A 
ATOM      8  C   UNL     1      11.751   0.656  -0.101  0.00  0.00    +0.039 A 
ATOM      9  C   UNL     1      12.229   2.036   0.082  0.00  0.00    +0.119 A 
ATOM     10 CL   UNL     1      11.321   3.344   0.774  0.00  0.00    -0.063 Cl
ENDROOT
BRANCH   1  12
ATOM     11  C   UNL     1      14.069   4.103  -1.654  0.00  0.00    +0.027 C 
ATOM     12  C   UNL     1      14.288   3.326  -0.354  0.00  0.00    +0.120 C 
ENDBRANCH   1  12
BRANCH   8  13
ATOM     13  C   UNL     1      10.509   0.139   0.237  0.00  0.00    +0.141 C 
ATOM     14  N   UNL     1       9.589   0.927   0.804  0.00  0.00    -0.190 NA
BRANCH  14  15
ATOM     15  N   UNL     1       8.434   0.447   1.119  0.00  0.00    -0.236 N 
ATOM     16  H   UNL     1       8.232  -0.486   0.944  0.00  0.00    +0.174 HD
BRANCH  15  17
ATOM     17  C   UNL     1       7.484   1.260   1.704  0.00  0.00    +0.078 A 
ATOM     18  C   UNL     1       7.726   2.628   1.848  0.00  0.00    +0.027 A 
ATOM     19  C   UNL     1       6.773   3.435   2.433  0.00  0.00    +0.002 A 
ATOM     20  C   UNL     1       5.579   2.891   2.876  0.00  0.00    +0.002 A 
ATOM     21  C   UNL     1       5.331   1.536   2.731  0.00  0.00    +0.034 A 
ATOM     22  C   UNL     1       6.279   0.718   2.153  0.00  0.00    +0.149 A 
BRANCH  22  23
ATOM     23  N   UNL     1       6.015  -0.731   2.003  0.00  0.00    +0.058 N 
ATOM     24  O   UNL     1       4.808  -1.151   1.686  0.00  0.00    -0.126 OA
ATOM     25  O   UNL     1       6.987  -1.599   2.188  0.00  0.00    -0.126 OA
ENDBRANCH  22  23
ENDBRANCH  15  17
ENDBRANCH  14  15
ENDBRANCH   8  13
BRANCH   5  26
ATOM     26  C   UNL     1      14.500  -3.127  -2.181  0.00  0.00    +0.138 C 
ATOM     27  N   UNL     1      15.636  -3.472  -2.712  0.00  0.00    -0.190 NA
BRANCH  27  28
ATOM     28  N   UNL     1      15.836  -4.789  -3.145  0.00  0.00    -0.236 N 
ATOM     29  H   UNL     1      15.127  -5.444  -3.049  0.00  0.00    +0.174 HD
BRANCH  28  30
ATOM     30  C   UNL     1      17.054  -5.159  -3.714  0.00  0.00    +0.078 A 
ATOM     31  C   UNL     1      18.112  -4.258  -3.741  0.00  0.00    +0.027 A 
ATOM     32  C   UNL     1      19.318  -4.629  -4.301  0.00  0.00    +0.002 A 
ATOM     33  C   UNL     1      19.471  -5.893  -4.844  0.00  0.00    +0.002 A 
ATOM     34  C   UNL     1      18.419  -6.790  -4.823  0.00  0.00    +0.034 A 
ATOM     35  C   UNL     1      17.211  -6.427  -4.261  0.00  0.00    +0.149 A 
BRANCH  35  36
ATOM     36  N   UNL     1      16.085  -7.388  -4.240  0.00  0.00    +0.058 N 
ATOM     37  O   UNL     1      16.314  -8.666  -4.022  0.00  0.00    -0.126 OA
ATOM     38  O   UNL     1      14.854  -6.964  -4.440  0.00  0.00    -0.126 OA
ENDBRANCH  35  36
ENDBRANCH  28  30
ENDBRANCH  27  28
ENDBRANCH   5  26
TORSDOF 9
