REMARK  Name = ZINC37229851
REMARK  9 active torsions:
REMARK  status: ('A' for Active; 'I' for Inactive)
REMARK    1  A    between atoms: C_4  and  C_7
REMARK    2  A    between atoms: C_7  and  O_8
REMARK    3  A    between atoms: O_8  and  C_9
REMARK    4  A    between atoms: C_11  and  N_32
REMARK    5  A    between atoms: C_13  and  O_31
REMARK    6  A    between atoms: C_22  and  C_25
REMARK    7  A    between atoms: C_33  and  O_35
REMARK    8  A    between atoms: O_35  and  C_36
REMARK    9  A    between atoms: C_36  and  C_37
REMARK                            x       y       z     vdW  Elec       q    Type
REMARK                         _______ _______ _______ _____ _____    ______ ____
ROOT
ATOM      1  C   UNL     1       5.385  -1.642   1.400  0.00  0.00    +0.274 C 
ATOM      2  C   UNL     1       5.619  -2.065   2.852  0.00  0.00    +0.163 C 
ATOM      3  C   UNL     1       6.994  -2.734   2.979  0.00  0.00    +0.171 C 
ATOM      4  C   UNL     1       8.055  -1.760   2.466  0.00  0.00    +0.183 C 
ATOM      5  C   UNL     1       7.728  -1.403   1.010  0.00  0.00    +0.178 C 
ATOM      6  O   UNL     1       6.445  -0.783   0.966  0.00  0.00    -0.341 OA
ATOM      7  C   UNL     1       8.815  -0.462   0.488  0.00  0.00    +0.197 C 
ATOM      8  O   UNL     1      10.086  -1.102   0.661  0.00  0.00    -0.345 OA
ATOM      9  C   UNL     1      10.379  -1.478   2.007  0.00  0.00    +0.282 C 
ATOM     10  O   UNL     1       9.356  -2.346   2.510  0.00  0.00    -0.339 OA
ENDROOT
BRANCH   9  11
ATOM     11  C   UNL     1      11.703  -2.195   2.049  0.00  0.00    +0.008 A 
ATOM     12  C   UNL     1      11.770  -3.498   2.508  0.00  0.00    +0.008 A 
ATOM     13  C   UNL     1      12.986  -4.155   2.547  0.00  0.00    +0.000 A 
ATOM     14  C   UNL     1      14.134  -3.511   2.126  0.00  0.00    +0.000 A 
ATOM     15  C   UNL     1      14.067  -2.209   1.666  0.00  0.00    +0.000 A 
ATOM     16  C   UNL     1      12.851  -1.553   1.623  0.00  0.00    +0.008 A 
ENDBRANCH   9  11
BRANCH   2  17
ATOM     17  N   UNL     1       5.570  -0.885   3.718  0.00  0.00    -0.271 N 
ATOM     18  C   UNL     1       4.385  -0.434   4.175  0.00  0.00    +0.401 C 
ATOM     19  O   UNL     1       3.358  -1.006   3.870  0.00  0.00    -0.226 OA
ATOM     20  H   UNL     1       6.390  -0.427   3.962  0.00  0.00    +0.153 HD
BRANCH  18  21
ATOM     21  O   UNL     1       4.340   0.651   4.971  0.00  0.00    -0.446 OA
BRANCH  21  22
ATOM     22  C   UNL     1       3.050   1.074   5.419  0.00  0.00    +0.269 C 
BRANCH  22  23
ATOM     23  C   UNL     1       3.197   2.293   6.292  0.00  0.00    -0.010 A 
ATOM     24  C   UNL     1       3.374   2.150   7.656  0.00  0.00    +0.007 A 
ATOM     25  C   UNL     1       3.509   3.269   8.457  0.00  0.00    +0.000 A 
ATOM     26  C   UNL     1       3.466   4.531   7.894  0.00  0.00    +0.000 A 
ATOM     27  C   UNL     1       3.289   4.674   6.530  0.00  0.00    +0.000 A 
ATOM     28  C   UNL     1       3.159   3.555   5.729  0.00  0.00    +0.007 A 
ENDBRANCH  22  23
ENDBRANCH  21  22
ENDBRANCH  18  21
ENDBRANCH   2  17
BRANCH   3  29
ATOM     29  O   UNL     1       7.249  -3.050   4.350  0.00  0.00    -0.387 OA
ATOM     30  H   UNL     1       6.602  -3.653   4.741  0.00  0.00    +0.210 HD
ENDBRANCH   3  29
BRANCH   1  31
ATOM     31  O   UNL     1       4.141  -0.946   1.304  0.00  0.00    -0.345 OA
BRANCH  31  32
ATOM     32  C   UNL     1       3.711  -0.707  -0.038  0.00  0.00    +0.198 C 
BRANCH  32  36
ATOM     33  C   UNL     1      -0.017   1.378   0.010  0.00  0.00    +0.000 A 
ATOM     34  C   UNL     1       1.171   2.086   0.002  0.00  0.00    +0.000 A 
ATOM     35  C   UNL     1       2.377   1.411  -0.013  0.00  0.00    +0.006 A 
ATOM     36  C   UNL     1       2.396   0.029  -0.020  0.00  0.00    -0.022 A 
ATOM     37  C   UNL     1       1.208  -0.679  -0.012  0.00  0.00    +0.006 A 
ATOM     38  C   UNL     1       0.002  -0.004   0.002  0.00  0.00    +0.000 A 
ENDBRANCH  32  36
ENDBRANCH  31  32
ENDBRANCH   1  31
TORSDOF 9
