REMARK  Name = ZINC67104241
REMARK  10 active torsions:
REMARK  status: ('A' for Active; 'I' for Inactive)
REMARK    1  A    between atoms: C_1  and  C_2
REMARK    2  A    between atoms: N_11  and  C_12
REMARK    3  A    between atoms: C_12  and  C_13
REMARK    4  A    between atoms: C_13  and  N_14
REMARK    5  A    between atoms: N_17  and  N_18
REMARK    6  A    between atoms: C_19  and  C_21
REMARK    7  A    between atoms: C_21  and  C_22
REMARK    8  A    between atoms: C_22  and  C_23
REMARK    9  A    between atoms: C_23  and  C_24
REMARK   10  A    between atoms: C_23  and  C_25
REMARK                            x       y       z     vdW  Elec       q    Type
REMARK                         _______ _______ _______ _____ _____    ______ ____
ROOT
ATOM      1  N   UNL     1       3.545   1.300   2.756  0.00  0.00    -0.297 N 
ATOM      2  C   UNL     1       3.854   2.375   3.508  0.00  0.00    +0.316 C 
ATOM      3  O   UNL     1       2.974   3.120   3.894  0.00  0.00    -0.251 OA
ATOM      4  N   UNL     1       5.139   2.624   3.832  0.00  0.00    -0.218 N 
ATOM      5  H   UNL     1       4.247   0.706   2.448  0.00  0.00    +0.150 HD
ATOM      6  H   UNL     1       5.361   3.397   4.373  0.00  0.00    +0.174 HD
ENDROOT
BRANCH   4   7
ATOM      7  N   UNL     1       6.152   1.765   3.387  0.00  0.00    -0.233 N 
ATOM      8  C   UNL     1       7.437   2.014   3.711  0.00  0.00    +0.229 C 
ATOM      9  O   UNL     1       7.715   2.981   4.388  0.00  0.00    -0.274 OA
ATOM     10  H   UNL     1       5.930   0.992   2.846  0.00  0.00    +0.173 HD
BRANCH   8  11
ATOM     11  C   UNL     1       8.527   1.091   3.233  0.00  0.00    +0.097 C 
BRANCH  11  12
ATOM     12  C   UNL     1       9.881   1.596   3.736  0.00  0.00    +0.012 C 
BRANCH  12  13
ATOM     13  C   UNL     1      10.988   0.658   3.250  0.00  0.00    -0.017 C 
ATOM     14  C   UNL     1      12.351   1.230   3.647  0.00  0.00    +0.007 C 
ATOM     15  C   UNL     1      10.807  -0.719   3.891  0.00  0.00    +0.007 C 
ENDBRANCH  12  13
ENDBRANCH  11  12
ENDBRANCH   8  11
ENDBRANCH   4   7
BRANCH   1  16
ATOM     16  C   UNL     1       2.149   1.029   2.403  0.00  0.00    +0.124 C 
BRANCH  16  17
ATOM     17  C   UNL     1       2.075  -0.239   1.552  0.00  0.00    +0.124 C 
BRANCH  17  27
ATOM     18  C   UNL     1      -0.019   1.526   0.010  0.00  0.00    +0.028 C 
ATOM     19  C   UNL     1       0.002  -0.004   0.002  0.00  0.00    +0.075 C 
ATOM     20  C   UNL     1      -1.430  -0.557   0.082  0.00  0.00    +0.059 C 
ATOM     21  C   UNL     1      -1.455  -1.361   1.363  0.00  0.00    -0.025 A 
ATOM     22  C   UNL     1      -2.470  -2.086   1.958  0.00  0.00    +0.005 A 
ATOM     23  C   UNL     1      -2.244  -2.746   3.152  0.00  0.00    +0.000 A 
ATOM     24  C   UNL     1      -0.999  -2.679   3.750  0.00  0.00    +0.002 A 
ATOM     25  C   UNL     1       0.017  -1.957   3.160  0.00  0.00    +0.023 A 
ATOM     26  C   UNL     1      -0.204  -1.287   1.954  0.00  0.00    +0.033 A 
ATOM     27  N   UNL     1       0.679  -0.510   1.199  0.00  0.00    -0.325 N 
ENDBRANCH  17  27
ENDBRANCH  16  17
ENDBRANCH   1  16
TORSDOF 7
