REMARK  Name = ZINC09959666
REMARK  7 active torsions:
REMARK  status: ('A' for Active; 'I' for Inactive)
REMARK    1  A    between atoms: C_4  and  C_7
REMARK    2  A    between atoms: C_7  and  N_8
REMARK    3  A    between atoms: C_9  and  C_28
REMARK    4  A    between atoms: C_12  and  S_13
REMARK    5  A    between atoms: S_13  and  C_14
REMARK    6  A    between atoms: C_14  and  C_15
REMARK    7  A    between atoms: N_17  and  C_18
REMARK                            x       y       z     vdW  Elec       q    Type
REMARK                         _______ _______ _______ _____ _____    ______ ____
ROOT
ATOM      1  N   UNL     1       6.693  -6.417   0.451  0.00  0.00    -0.297 N 
ATOM      2  C   UNL     1       8.069  -6.391   0.493  0.00  0.00    +0.172 A 
ATOM      3  N   UNL     1       8.432  -5.130   0.417  0.00  0.00    -0.128 NA
ATOM      4  N   UNL     1       7.393  -4.379   0.326  0.00  0.00    -0.122 NA
ATOM      5  C   UNL     1       6.303  -5.111   0.348  0.00  0.00    +0.193 A 
ENDROOT
BRANCH   2   6
ATOM      6  C   UNL     1       8.964  -7.554   0.602  0.00  0.00    +0.056 A 
ATOM      7  C   UNL     1      10.315  -7.631   0.374  0.00  0.00    +0.019 A 
ATOM      8  C   UNL     1      10.946  -8.843   0.542  0.00  0.00    +0.008 A 
ATOM      9  C   UNL     1      10.216  -9.921   0.927  0.00  0.00    +0.046 A 
ATOM     10  S   UNL     1       8.575  -9.232   1.073  0.00  0.00    -0.094 S 
ENDBRANCH   2   6
BRANCH   1  11
ATOM     11  C   UNL     1       5.827  -7.598   0.504  0.00  0.00    +0.161 C 
BRANCH  11  15
ATOM     12  C   UNL     1       5.114  -9.023  -3.459  0.00  0.00    +0.000 A 
ATOM     13  C   UNL     1       6.195  -9.496  -2.738  0.00  0.00    +0.000 A 
ATOM     14  C   UNL     1       6.426  -9.035  -1.456  0.00  0.00    +0.005 A 
ATOM     15  C   UNL     1       5.576  -8.101  -0.894  0.00  0.00    -0.028 A 
ATOM     16  C   UNL     1       4.492  -7.632  -1.612  0.00  0.00    +0.005 A 
ATOM     17  C   UNL     1       4.264  -8.089  -2.897  0.00  0.00    +0.000 A 
ENDBRANCH  11  15
ENDBRANCH   1  11
BRANCH   5  18
ATOM     18  S   UNL     1       4.645  -4.519   0.254  0.00  0.00    -0.077 S 
BRANCH  18  19
ATOM     19  C   UNL     1       4.953  -2.739   0.140  0.00  0.00    +0.173 C 
BRANCH  19  20
ATOM     20  C   UNL     1       3.639  -2.007   0.048  0.00  0.00    +0.227 C 
ATOM     21  O   UNL     1       2.597  -2.628   0.057  0.00  0.00    -0.275 OA
ATOM     22  N   UNL     1       3.621  -0.663  -0.046  0.00  0.00    -0.285 N 
ATOM     23  H   UNL     1       4.453  -0.172  -0.131  0.00  0.00    +0.155 HD
BRANCH  22  24
ATOM     24  C   UNL     1       2.401   0.025  -0.021  0.00  0.00    +0.037 A 
ATOM     25  C   UNL     1       1.346  -0.460   0.740  0.00  0.00    +0.027 A 
ATOM     26  C   UNL     1       0.142   0.217   0.764  0.00  0.00    +0.051 A 
ATOM     27  C   UNL     1      -0.016   1.384   0.030  0.00  0.00    +0.162 A 
ATOM     28  C   UNL     1       1.040   1.873  -0.730  0.00  0.00    +0.164 A 
ATOM     29  C   UNL     1       2.247   1.192  -0.756  0.00  0.00    +0.072 A 
ATOM     30  O   UNL     1       0.906   3.021  -1.451  0.00  0.00    -0.485 OA
ATOM     31  C   UNL     1      -0.429   3.473  -1.699  0.00  0.00    +0.270 C 
ATOM     32  C   UNL     1      -1.216   3.395  -0.384  0.00  0.00    +0.270 C 
ATOM     33  O   UNL     1      -1.213   2.033   0.059  0.00  0.00    -0.485 OA
ENDBRANCH  22  24
ENDBRANCH  19  20
ENDBRANCH  18  19
ENDBRANCH   5  18
TORSDOF 7
