REMARK  Name = ZINC20762977
REMARK  6 active torsions:
REMARK  status: ('A' for Active; 'I' for Inactive)
REMARK    1  A    between atoms: C_1  and  C_2
REMARK    2  A    between atoms: C_2  and  C_4
REMARK    3  A    between atoms: C_2  and  N_15
REMARK    4  A    between atoms: C_4  and  C_5
REMARK    5  A    between atoms: C_16  and  C_18
REMARK    6  A    between atoms: C_18  and  N_19
REMARK                            x       y       z     vdW  Elec       q    Type
REMARK                         _______ _______ _______ _____ _____    ______ ____
ROOT
ATOM      1  N   UNL     1       3.849   1.937   1.957  0.00  0.00    -0.311 N 
ATOM      2  C   UNL     1       3.742   2.099   3.291  0.00  0.00    +0.233 C 
ATOM      3  O   UNL     1       3.914   1.155   4.033  0.00  0.00    -0.274 OA
ATOM      4  H   UNL     1       3.693   2.793   1.284  0.00  0.00    +0.149 HD
ENDROOT
BRANCH   1   6
ATOM      5  C   UNL     1       5.692   0.427   1.402  0.00  0.00    +0.028 C 
ATOM      6  C   UNL     1       4.174   0.620   1.404  0.00  0.00    +0.074 C 
BRANCH   6   7
ATOM      7  C   UNL     1       3.646   0.524  -0.029  0.00  0.00    +0.059 C 
BRANCH   7   8
ATOM      8  C   UNL     1       2.140   0.591  -0.015  0.00  0.00    -0.021 A 
ATOM      9  C   UNL     1       1.295  -0.452  -0.013  0.00  0.00    +0.087 A 
ATOM     10  N   UNL     1       0.002  -0.004   0.002  0.00  0.00    -0.360 N 
ATOM     11  H   UNL     1      -0.829  -0.724   0.006  0.00  0.00    +0.165 HD
ATOM     12  C   UNL     1      -0.017   1.373   0.010  0.00  0.00    +0.047 A 
ATOM     13  C   UNL     1       1.322   1.806  -0.001  0.00  0.00    +0.003 A 
ATOM     14  C   UNL     1       1.612   3.171   0.004  0.00  0.00    +0.010 A 
ATOM     15  C   UNL     1       0.593   4.082   0.019  0.00  0.00    +0.001 A 
ATOM     16  C   UNL     1      -0.729   3.659   0.029  0.00  0.00    +0.002 A 
ATOM     17  C   UNL     1      -1.038   2.317   0.029  0.00  0.00    +0.026 A 
ENDBRANCH   7   8
ENDBRANCH   6   7
ENDBRANCH   1   6
BRANCH   2  18
ATOM     18  C   UNL     1       3.408   3.454   3.860  0.00  0.00    +0.217 C 
BRANCH  18  19
ATOM     19  N   UNL     1       3.349   3.369   5.321  0.00  0.00    -0.338 N 
ATOM     20  C   UNL     1       2.208   3.180   6.053  0.00  0.00    +0.087 A 
ATOM     21  C   UNL     1       2.504   3.146   7.362  0.00  0.00    +0.027 A 
ATOM     22  C   UNL     1       3.952   3.337   7.479  0.00  0.00    +0.001 A 
ATOM     23  C   UNL     1       4.434   3.472   6.164  0.00  0.00    +0.050 A 
ATOM     24  C   UNL     1       5.794   3.670   5.952  0.00  0.00    +0.027 A 
ATOM     25  C   UNL     1       6.656   3.731   7.025  0.00  0.00    +0.017 A 
ATOM     26  C   UNL     1       6.180   3.597   8.323  0.00  0.00    +0.019 A 
ATOM     27  C   UNL     1       4.837   3.401   8.556  0.00  0.00    +0.025 A 
ATOM     28 BR   UNL     1       7.384   3.685   9.779  0.00  0.00    -0.050 Br
ENDBRANCH  18  19
ENDBRANCH   2  18
TORSDOF 5
