REMARK  Name = ZINC04833766
REMARK  11 active torsions:
REMARK  status: ('A' for Active; 'I' for Inactive)
REMARK    1  A    between atoms: C_1  and  C_2
REMARK    2  A    between atoms: C_2  and  C_3
REMARK    3  A    between atoms: C_3  and  C_27
REMARK    4  A    between atoms: C_5  and  C_9
REMARK    5  A    between atoms: C_5  and  C_19
REMARK    6  A    between atoms: C_9  and  C_10
REMARK    7  A    between atoms: C_10  and  N_59
REMARK    8  A    between atoms: C_11  and  C_12
REMARK    9  A    between atoms: C_11  and  N_59
REMARK   10  A    between atoms: C_22  and  O_25
REMARK   11  A    between atoms: O_25  and  C_26
REMARK                            x       y       z     vdW  Elec       q    Type
REMARK                         _______ _______ _______ _____ _____    ______ ____
ROOT
ATOM      1  C   UNL     1      -0.118   7.309   5.272  0.00  0.00    +0.067 C 
ATOM      2  C   UNL     1       1.038   8.051   4.595  0.00  0.00    +0.046 C 
ATOM      3  C   UNL     1       1.072   7.680   3.109  0.00  0.00    -0.001 C 
ATOM      4  C   UNL     1      -0.283   8.015   2.479  0.00  0.00    +0.039 C 
ATOM      5  C   UNL     1      -1.387   7.274   3.237  0.00  0.00    +0.161 C 
ATOM      6  O   UNL     1      -1.344   7.641   4.618  0.00  0.00    -0.374 OA
ATOM      7  C   UNL     1       0.120   5.800   5.175  0.00  0.00    +0.041 C 
ENDROOT
BRANCH   3   8
ATOM      8  C   UNL     1       2.158   8.464   2.417  0.00  0.00    -0.041 A 
ATOM      9  C   UNL     1       3.000   9.275   3.155  0.00  0.00    +0.008 A 
ATOM     10  C   UNL     1       4.000   9.990   2.523  0.00  0.00    +0.046 A 
ATOM     11  C   UNL     1       4.150   9.903   1.147  0.00  0.00    +0.120 A 
ATOM     12  C   UNL     1       3.300   9.092   0.409  0.00  0.00    +0.046 A 
ATOM     13  C   UNL     1       2.305   8.375   1.046  0.00  0.00    +0.008 A 
BRANCH  11  14
ATOM     14  O   UNL     1       5.129  10.609   0.523  0.00  0.00    -0.495 OA
ATOM     15  C   UNL     1       5.968  11.422   1.346  0.00  0.00    +0.277 C 
ENDBRANCH  11  14
ENDBRANCH   3   8
BRANCH   1  17
ATOM     16  C   UNL     1      -1.342   6.966   7.423  0.00  0.00    +0.007 C 
ATOM     17  C   UNL     1      -0.196   7.720   6.743  0.00  0.00    +0.031 C 
ENDBRANCH   1  17
BRANCH   3  18
ATOM     18  C   UNL     1       1.349   6.183   2.962  0.00  0.00    -0.007 C 
BRANCH  18  19
ATOM     19  C   UNL     1       2.656   5.833   3.676  0.00  0.00    -0.081 C 
BRANCH  19  20
ATOM     20  N   UNL     1       2.845   4.370   3.650  0.00  0.00    +0.382 N 
ATOM     21  H   UNL     1       2.884   4.051   2.675  0.00  0.00    -0.085 HD
ATOM     22  H   UNL     1       2.055   3.918   4.126  0.00  0.00    -0.085 HD
BRANCH  20  23
ATOM     23  C   UNL     1       4.100   4.003   4.333  0.00  0.00    -0.047 C 
BRANCH  23  24
ATOM     24  C   UNL     1       4.266   2.506   4.290  0.00  0.00    -0.064 A 
ATOM     25  C   UNL     1       4.934   1.915   3.234  0.00  0.00    +0.004 A 
ATOM     26  C   UNL     1       5.087   0.542   3.193  0.00  0.00    +0.038 A 
ATOM     27  C   UNL     1       4.571  -0.241   4.211  0.00  0.00    +0.123 A 
ATOM     28  C   UNL     1       3.902   0.352   5.269  0.00  0.00    +0.038 A 
ATOM     29  C   UNL     1       3.750   1.725   5.307  0.00  0.00    +0.004 A 
ATOM     30  F   UNL     1       4.719  -1.583   4.173  0.00  0.00    -0.205 F 
ENDBRANCH  23  24
ENDBRANCH  20  23
ENDBRANCH  19  20
ENDBRANCH  18  19
ENDBRANCH   3  18
TORSDOF 8
