REMARK  Name = ZINC32519907
REMARK  8 active torsions:
REMARK  status: ('A' for Active; 'I' for Inactive)
REMARK    1  A    between atoms: C_9  and  S_11
REMARK    2  A    between atoms: S_11  and  C_12
REMARK    3  A    between atoms: C_12  and  C_13
REMARK    4  A    between atoms: N_15  and  N_16
REMARK    5  A    between atoms: C_17  and  C_18
REMARK    6  A    between atoms: C_21  and  O_24
REMARK    7  A    between atoms: O_24  and  C_25
REMARK    8  A    between atoms: C_25  and  C_26
REMARK                            x       y       z     vdW  Elec       q    Type
REMARK                         _______ _______ _______ _____ _____    ______ ____
ROOT
ATOM      1  N   UNL     1       1.187   2.061   0.002  0.00  0.00    -0.188 NA
ATOM      2  C   UNL     1       1.170   3.358   0.009  0.00  0.00    +0.138 C 
ENDROOT
BRANCH   2   3
ATOM      3  C   UNL     1       2.436   4.113   0.001  0.00  0.00    -0.005 A 
ATOM      4  C   UNL     1       3.657   3.433  -0.009  0.00  0.00    +0.013 A 
ATOM      5  C   UNL     1       4.838   4.142  -0.021  0.00  0.00    +0.046 A 
ATOM      6  C   UNL     1       4.817   5.531  -0.014  0.00  0.00    +0.121 A 
ATOM      7  C   UNL     1       3.606   6.211   0.002  0.00  0.00    +0.046 A 
ATOM      8  C   UNL     1       2.420   5.510   0.009  0.00  0.00    +0.013 A 
BRANCH   6   9
ATOM      9  O   UNL     1       5.984   6.226  -0.021  0.00  0.00    -0.487 OA
BRANCH   9  10
ATOM     10  C   UNL     1       7.193   5.464  -0.036  0.00  0.00    +0.266 C 
BRANCH  10  11
ATOM     11  C   UNL     1       8.376   6.398  -0.042  0.00  0.00    +0.008 A 
ATOM     12  C   UNL     1       8.176   7.766  -0.032  0.00  0.00    +0.010 A 
ATOM     13  C   UNL     1       9.260   8.623  -0.037  0.00  0.00    +0.020 A 
ATOM     14  C   UNL     1      10.546   8.113  -0.052  0.00  0.00    +0.042 A 
ATOM     15  C   UNL     1      10.746   6.745  -0.061  0.00  0.00    +0.040 A 
ATOM     16  C   UNL     1       9.661   5.887  -0.051  0.00  0.00    +0.049 A 
ATOM     17 CL   UNL     1       9.912   4.169  -0.057  0.00  0.00    -0.083 Cl
ATOM     18 CL   UNL     1      11.907   9.190  -0.058  0.00  0.00    -0.083 Cl
ENDBRANCH  10  11
ENDBRANCH   9  10
ENDBRANCH   6   9
ENDBRANCH   2   3
BRANCH   1  21
ATOM     19  C   UNL     1       0.002  -0.004   0.002  0.00  0.00    +0.242 C 
ATOM     20  O   UNL     1       1.061  -0.596  -0.011  0.00  0.00    -0.273 OA
ATOM     21  N   UNL     1      -0.016   1.344   0.009  0.00  0.00    -0.206 N 
ATOM     22  H   UNL     1      -0.976   1.881   0.021  0.00  0.00    +0.177 HD
BRANCH  19  23
ATOM     23  C   UNL     1      -1.293  -0.775   0.010  0.00  0.00    +0.174 C 
BRANCH  23  24
ATOM     24  S   UNL     1      -0.938  -2.550  -0.003  0.00  0.00    -0.078 S 
BRANCH  24  33
ATOM     25  C   UNL     1      -6.543  -5.404   0.036  0.00  0.00    +0.002 A 
ATOM     26  C   UNL     1      -7.014  -4.099   0.048  0.00  0.00    +0.002 A 
ATOM     27  C   UNL     1      -6.136  -3.039   0.045  0.00  0.00    +0.030 A 
ATOM     28  C   UNL     1      -4.759  -3.278   0.030  0.00  0.00    +0.090 A 
ATOM     29  C   UNL     1      -4.287  -4.601   0.018  0.00  0.00    +0.067 A 
ATOM     30  C   UNL     1      -5.186  -5.657   0.022  0.00  0.00    +0.028 A 
ATOM     31  N   UNL     1      -2.905  -4.517   0.005  0.00  0.00    -0.333 N 
ATOM     32  H   UNL     1      -2.298  -5.435  -0.005  0.00  0.00    +0.168 HD
ATOM     33  C   UNL     1      -2.579  -3.190   0.010  0.00  0.00    +0.168 A 
ATOM     34  N   UNL     1      -3.671  -2.465   0.029  0.00  0.00    -0.222 NA
ENDBRANCH  24  33
ENDBRANCH  23  24
ENDBRANCH  19  23
ENDBRANCH   1  21
TORSDOF 8
