REMARK  Name = ZINC01058661
REMARK  4 active torsions:
REMARK  status: ('A' for Active; 'I' for Inactive)
REMARK    1  A    between atoms: C_6  and  C_7
REMARK    2  A    between atoms: N_8  and  N_9
REMARK    3  A    between atoms: C_10  and  C_12
REMARK    4  A    between atoms: C_16  and  O_18
REMARK                            x       y       z     vdW  Elec       q    Type
REMARK                         _______ _______ _______ _____ _____    ______ ____
ROOT
ATOM      1  N   UNL     1       1.188   2.011   0.002  0.00  0.00    -0.203 N 
ATOM      2  C   UNL     1       1.170   3.358   0.009  0.00  0.00    +0.263 C 
ATOM      3  O   UNL     1       0.109   3.952   0.022  0.00  0.00    -0.268 OA
ATOM      4  H   UNL     1       2.035   1.537  -0.009  0.00  0.00    +0.178 HD
ENDROOT
BRANCH   2   5
ATOM      5  C   UNL     1       2.439   4.115   0.001  0.00  0.00    +0.042 A 
ATOM      6  C   UNL     1       3.659   3.435  -0.009  0.00  0.00    +0.014 A 
ATOM      7  C   UNL     1       4.843   4.144  -0.021  0.00  0.00    +0.019 A 
ATOM      8  C   UNL     1       4.825   5.528  -0.014  0.00  0.00    +0.055 A 
ATOM      9  C   UNL     1       3.617   6.212   0.001  0.00  0.00    +0.131 A 
ATOM     10  C   UNL     1       2.423   5.510   0.009  0.00  0.00    +0.059 A 
ATOM     11  I   UNL     1       6.628   6.595  -0.026  0.00  0.00    -0.040 I 
BRANCH   9  12
ATOM     12  O   UNL     1       3.605   7.571   0.009  0.00  0.00    -0.506 OA
ATOM     13  H   UNL     1       3.610   7.960   0.894  0.00  0.00    +0.292 HD
ENDBRANCH   9  12
ENDBRANCH   2   5
BRANCH   1  15
ATOM     14  C   UNL     1       0.002  -0.004   0.002  0.00  0.00    +0.138 C 
ATOM     15  N   UNL     1      -0.015   1.294   0.009  0.00  0.00    -0.187 NA
BRANCH  14  21
ATOM     16  C   UNL     1      -2.485  -0.079   0.031  0.00  0.00    +0.013 A 
ATOM     17  C   UNL     1      -3.668  -0.786   0.034  0.00  0.00    +0.050 A 
ATOM     18  C   UNL     1      -3.652  -2.174   0.025  0.00  0.00    +0.166 A 
ATOM     19  C   UNL     1      -2.437  -2.859   0.010  0.00  0.00    +0.167 A 
ATOM     20  C   UNL     1      -1.248  -2.156   0.002  0.00  0.00    +0.059 A 
ATOM     21  C   UNL     1      -1.264  -0.758   0.010  0.00  0.00    -0.002 A 
ATOM     22  O   UNL     1      -2.694  -4.200   0.005  0.00  0.00    -0.453 OA
ATOM     23  C   UNL     1      -4.071  -4.326  -0.396  0.00  0.00    +0.466 C 
ATOM     24  O   UNL     1      -4.667  -3.087   0.030  0.00  0.00    -0.453 OA
ENDBRANCH  14  21
ENDBRANCH   1  15
TORSDOF 4
