REMARK  Name = ZINC01637031
REMARK  5 active torsions:
REMARK  status: ('A' for Active; 'I' for Inactive)
REMARK    1  A    between atoms: C_1  and  C_2
REMARK    2  A    between atoms: C_7  and  O_8
REMARK    3  A    between atoms: O_8  and  C_9
REMARK    4  A    between atoms: C_9  and  C_10
REMARK    5  A    between atoms: C_14  and  C_17
REMARK                            x       y       z     vdW  Elec       q    Type
REMARK                         _______ _______ _______ _____ _____    ______ ____
ROOT
ATOM      1  C   UNL     1      -0.013   1.086   0.008  0.00  0.00    +0.185 C 
ATOM      2  C   UNL     1       1.429   1.653  -0.003  0.00  0.00    +0.198 C 
ATOM      3  O   UNL     1       1.754   1.604  -1.413  0.00  0.00    -0.344 OA
ATOM      4  C   UNL     1       0.523   1.920  -2.085  0.00  0.00    +0.282 C 
ATOM      5  O   UNL     1      -0.573   1.595  -1.220  0.00  0.00    -0.338 OA
ENDROOT
BRANCH   4   6
ATOM      6  C   UNL     1       0.420   1.117  -3.356  0.00  0.00    +0.008 A 
ATOM      7  C   UNL     1      -0.616   0.217  -3.523  0.00  0.00    +0.010 A 
ATOM      8  C   UNL     1      -0.714  -0.515  -4.691  0.00  0.00    +0.020 A 
ATOM      9  C   UNL     1       0.230  -0.355  -5.689  0.00  0.00    +0.041 A 
ATOM     10  C   UNL     1       1.270   0.542  -5.519  0.00  0.00    +0.020 A 
ATOM     11  C   UNL     1       1.364   1.278  -4.353  0.00  0.00    +0.010 A 
ATOM     12 CL   UNL     1       0.112  -1.280  -7.153  0.00  0.00    -0.084 Cl
ENDBRANCH   4   6
BRANCH   1  13
ATOM     13  C   UNL     1      -0.790   1.607   1.218  0.00  0.00    +0.263 C 
BRANCH  13  14
ATOM     14  O   UNL     1      -2.093   1.022   1.236  0.00  0.00    -0.489 OA
BRANCH  14  21
ATOM     15  C   UNL     1      -4.678  -0.116   1.283  0.00  0.00    +0.047 C 
ATOM     16  C   UNL     1      -4.199   0.856   2.330  0.00  0.00    -0.009 A 
ATOM     17  C   UNL     1      -5.034   1.220   3.369  0.00  0.00    +0.007 A 
ATOM     18  C   UNL     1      -4.597   2.115   4.327  0.00  0.00    +0.000 A 
ATOM     19  C   UNL     1      -3.322   2.646   4.250  0.00  0.00    +0.004 A 
ATOM     20  C   UNL     1      -2.482   2.281   3.217  0.00  0.00    +0.046 A 
ATOM     21  C   UNL     1      -2.918   1.382   2.254  0.00  0.00    +0.124 A 
ENDBRANCH  14  21
ENDBRANCH  13  14
ENDBRANCH   1  13
TORSDOF 4
