REMARK  Name = ZINC36614595
REMARK  10 active torsions:
REMARK  status: ('A' for Active; 'I' for Inactive)
REMARK    1  A    between atoms: C_1  and  C_2
REMARK    2  A    between atoms: C_2  and  C_3
REMARK    3  A    between atoms: C_2  and  C_4
REMARK    4  A    between atoms: C_7  and  C_10
REMARK    5  A    between atoms: C_11  and  C_12
REMARK    6  A    between atoms: C_17  and  O_35
REMARK    7  A    between atoms: C_24  and  C_26
REMARK    8  A    between atoms: C_29  and  O_34
REMARK    9  A    between atoms: C_30  and  O_32
REMARK   10  A    between atoms: O_32  and  C_33
REMARK                            x       y       z     vdW  Elec       q    Type
REMARK                         _______ _______ _______ _____ _____    ______ ____
ROOT
ATOM      1  C   UNL     1       3.136  -3.770   6.538  0.00  0.00    +0.240 C 
ATOM      2  O   UNL     1       4.302  -3.498   6.754  0.00  0.00    -0.271 OA
ATOM      3  N   UNL     1       2.354  -4.223   7.538  0.00  0.00    -0.290 N 
ATOM      4  C   UNL     1       0.976  -4.659   7.272  0.00  0.00    +0.111 C 
ATOM      5  C   UNL     1       0.031  -3.901   8.211  0.00  0.00    +0.054 C 
ATOM      6  C   UNL     1       0.485  -4.101   9.658  0.00  0.00    +0.072 C 
ATOM      7  C   UNL     1       0.483  -5.593   9.995  0.00  0.00    +0.035 C 
ATOM      8  C   UNL     1       0.926  -5.786  11.447  0.00  0.00    +0.003 C 
ATOM      9  C   UNL     1       2.336  -5.221  11.631  0.00  0.00    +0.001 C 
ATOM     10  C   UNL     1       2.337  -3.729  11.290  0.00  0.00    +0.008 C 
ATOM     11  C   UNL     1       1.897  -3.539   9.836  0.00  0.00    +0.046 C 
ATOM     12  C   UNL     1       2.864  -4.298   8.914  0.00  0.00    +0.112 C 
ENDROOT
BRANCH  12  13
ATOM     13  C   UNL     1       4.230  -3.665   8.980  0.00  0.00    -0.023 A 
ATOM     14  C   UNL     1       4.388  -2.329   8.661  0.00  0.00    +0.009 A 
ATOM     15  C   UNL     1       5.639  -1.745   8.721  0.00  0.00    +0.049 A 
ATOM     16  C   UNL     1       6.739  -2.497   9.101  0.00  0.00    +0.158 A 
ATOM     17  C   UNL     1       6.580  -3.842   9.423  0.00  0.00    +0.162 A 
ATOM     18  C   UNL     1       5.322  -4.421   9.366  0.00  0.00    +0.055 A 
BRANCH  17  19
ATOM     19  O   UNL     1       7.655  -4.585   9.798  0.00  0.00    -0.491 OA
ATOM     20  C   UNL     1       7.417  -5.958  10.113  0.00  0.00    +0.277 C 
ENDBRANCH  17  19
BRANCH  16  21
ATOM     21  O   UNL     1       7.970  -1.924   9.160  0.00  0.00    -0.503 OA
ATOM     22  H   UNL     1       8.184  -1.539  10.021  0.00  0.00    +0.292 HD
ENDBRANCH  16  21
ENDBRANCH  12  13
BRANCH   1  24
ATOM     23  C   UNL     1       3.330  -3.046   4.220  0.00  0.00    +0.013 C 
ATOM     24  C   UNL     1       2.582  -3.605   5.193  0.00  0.00    +0.068 C 
BRANCH  23  28
ATOM     25  C   UNL     1       1.727  -2.568   0.322  0.00  0.00    -0.045 A 
ATOM     26  C   UNL     1       3.018  -2.149   0.592  0.00  0.00    +0.004 A 
ATOM     27  C   UNL     1       3.546  -2.301   1.856  0.00  0.00    +0.008 A 
ATOM     28  C   UNL     1       2.773  -2.880   2.868  0.00  0.00    -0.025 A 
ATOM     29  C   UNL     1       1.470  -3.301   2.588  0.00  0.00    +0.008 A 
ATOM     30  C   UNL     1       0.954  -3.137   1.319  0.00  0.00    +0.004 A 
BRANCH  25  32
ATOM     31  C   UNL     1       1.158  -0.916  -1.437  0.00  0.00    +0.012 C 
ATOM     32  C   UNL     1       1.157  -2.399  -1.063  0.00  0.00    +0.013 C 
ATOM     33  C   UNL     1       2.012  -3.178  -2.064  0.00  0.00    +0.012 C 
ENDBRANCH  25  32
ENDBRANCH  23  28
ENDBRANCH   1  24
BRANCH   6  34
ATOM     34  O   UNL     1      -0.412  -3.418  10.536  0.00  0.00    -0.388 OA
ATOM     35  H   UNL     1      -1.328  -3.724  10.479  0.00  0.00    +0.210 HD
ENDBRANCH   6  34
TORSDOF 7
