REMARK  Name = ZINC19891508
REMARK  5 active torsions:
REMARK  status: ('A' for Active; 'I' for Inactive)
REMARK    1  A    between atoms: C_1  and  N_2
REMARK    2  A    between atoms: N_2  and  C_3
REMARK    3  A    between atoms: N_2  and  C_4
REMARK    4  A    between atoms: C_7  and  C_10
REMARK    5  A    between atoms: C_27  and  C_29
REMARK                            x       y       z     vdW  Elec       q    Type
REMARK                         _______ _______ _______ _____ _____    ______ ____
ROOT
ATOM      1  C   UNL     1      -4.870  -2.906   0.033  0.00  0.00    +0.234 C 
ATOM      2  C   UNL     1      -5.364  -3.060  -1.375  0.00  0.00    +0.027 C 
ATOM      3  C   UNL     1      -6.180  -2.136  -1.923  0.00  0.00    +0.083 C 
ATOM      4  C   UNL     1      -6.571  -0.981  -1.076  0.00  0.00    +0.042 A 
ATOM      5  C   UNL     1      -7.123   0.168  -1.625  0.00  0.00    +0.013 A 
ATOM      6  C   UNL     1      -7.471   1.220  -0.800  0.00  0.00    +0.001 A 
ATOM      7  C   UNL     1      -7.269   1.130   0.567  0.00  0.00    +0.004 A 
ATOM      8  C   UNL     1      -6.719  -0.011   1.121  0.00  0.00    +0.046 A 
ATOM      9  C   UNL     1      -6.367  -1.073   0.307  0.00  0.00    +0.131 A 
ATOM     10  O   UNL     1      -5.833  -2.205   0.822  0.00  0.00    -0.479 OA
ATOM     11  N   UNL     1      -6.631  -2.254  -3.196  0.00  0.00    -0.213 NA
ATOM     12  C   UNL     1      -6.336  -3.251  -3.997  0.00  0.00    +0.237 C 
ATOM     13  N   UNL     1      -6.695  -3.521  -5.271  0.00  0.00    -0.205 NA
ATOM     14  C   UNL     1      -6.157  -4.642  -5.667  0.00  0.00    +0.203 C 
ATOM     15  N   UNL     1      -5.408  -5.167  -4.657  0.00  0.00    -0.251 N 
ATOM     16  N   UNL     1      -5.516  -4.281  -3.583  0.00  0.00    -0.208 N 
ATOM     17  C   UNL     1      -4.966  -4.249  -2.222  0.00  0.00    +0.159 C 
ATOM     18  H   UNL     1      -4.901  -5.994  -4.680  0.00  0.00    +0.171 HD
ENDROOT
BRANCH  17  19
ATOM     19  C   UNL     1      -5.405  -5.502  -1.508  0.00  0.00    -0.021 A 
ATOM     20  C   UNL     1      -6.721  -5.917  -1.586  0.00  0.00    +0.007 A 
ATOM     21  C   UNL     1      -7.124  -7.066  -0.932  0.00  0.00    +0.015 A 
ATOM     22  C   UNL     1      -6.209  -7.801  -0.200  0.00  0.00    +0.018 A 
ATOM     23  C   UNL     1      -4.892  -7.386  -0.122  0.00  0.00    +0.015 A 
ATOM     24  C   UNL     1      -4.489  -6.239  -0.781  0.00  0.00    +0.007 A 
ATOM     25 BR   UNL     1      -6.759  -9.373   0.696  0.00  0.00    -0.050 Br
ENDBRANCH  17  19
BRANCH   1  29
ATOM     26  C   UNL     1      -1.198  -0.719   0.010  0.00  0.00    +0.029 A 
ATOM     27  C   UNL     1      -1.181  -2.108   0.008  0.00  0.00    +0.023 A 
ATOM     28  C   UNL     1      -2.369  -2.812   0.016  0.00  0.00    +0.009 A 
ATOM     29  C   UNL     1      -3.575  -2.135   0.025  0.00  0.00    -0.003 A 
ATOM     30  C   UNL     1      -3.596  -0.752   0.027  0.00  0.00    +0.009 A 
ATOM     31  C   UNL     1      -2.411  -0.042   0.025  0.00  0.00    +0.023 A 
BRANCH  26  33
ATOM     32  C   UNL     1      -0.018   1.461   0.010  0.00  0.00    +0.129 C 
ATOM     33  N   UNL     1       0.002  -0.004   0.002  0.00  0.00    -0.336 N 
ATOM     34  C   UNL     1       1.281  -0.719  -0.014  0.00  0.00    +0.129 C 
ENDBRANCH  26  33
ENDBRANCH   1  29
TORSDOF 3
