REMARK  Name = ZINC28056913
REMARK  7 active torsions:
REMARK  status: ('A' for Active; 'I' for Inactive)
REMARK    1  A    between atoms: C_1  and  C_2
REMARK    2  A    between atoms: C_10  and  C_13
REMARK    3  A    between atoms: C_16  and  S_19
REMARK    4  A    between atoms: S_19  and  C_20
REMARK    5  A    between atoms: C_21  and  C_29
REMARK    6  A    between atoms: C_33  and  O_35
REMARK    7  A    between atoms: O_35  and  C_36
REMARK                            x       y       z     vdW  Elec       q    Type
REMARK                         _______ _______ _______ _____ _____    ______ ____
ROOT
ATOM      1  C   UNL     1       3.734   3.552  11.861  0.00  0.00    +0.044 C 
ATOM      2  C   UNL     1       3.217   3.749  10.460  0.00  0.00    -0.050 A 
ATOM      3  C   UNL     1       3.658   4.825   9.708  0.00  0.00    +0.007 A 
ATOM      4  C   UNL     1       3.191   5.020   8.420  0.00  0.00    +0.046 A 
ATOM      5  C   UNL     1       2.279   4.134   7.879  0.00  0.00    +0.131 A 
ATOM      6  C   UNL     1       1.832   3.044   8.639  0.00  0.00    +0.038 A 
ATOM      7  C   UNL     1       2.305   2.856   9.931  0.00  0.00    +0.016 A 
ATOM      8  C   UNL     1       0.854   2.112   8.028  0.00  0.00    +0.050 C 
ATOM      9  C   UNL     1       0.200   2.506   6.934  0.00  0.00    +0.025 C 
ATOM     10  C   UNL     1       0.446   3.894   6.387  0.00  0.00    +0.234 C 
ATOM     11  O   UNL     1       1.796   4.292   6.620  0.00  0.00    -0.479 OA
ATOM     12  C   UNL     1      -0.790   1.617   6.221  0.00  0.00    +0.174 C 
ATOM     13  N   UNL     1      -1.128   0.473   7.056  0.00  0.00    -0.201 N 
ATOM     14  C   UNL     1      -0.439   0.120   8.172  0.00  0.00    +0.240 A 
ATOM     15  N   UNL     1      -1.005  -0.947   8.658  0.00  0.00    -0.092 NA
ATOM     16  N   UNL     1      -2.011  -1.290   7.928  0.00  0.00    -0.021 NA
ATOM     17  N   UNL     1      -2.147  -0.470   6.935  0.00  0.00    -0.042 NA
ATOM     18  N   UNL     1       0.653   0.854   8.607  0.00  0.00    -0.282 N 
ATOM     19  H   UNL     1       1.349   0.484   9.375  0.00  0.00    +0.155 HD
ENDROOT
BRANCH  10  20
ATOM     20  C   UNL     1      -0.483   4.867   7.066  0.00  0.00    -0.003 A 
ATOM     21  C   UNL     1      -0.229   5.272   8.364  0.00  0.00    +0.008 A 
ATOM     22  C   UNL     1      -1.076   6.168   8.987  0.00  0.00    +0.015 A 
ATOM     23  C   UNL     1      -2.190   6.654   8.313  0.00  0.00    +0.008 A 
ATOM     24  C   UNL     1      -2.445   6.240   7.011  0.00  0.00    +0.015 A 
ATOM     25  C   UNL     1      -1.591   5.348   6.392  0.00  0.00    +0.008 A 
BRANCH  23  26
ATOM     26  S   UNL     1      -3.277   7.791   9.107  0.00  0.00    -0.129 S 
ATOM     27  C   UNL     1      -2.546   8.021  10.751  0.00  0.00    +0.090 C 
ENDBRANCH  23  26
ENDBRANCH  10  20
BRANCH  12  28
ATOM     28  C   UNL     1      -0.187   1.132   4.929  0.00  0.00    -0.015 A 
ATOM     29  C   UNL     1       0.979   0.389   4.947  0.00  0.00    +0.006 A 
ATOM     30  C   UNL     1       1.535  -0.058   3.763  0.00  0.00    +0.004 A 
ATOM     31  C   UNL     1       0.925   0.233   2.558  0.00  0.00    +0.045 A 
ATOM     32  C   UNL     1      -0.242   0.984   2.537  0.00  0.00    +0.120 A 
ATOM     33  C   UNL     1      -0.798   1.431   3.727  0.00  0.00    +0.051 A 
BRANCH  32  34
ATOM     34  O   UNL     1      -0.842   1.276   1.353  0.00  0.00    -0.495 OA
ATOM     35  C   UNL     1      -0.213   0.783   0.168  0.00  0.00    +0.277 C 
ENDBRANCH  32  34
ENDBRANCH  12  28
TORSDOF 4
