REMARK  Name = ZINC20475239
REMARK  6 active torsions:
REMARK  status: ('A' for Active; 'I' for Inactive)
REMARK    1  A    between atoms: C_1  and  C_2
REMARK    2  A    between atoms: C_2  and  N_3
REMARK    3  A    between atoms: N_6  and  C_9
REMARK    4  A    between atoms: C_9  and  C_11
REMARK    5  A    between atoms: C_9  and  C_13
REMARK    6  A    between atoms: C_11  and  N_12
REMARK                            x       y       z     vdW  Elec       q    Type
REMARK                         _______ _______ _______ _____ _____    ______ ____
ROOT
ATOM      1  C   UNL     1      -2.594   1.202   0.021  0.00  0.00    +0.076 C 
ENDROOT
BRANCH   1   5
ATOM      2  N   UNL     1      -4.383   3.680   2.936  0.00  0.00    +0.381 N 
ATOM      3  C   UNL     1      -4.200   2.258   3.259  0.00  0.00    -0.063 C 
ATOM      4  C   UNL     1      -3.136   1.661   2.336  0.00  0.00    +0.066 C 
ATOM      5  N   UNL     1      -3.555   1.830   0.937  0.00  0.00    -0.300 NA
ATOM      6  C   UNL     1      -3.737   3.252   0.614  0.00  0.00    +0.066 C 
ATOM      7  C   UNL     1      -4.801   3.850   1.538  0.00  0.00    -0.063 C 
ATOM      8  H   UNL     1      -3.415   4.185   3.065  0.00  0.00    -0.082 HD
BRANCH   2  10
ATOM      9  C   UNL     1      -5.697   5.707   3.341  0.00  0.00    -0.017 C 
ATOM     10  C   UNL     1      -5.344   4.309   3.853  0.00  0.00    -0.082 C 
ENDBRANCH   2  10
ENDBRANCH   1   5
BRANCH   1  11
ATOM     11  C   UNL     1      -2.778  -0.294   0.049  0.00  0.00    +0.006 A 
ATOM     12  C   UNL     1      -2.836  -1.167  -0.987  0.00  0.00    +0.028 A 
ATOM     13  C   UNL     1      -3.006  -2.513  -0.720  0.00  0.00    +0.025 A 
ATOM     14  C   UNL     1      -3.116  -2.919   0.569  0.00  0.00    +0.060 A 
ATOM     15  S   UNL     1      -2.978  -1.375   1.455  0.00  0.00    -0.099 S 
ATOM     16 BR   UNL     1      -3.085  -3.768  -2.132  0.00  0.00    -0.050 Br
ENDBRANCH   1  11
BRANCH   1  17
ATOM     17  C   UNL     1      -1.170   1.549   0.458  0.00  0.00    -0.062 C 
BRANCH  17  18
ATOM     18  N   UNL     1      -1.002   3.008   0.464  0.00  0.00    +0.379 N 
ATOM     19  H   UNL     1       0.023   3.258   0.778  0.00  0.00    -0.090 HD
ATOM     20  H   UNL     1      -1.720   3.457   1.166  0.00  0.00    -0.090 HD
ATOM     21  H   UNL     1      -1.181   3.402  -0.547  0.00  0.00    -0.090 HD
ENDBRANCH  17  18
ENDBRANCH   1  17
TORSDOF 5
