REMARK  Name = ZINC36308861
REMARK  14 active torsions:
REMARK  status: ('A' for Active; 'I' for Inactive)
REMARK    1  A    between atoms: C_1  and  C_2
REMARK    2  A    between atoms: C_2  and  N_3
REMARK    3  A    between atoms: N_3  and  C_4
REMARK    4  A    between atoms: N_3  and  C_14
REMARK    5  A    between atoms: C_4  and  C_5
REMARK    6  A    between atoms: C_5  and  C_7
REMARK    7  A    between atoms: C_5  and  O_13
REMARK    8  A    between atoms: C_14  and  C_15
REMARK    9  A    between atoms: C_25  and  C_27
REMARK   10  A    between atoms: C_27  and  O_28
REMARK   11  A    between atoms: O_28  and  C_29
REMARK   12  A    between atoms: C_32  and  C_35
REMARK   13  A    between atoms: C_35  and  C_36
REMARK   14  A    between atoms: C_35  and  C_37
REMARK                            x       y       z     vdW  Elec       q    Type
REMARK                         _______ _______ _______ _____ _____    ______ ____
ROOT
ATOM      1  C   UNL     1      -1.087  -2.186  -1.506  0.00  0.00    +0.200 C 
ATOM      2  O   UNL     1      -1.888  -1.279  -1.414  0.00  0.00    -0.278 OA
ATOM      3  N   UNL     1      -1.519  -3.451  -1.679  0.00  0.00    -0.292 N 
ATOM      4  C   UNL     1      -0.557  -4.558  -1.786  0.00  0.00    +0.113 C 
ATOM      5  C   UNL     1      -0.755  -5.487  -0.578  0.00  0.00    +0.061 C 
ATOM      6  C   UNL     1      -2.220  -5.678  -0.355  0.00  0.00    -0.004 A 
ATOM      7  C   UNL     1      -3.245  -4.933  -0.850  0.00  0.00    -0.014 A 
ATOM      8  C   UNL     1      -4.534  -5.318  -0.483  0.00  0.00    +0.013 A 
ATOM      9  C   UNL     1      -4.715  -6.390   0.322  0.00  0.00    +0.046 A 
ATOM     10  S   UNL     1      -3.035  -6.923   0.611  0.00  0.00    -0.101 S 
ATOM     11  C   UNL     1      -2.956  -3.743  -1.757  0.00  0.00    +0.144 C 
ENDROOT
BRANCH   1  12
ATOM     12  C   UNL     1       0.390  -1.897  -1.427  0.00  0.00    +0.019 C 
BRANCH  12  13
ATOM     13  N   UNL     1       0.598  -0.456  -1.239  0.00  0.00    +0.387 N 
ATOM     14  H   UNL     1       0.128   0.051  -1.974  0.00  0.00    -0.081 HD
BRANCH  13  16
ATOM     15  C   UNL     1       0.140   1.473   0.199  0.00  0.00    -0.017 C 
ATOM     16  C   UNL     1       0.053  -0.048   0.063  0.00  0.00    -0.081 C 
ENDBRANCH  13  16
BRANCH  13  17
ATOM     17  C   UNL     1       2.036  -0.159  -1.282  0.00  0.00    -0.042 C 
BRANCH  17  18
ATOM     18  C   UNL     1       2.573  -0.440  -2.687  0.00  0.00    +0.128 C 
BRANCH  18  19
ATOM     19  C   UNL     1       4.051  -0.145  -2.728  0.00  0.00    -0.021 A 
ATOM     20  C   UNL     1       4.492   1.158  -2.851  0.00  0.00    +0.006 A 
ATOM     21  C   UNL     1       5.848   1.428  -2.889  0.00  0.00    +0.000 A 
ATOM     22  C   UNL     1       6.761   0.394  -2.803  0.00  0.00    +0.000 A 
ATOM     23  C   UNL     1       6.319  -0.910  -2.678  0.00  0.00    +0.000 A 
ATOM     24  C   UNL     1       4.964  -1.179  -2.636  0.00  0.00    +0.006 A 
ENDBRANCH  18  19
BRANCH  18  25
ATOM     25  O   UNL     1       1.895   0.392  -3.631  0.00  0.00    -0.389 OA
ATOM     26  H   UNL     1       2.052   1.338  -3.506  0.00  0.00    +0.210 HD
ENDBRANCH  18  25
ENDBRANCH  17  18
ENDBRANCH  13  17
ENDBRANCH  12  13
ENDBRANCH   1  12
BRANCH  11  27
ATOM     27  C   UNL     1      -3.337  -4.091  -3.197  0.00  0.00    +0.256 C 
BRANCH  27  28
ATOM     28  O   UNL     1      -2.686  -5.304  -3.582  0.00  0.00    -0.490 OA
BRANCH  28  29
ATOM     29  C   UNL     1      -2.920  -5.757  -4.842  0.00  0.00    +0.121 A 
ATOM     30  C   UNL     1      -3.753  -5.045  -5.693  0.00  0.00    +0.046 A 
ATOM     31  C   UNL     1      -3.988  -5.507  -6.973  0.00  0.00    +0.007 A 
ATOM     32  C   UNL     1      -3.394  -6.678  -7.407  0.00  0.00    -0.045 A 
ATOM     33  C   UNL     1      -2.564  -7.389  -6.561  0.00  0.00    +0.007 A 
ATOM     34  C   UNL     1      -2.320  -6.928  -5.282  0.00  0.00    +0.046 A 
BRANCH  32  35
ATOM     35  C   UNL     1      -3.653  -7.179  -8.804  0.00  0.00    +0.013 C 
ATOM     36  C   UNL     1      -2.330  -7.264  -9.569  0.00  0.00    +0.012 C 
ATOM     37  C   UNL     1      -4.293  -8.568  -8.738  0.00  0.00    +0.012 C 
ENDBRANCH  32  35
ENDBRANCH  28  29
ENDBRANCH  27  28
ENDBRANCH  11  27
TORSDOF 11
