REMARK  Name = ZINC19236614
REMARK  8 active torsions:
REMARK  status: ('A' for Active; 'I' for Inactive)
REMARK    1  A    between atoms: C_1  and  C_2
REMARK    2  A    between atoms: C_11  and  C_12
REMARK    3  A    between atoms: C_12  and  C_13
REMARK    4  A    between atoms: C_13  and  C_15
REMARK    5  A    between atoms: C_13  and  N_16
REMARK    6  A    between atoms: C_17  and  C_19
REMARK    7  A    between atoms: C_19  and  N_20
REMARK    8  A    between atoms: C_28  and  C_30
REMARK                            x       y       z     vdW  Elec       q    Type
REMARK                         _______ _______ _______ _____ _____    ______ ____
ROOT
ATOM      1  N   UNL     1      -3.409   0.315   6.847  0.00  0.00    -0.311 N 
ATOM      2  C   UNL     1      -2.969   0.347   5.573  0.00  0.00    +0.231 C 
ATOM      3  O   UNL     1      -1.778   0.378   5.343  0.00  0.00    -0.274 OA
ATOM      4  H   UNL     1      -4.488   0.287   7.055  0.00  0.00    +0.149 HD
ENDROOT
BRANCH   1   5
ATOM      5  C   UNL     1      -2.449   0.319   7.953  0.00  0.00    +0.074 C 
ATOM      6  C   UNL     1      -2.053   1.760   8.280  0.00  0.00    +0.028 C 
BRANCH   5   7
ATOM      7  C   UNL     1      -3.087  -0.327   9.185  0.00  0.00    +0.059 C 
BRANCH   7  18
ATOM      8  C   UNL     1      -3.219  -6.535   8.312  0.00  0.00    +0.046 C 
ATOM      9  C   UNL     1      -2.482  -5.283   8.712  0.00  0.00    -0.027 A 
ATOM     10  C   UNL     1      -1.166  -5.354   9.116  0.00  0.00    +0.005 A 
ATOM     11  C   UNL     1      -0.476  -4.208   9.485  0.00  0.00    +0.001 A 
ATOM     12  C   UNL     1      -1.091  -2.988   9.456  0.00  0.00    +0.010 A 
ATOM     13  C   UNL     1      -2.423  -2.893   9.050  0.00  0.00    +0.003 A 
ATOM     14  C   UNL     1      -3.127  -4.051   8.673  0.00  0.00    +0.050 A 
ATOM     15  N   UNL     1      -4.400  -3.658   8.326  0.00  0.00    -0.360 N 
ATOM     16  H   UNL     1      -5.134  -4.405   7.991  0.00  0.00    +0.165 HD
ATOM     17  C   UNL     1      -4.525  -2.304   8.474  0.00  0.00    +0.087 A 
ATOM     18  C   UNL     1      -3.365  -1.781   8.903  0.00  0.00    -0.021 A 
ENDBRANCH   7  18
ENDBRANCH   5   7
ENDBRANCH   1   5
BRANCH   2  19
ATOM     19  C   UNL     1      -3.956   0.343   4.435  0.00  0.00    +0.213 C 
BRANCH  19  20
ATOM     20  N   UNL     1      -3.233   0.381   3.161  0.00  0.00    -0.215 N 
ATOM     21  C   UNL     1      -2.885   1.517   2.521  0.00  0.00    +0.247 C 
ATOM     22  O   UNL     1      -3.102   2.655   2.875  0.00  0.00    -0.273 OA
ATOM     23  C   UNL     1      -2.167   1.069   1.268  0.00  0.00    +0.115 C 
ATOM     24  C   UNL     1      -2.911   1.550   0.027  0.00  0.00    +0.035 C 
ATOM     25  C   UNL     1      -2.186   1.056  -1.227  0.00  0.00    +0.003 C 
ATOM     26  C   UNL     1      -0.753   1.593  -1.231  0.00  0.00    +0.000 C 
ATOM     27  C   UNL     1      -0.013   1.086   0.008  0.00  0.00    +0.006 C 
ATOM     28  C   UNL     1      -0.730   1.580   1.267  0.00  0.00    +0.018 C 
ATOM     29  C   UNL     1      -0.002   1.056   2.507  0.00  0.00    +0.010 C 
ATOM     30  N   UNL     1      -2.191  -0.397   1.347  0.00  0.00    -0.285 N 
ATOM     31  C   UNL     1      -2.836  -0.706   2.489  0.00  0.00    +0.310 C 
ATOM     32  O   UNL     1      -3.035  -1.844   2.866  0.00  0.00    -0.252 OA
ATOM     33  H   UNL     1      -1.730  -0.998   0.550  0.00  0.00    +0.151 HD
ENDBRANCH  19  20
ENDBRANCH   2  19
TORSDOF 5
