REMARK  Name = ZINC20701561
REMARK  5 active torsions:
REMARK  status: ('A' for Active; 'I' for Inactive)
REMARK    1  A    between atoms: C_5  and  C_7
REMARK    2  A    between atoms: N_9  and  C_10
REMARK    3  A    between atoms: C_10  and  C_11
REMARK    4  A    between atoms: C_18  and  C_27
REMARK    5  A    between atoms: C_32  and  O_33
REMARK                            x       y       z     vdW  Elec       q    Type
REMARK                         _______ _______ _______ _____ _____    ______ ____
ROOT
ATOM      1  C   UNL     1       5.614   1.880   1.394  0.00  0.00    +0.001 A 
ATOM      2  C   UNL     1       4.360   1.930   0.807  0.00  0.00    +0.006 A 
ATOM      3  C   UNL     1       3.616   0.784   0.632  0.00  0.00    -0.019 A 
ATOM      4  C   UNL     1       4.107  -0.454   1.056  0.00  0.00    +0.044 A 
ATOM      5  C   UNL     1       5.387  -0.497   1.646  0.00  0.00    +0.058 A 
ATOM      6  C   UNL     1       6.129   0.672   1.809  0.00  0.00    +0.015 A 
ATOM      7  N   UNL     1       3.407  -1.645   0.958  0.00  0.00    -0.336 N 
ATOM      8  C   UNL     1       2.096  -1.599   0.255  0.00  0.00    +0.109 C 
ATOM      9  C   UNL     1       1.433  -0.304   0.677  0.00  0.00    +0.029 C 
ATOM     10  C   UNL     1       2.282   0.813  -0.007  0.00  0.00    +0.049 C 
ATOM     11  C   UNL     1       1.397   2.001   0.070  0.00  0.00    -0.023 C 
ATOM     12  C   UNL     1       0.134   1.587   0.076  0.00  0.00    -0.030 C 
ATOM     13  C   UNL     1       0.087   0.058   0.041  0.00  0.00    +0.033 C 
ATOM     14  H   UNL     1       3.777  -2.595   1.371  0.00  0.00    +0.147 HD
ENDROOT
BRANCH   8  15
ATOM     15  C   UNL     1       2.290  -1.612  -1.240  0.00  0.00    +0.017 A 
ATOM     16  C   UNL     1       3.477  -1.165  -1.787  0.00  0.00    +0.029 A 
ATOM     17  C   UNL     1       3.659  -1.183  -3.158  0.00  0.00    +0.043 A 
ATOM     18  C   UNL     1       2.647  -1.637  -3.986  0.00  0.00    +0.043 A 
ATOM     19  C   UNL     1       1.456  -2.080  -3.443  0.00  0.00    +0.084 A 
ATOM     20  C   UNL     1       1.275  -2.068  -2.067  0.00  0.00    +0.140 A 
ATOM     21 CL   UNL     1       0.187  -2.650  -4.482  0.00  0.00    -0.080 Cl
ATOM     22 CL   UNL     1       5.155  -0.626  -3.842  0.00  0.00    -0.083 Cl
BRANCH  20  23
ATOM     23  O   UNL     1       0.104  -2.503  -1.531  0.00  0.00    -0.505 OA
ATOM     24  H   UNL     1      -0.701  -2.865  -2.188  0.00  0.00    +0.292 HD
ENDBRANCH  20  23
ENDBRANCH   8  15
BRANCH   5  25
ATOM     25  C   UNL     1       5.945  -1.786   2.093  0.00  0.00    +0.246 C 
ATOM     26  O   UNL     1       5.301  -2.808   1.953  0.00  0.00    -0.270 OA
ATOM     27  N   UNL     1       7.168  -1.832   2.657  0.00  0.00    -0.309 N 
ATOM     28  H   UNL     1       7.751  -0.908   2.784  0.00  0.00    +0.149 HD
BRANCH  27  29
ATOM     29  C   UNL     1       7.722  -3.113   3.101  0.00  0.00    +0.136 C 
BRANCH  29  30
ATOM     30  C   UNL     1       9.112  -2.888   3.700  0.00  0.00    +0.135 C 
ATOM     31  C   UNL     1       9.768  -4.239   4.061  0.00  0.00    +0.035 C 
ATOM     32  C   UNL     1      10.531  -3.947   5.372  0.00  0.00    +0.031 C 
ATOM     33  C   UNL     1      10.247  -2.454   5.648  0.00  0.00    +0.160 C 
ATOM     34  O   UNL     1       9.010  -2.180   4.955  0.00  0.00    -0.375 OA
ENDBRANCH  29  30
ENDBRANCH  27  29
ENDBRANCH   5  25
TORSDOF 5
