REMARK  Name = ZINC13039953
REMARK  9 active torsions:
REMARK  status: ('A' for Active; 'I' for Inactive)
REMARK    1  A    between atoms: C_1  and  C_2
REMARK    2  A    between atoms: C_2  and  C_3
REMARK    3  A    between atoms: C_3  and  C_5
REMARK    4  A    between atoms: C_3  and  C_6
REMARK    5  A    between atoms: C_6  and  C_7
REMARK    6  A    between atoms: C_8  and  C_34
REMARK    7  A    between atoms: C_15  and  C_17
REMARK    8  A    between atoms: C_17  and  N_18
REMARK    9  A    between atoms: C_27  and  C_30
REMARK                            x       y       z     vdW  Elec       q    Type
REMARK                         _______ _______ _______ _____ _____    ______ ____
ROOT
ATOM      1  C   UNL     1       7.625  -2.972  -2.629  0.00  0.00    -0.003 C 
ENDROOT
BRANCH   1   2
ATOM      2  N   UNL     1       8.086  -2.691  -1.263  0.00  0.00    +0.386 N 
ATOM      3  C   UNL     1       7.671  -3.783  -0.374  0.00  0.00    -0.059 C 
ATOM      4  C   UNL     1       8.051  -3.437   1.070  0.00  0.00    +0.088 C 
ATOM      5  N   UNL     1       9.490  -3.131   1.113  0.00  0.00    -0.319 N 
ATOM      6  C   UNL     1      10.023  -2.164   0.142  0.00  0.00    +0.088 C 
ATOM      7  C   UNL     1       9.550  -2.570  -1.258  0.00  0.00    -0.059 C 
ATOM      8  C   UNL     1      10.322  -3.741   2.045  0.00  0.00    +0.121 A 
ATOM      9  C   UNL     1       9.767  -4.479   3.086  0.00  0.00    +0.044 A 
ATOM     10  C   UNL     1      10.607  -5.080   4.006  0.00  0.00    +0.017 A 
ATOM     11  C   UNL     1      11.978  -4.922   3.854  0.00  0.00    +0.073 A 
ATOM     12  C   UNL     1      12.460  -4.175   2.798  0.00  0.00    +0.125 A 
ATOM     13  N   UNL     1      11.635  -3.618   1.931  0.00  0.00    -0.240 NA
ATOM     14  H   UNL     1       7.678  -1.825  -0.943  0.00  0.00    -0.081 HD
BRANCH  11  15
ATOM     15  C   UNL     1      12.931  -5.558   4.833  0.00  0.00    +0.419 C 
ATOM     16  F   UNL     1      13.268  -6.841   4.389  0.00  0.00    -0.166 F 
ATOM     17  F   UNL     1      14.089  -4.779   4.931  0.00  0.00    -0.166 F 
ATOM     18  F   UNL     1      12.320  -5.645   6.089  0.00  0.00    -0.166 F 
ENDBRANCH  11  15
ENDBRANCH   1   2
BRANCH   1  27
ATOM     19  C   UNL     1       1.919  -3.026  -2.960  0.00  0.00    -0.023 A 
ATOM     20  C   UNL     1       1.448  -3.274  -4.192  0.00  0.00    -0.007 A 
ATOM     21  S   UNL     1       2.929  -3.481  -5.163  0.00  0.00    -0.075 S 
ATOM     22  C   UNL     1       4.131  -3.228  -3.886  0.00  0.00    +0.092 A 
ATOM     23  C   UNL     1       3.354  -2.985  -2.746  0.00  0.00    +0.075 A 
ATOM     24  C   UNL     1       4.121  -2.731  -1.506  0.00  0.00    +0.282 A 
ATOM     25  O   UNL     1       3.543  -2.512  -0.454  0.00  0.00    -0.265 OA
ATOM     26  N   UNL     1       5.462  -2.744  -1.557  0.00  0.00    -0.197 NA
ATOM     27  C   UNL     1       6.118  -2.974  -2.660  0.00  0.00    +0.095 A 
ATOM     28  N   UNL     1       5.487  -3.225  -3.825  0.00  0.00    -0.339 N 
ATOM     29  C   UNL     1       0.013  -3.358  -4.645  0.00  0.00    +0.052 C 
ATOM     30  H   UNL     1       6.006  -3.392  -4.627  0.00  0.00    +0.167 HD
BRANCH  19  31
ATOM     31  C   UNL     1       0.970  -2.787  -1.814  0.00  0.00    +0.040 C 
BRANCH  31  32
ATOM     32  C   UNL     1       0.652  -1.293  -1.718  0.00  0.00    -0.010 C 
ATOM     33  C   UNL     1      -0.107  -0.852  -2.971  0.00  0.00    +0.008 C 
BRANCH  32  35
ATOM     34  C   UNL     1      -0.424   0.472  -0.316  0.00  0.00    +0.004 C 
ATOM     35  C   UNL     1      -0.210  -1.034  -0.482  0.00  0.00    +0.000 C 
ENDBRANCH  32  35
ENDBRANCH  31  32
ENDBRANCH  19  31
ENDBRANCH   1  27
TORSDOF 6
