REMARK  Name = ZINC09123894
REMARK  9 active torsions:
REMARK  status: ('A' for Active; 'I' for Inactive)
REMARK    1  A    between atoms: C_1  and  O_2
REMARK    2  A    between atoms: O_2  and  C_3
REMARK    3  A    between atoms: C_6  and  C_11
REMARK    4  A    between atoms: C_8  and  O_9
REMARK    5  A    between atoms: O_9  and  C_10
REMARK    6  A    between atoms: N_21  and  C_24
REMARK    7  A    between atoms: C_24  and  C_25
REMARK    8  A    between atoms: C_25  and  C_26
REMARK    9  A    between atoms: N_33  and  C_34
REMARK                            x       y       z     vdW  Elec       q    Type
REMARK                         _______ _______ _______ _____ _____    ______ ____
ROOT
ATOM      1  C   UNL     1      -4.987  -2.627   0.035  0.00  0.00    +0.130 C 
ATOM      2  C   UNL     1      -5.589  -2.618   1.452  0.00  0.00    +0.082 C 
ATOM      3  C   UNL     1      -6.884  -1.851   1.303  0.00  0.00    +0.041 C 
ATOM      4  C   UNL     1      -7.784  -1.582   2.323  0.00  0.00    +0.119 C 
ATOM      5  C   UNL     1      -7.542  -2.034   3.700  0.00  0.00    +0.278 C 
ATOM      6  O   UNL     1      -6.428  -2.729   4.012  0.00  0.00    -0.268 OA
ATOM      7  N   UNL     1      -8.440  -1.744   4.626  0.00  0.00    -0.123 NA
ATOM      8  C   UNL     1      -9.546  -1.060   4.348  0.00  0.00    +0.335 C 
ATOM      9  O   UNL     1     -10.327  -0.832   5.255  0.00  0.00    -0.250 OA
ATOM     10  N   UNL     1      -9.849  -0.608   3.122  0.00  0.00    -0.220 N 
ATOM     11  C   UNL     1      -9.023  -0.823   2.076  0.00  0.00    +0.261 C 
ATOM     12  O   UNL     1      -9.295  -0.409   0.964  0.00  0.00    -0.269 OA
ATOM     13  N   UNL     1      -7.019  -1.476   0.025  0.00  0.00    -0.267 N 
ATOM     14  N   UNL     1      -5.958  -1.888  -0.783  0.00  0.00    -0.246 N 
ATOM     15  H   UNL     1      -7.778  -0.970  -0.306  0.00  0.00    +0.170 HD
ENDROOT
BRANCH   1  19
ATOM     16  C   UNL     1      -1.201  -0.638   0.010  0.00  0.00    +0.162 A 
ATOM     17  C   UNL     1      -2.374   0.099   0.019  0.00  0.00    +0.050 A 
ATOM     18  C   UNL     1      -3.596  -0.546   0.027  0.00  0.00    +0.009 A 
ATOM     19  C   UNL     1      -3.652  -1.928   0.026  0.00  0.00    -0.021 A 
ATOM     20  C   UNL     1      -2.485  -2.669   0.017  0.00  0.00    +0.055 A 
ATOM     21  C   UNL     1      -1.257  -2.028   0.003  0.00  0.00    +0.162 A 
BRANCH  16  23
ATOM     22  C   UNL     1      -0.017   1.425   0.010  0.00  0.00    +0.277 C 
ATOM     23  O   UNL     1       0.002  -0.004   0.002  0.00  0.00    -0.491 OA
ENDBRANCH  16  23
BRANCH  21  24
ATOM     24  O   UNL     1      -0.108  -2.756  -0.012  0.00  0.00    -0.491 OA
ATOM     25  C   UNL     1      -0.242  -4.179  -0.018  0.00  0.00    +0.277 C 
ENDBRANCH  21  24
ENDBRANCH   1  19
BRANCH  14  26
ATOM     26  C   UNL     1      -5.837  -1.638  -2.152  0.00  0.00    +0.048 A 
ATOM     27  C   UNL     1      -4.732  -2.106  -2.850  0.00  0.00    +0.025 A 
ATOM     28  C   UNL     1      -4.615  -1.857  -4.204  0.00  0.00    +0.002 A 
ATOM     29  C   UNL     1      -5.598  -1.142  -4.864  0.00  0.00    +0.000 A 
ATOM     30  C   UNL     1      -6.700  -0.674  -4.172  0.00  0.00    +0.002 A 
ATOM     31  C   UNL     1      -6.825  -0.925  -2.820  0.00  0.00    +0.025 A 
ENDBRANCH  14  26
BRANCH  10  32
ATOM     32  C   UNL     1     -11.094   0.137   2.916  0.00  0.00    +0.123 C 
BRANCH  32  33
ATOM     33  C   UNL     1     -10.836   1.630   3.128  0.00  0.00    +0.054 C 
BRANCH  33  34
ATOM     34  C   UNL     1     -12.117   2.396   2.916  0.00  0.00    -0.046 A 
ATOM     35  C   UNL     1     -12.443   2.862   1.657  0.00  0.00    +0.004 A 
ATOM     36  C   UNL     1     -13.617   3.564   1.462  0.00  0.00    +0.000 A 
ATOM     37  C   UNL     1     -14.466   3.800   2.527  0.00  0.00    +0.000 A 
ATOM     38  C   UNL     1     -14.140   3.333   3.787  0.00  0.00    +0.000 A 
ATOM     39  C   UNL     1     -12.968   2.627   3.981  0.00  0.00    +0.004 A 
ENDBRANCH  33  34
ENDBRANCH  32  33
ENDBRANCH  10  32
TORSDOF 7
