REMARK  Name = ZINC43759643
REMARK  10 active torsions:
REMARK  status: ('A' for Active; 'I' for Inactive)
REMARK    1  A    between atoms: C_1  and  C_2
REMARK    2  A    between atoms: C_2  and  C_4
REMARK    3  A    between atoms: C_2  and  C_10
REMARK    4  A    between atoms: C_4  and  C_5
REMARK    5  A    between atoms: C_5  and  C_6
REMARK    6  A    between atoms: C_6  and  O_8
REMARK    7  A    between atoms: O_8  and  C_9
REMARK    8  A    between atoms: C_16  and  C_36
REMARK    9  A    between atoms: C_19  and  O_35
REMARK   10  A    between atoms: C_29  and  C_34
REMARK                            x       y       z     vdW  Elec       q    Type
REMARK                         _______ _______ _______ _____ _____    ______ ____
ROOT
ATOM      1  C   UNL     1      -1.389  -0.802  -0.060  0.00  0.00    +0.005 C 
ATOM      2  C   UNL     1      -2.200  -0.400   1.202  0.00  0.00    +0.005 C 
ATOM      3  C   UNL     1      -2.141  -1.619   2.169  0.00  0.00    +0.005 C 
ATOM      4  C   UNL     1      -0.928  -2.394   1.638  0.00  0.00    +0.006 C 
ATOM      5  C   UNL     1      -1.161  -2.312   0.113  0.00  0.00    +0.035 C 
ATOM      6  C   UNL     1       0.003  -2.907  -0.601  0.00  0.00    +0.168 C 
ATOM      7  O   UNL     1       0.404  -2.481  -1.672  0.00  0.00    -0.294 OA
ATOM      8  C   UNL     1       0.678  -4.116   0.055  0.00  0.00    +0.185 C 
ATOM      9  C   UNL     1      -0.293  -4.751   1.036  0.00  0.00    +0.035 C 
ATOM     10  C   UNL     1      -0.694  -3.776   2.140  0.00  0.00    -0.000 C 
ATOM     11  C   UNL     1      -1.867  -4.365   2.922  0.00  0.00    +0.004 C 
ATOM     12  C   UNL     1      -1.384  -5.667   3.573  0.00  0.00    +0.004 C 
ATOM     13  C   UNL     1      -0.923  -6.653   2.500  0.00  0.00    -0.005 C 
ATOM     14  C   UNL     1       0.208  -6.059   1.652  0.00  0.00    -0.023 C 
ATOM     15  C   UNL     1       1.445  -5.830   2.508  0.00  0.00    +0.007 C 
ATOM     16  C   UNL     1       1.887  -7.123   3.194  0.00  0.00    +0.001 C 
ATOM     17  C   UNL     1       0.752  -7.688   4.045  0.00  0.00    +0.000 C 
ATOM     18  C   UNL     1      -0.472  -7.950   3.169  0.00  0.00    +0.004 C 
ATOM     19  C   UNL     1       0.537  -7.038   0.516  0.00  0.00    +0.012 C 
ATOM     20  C   UNL     1      -2.460  -3.013  -0.306  0.00  0.00    +0.020 C 
ENDROOT
BRANCH   1  22
ATOM     21  C   UNL     1       0.604  -0.110   1.271  0.00  0.00    +0.008 C 
ATOM     22  C   UNL     1      -0.067  -0.043  -0.102  0.00  0.00    -0.010 C 
BRANCH  22  23
ATOM     23  C   UNL     1      -0.329   1.418  -0.472  0.00  0.00    +0.015 C 
BRANCH  23  24
ATOM     24  C   UNL     1       1.005   2.141  -0.670  0.00  0.00    +0.121 C 
BRANCH  24  25
ATOM     25  C   UNL     1       0.746   3.580  -1.034  0.00  0.00    +0.307 C 
ATOM     26  O   UNL     1      -0.388   3.986  -1.126  0.00  0.00    -0.251 OA
BRANCH  25  27
ATOM     27  O   UNL     1       1.776   4.412  -1.256  0.00  0.00    -0.468 OA
ATOM     28  C   UNL     1       1.458   5.763  -1.597  0.00  0.00    +0.280 C 
ENDBRANCH  25  27
ENDBRANCH  24  25
ENDBRANCH  23  24
ENDBRANCH  22  23
ENDBRANCH   1  22
BRANCH   8  29
ATOM     29  O   UNL     1       1.859  -3.667   0.731  0.00  0.00    -0.384 OA
ATOM     30  H   UNL     1       2.509  -3.247   0.150  0.00  0.00    +0.210 HD
ENDBRANCH   8  29
TORSDOF 6
