REMARK  Name = ZINC40386299
REMARK  9 active torsions:
REMARK  status: ('A' for Active; 'I' for Inactive)
REMARK    1  A    between atoms: C_1  and  C_2
REMARK    2  A    between atoms: C_4  and  C_8
REMARK    3  A    between atoms: N_6  and  C_7
REMARK    4  A    between atoms: C_9  and  C_36
REMARK    5  A    between atoms: C_15  and  C_18
REMARK    6  A    between atoms: C_18  and  C_19
REMARK    7  A    between atoms: N_24  and  C_27
REMARK    8  A    between atoms: C_27  and  C_28
REMARK    9  A    between atoms: C_29  and  C_30
REMARK                            x       y       z     vdW  Elec       q    Type
REMARK                         _______ _______ _______ _____ _____    ______ ____
ROOT
ATOM      1  C   UNL     1       0.041  -3.331  -1.537  0.00  0.00    +0.088 A 
ATOM      2  C   UNL     1       0.055  -4.605  -0.980  0.00  0.00    +0.055 A 
ATOM      3  N   UNL     1       0.065  -5.656  -1.792  0.00  0.00    -0.227 NA
ATOM      4  C   UNL     1       0.063  -5.511  -3.094  0.00  0.00    +0.180 A 
ATOM      5  N   UNL     1       0.050  -4.299  -3.732  0.00  0.00    -0.258 N 
ATOM      6  C   UNL     1       0.033  -3.188  -2.935  0.00  0.00    +0.268 A 
ATOM      7  O   UNL     1       0.016  -2.076  -3.437  0.00  0.00    -0.266 OA
ATOM      8  C   UNL     1       0.050  -4.322  -5.106  0.00  0.00    +0.044 A 
ATOM      9  C   UNL     1       0.062  -5.474  -5.775  0.00  0.00    +0.071 A 
ATOM     10  S   UNL     1       0.075  -6.668  -4.447  0.00  0.00    -0.057 S 
ATOM     11  C   UNL     1       0.058  -4.789   0.516  0.00  0.00    +0.066 C 
ENDROOT
BRANCH   1  15
ATOM     12  C   UNL     1      -0.018   1.503   0.010  0.00  0.00    +0.065 C 
ATOM     13  C   UNL     1       0.002  -0.004   0.002  0.00  0.00    +0.036 A 
ATOM     14  C   UNL     1       0.008  -0.792  -1.095  0.00  0.00    +0.053 A 
ATOM     15  C   UNL     1       0.028  -2.133  -0.663  0.00  0.00    +0.100 A 
ATOM     16  N   UNL     1       0.034  -2.135   0.653  0.00  0.00    -0.171 NA
ATOM     17  N   UNL     1       0.023  -0.804   1.090  0.00  0.00    -0.271 N 
ATOM     18  C   UNL     1       0.031  -0.357   2.485  0.00  0.00    +0.172 C 
ENDBRANCH   1  15
BRANCH   8  19
ATOM     19  C   UNL     1       0.036  -3.022  -5.869  0.00  0.00    +0.150 C 
BRANCH  19  20
ATOM     20  C   UNL     1      -1.385  -2.542  -6.017  0.00  0.00    +0.221 C 
ATOM     21  O   UNL     1      -2.296  -3.190  -5.548  0.00  0.00    -0.275 OA
ATOM     22  N   UNL     1      -1.643  -1.391  -6.669  0.00  0.00    -0.299 N 
ATOM     23  C   UNL     1      -0.553  -0.592  -7.250  0.00  0.00    +0.123 C 
ATOM     24  C   UNL     1      -0.897  -0.290  -8.713  0.00  0.00    +0.103 C 
ATOM     25  N   UNL     1      -2.227   0.330  -8.781  0.00  0.00    -0.296 NA
ATOM     26  C   UNL     1      -3.268  -0.586  -8.298  0.00  0.00    +0.103 C 
ATOM     27  C   UNL     1      -3.022  -0.904  -6.824  0.00  0.00    +0.123 C 
BRANCH  25  28
ATOM     28  C   UNL     1      -2.523   0.792 -10.144  0.00  0.00    +0.111 C 
BRANCH  28  29
ATOM     29  C   UNL     1      -3.773   1.633 -10.130  0.00  0.00    -0.011 C 
ATOM     30  C   UNL     1      -3.750   2.862 -10.626  0.00  0.00    +0.005 C 
BRANCH  30  31
ATOM     31  C   UNL     1      -4.976   3.688 -10.611  0.00  0.00    -0.025 A 
ATOM     32  C   UNL     1      -6.158   3.178 -10.071  0.00  0.00    +0.008 A 
ATOM     33  C   UNL     1      -7.299   3.954 -10.061  0.00  0.00    +0.001 A 
ATOM     34  C   UNL     1      -7.274   5.234 -10.585  0.00  0.00    +0.000 A 
ATOM     35  C   UNL     1      -6.106   5.745 -11.122  0.00  0.00    +0.001 A 
ATOM     36  C   UNL     1      -4.956   4.982 -11.133  0.00  0.00    +0.008 A 
ENDBRANCH  30  31
ENDBRANCH  28  29
ENDBRANCH  25  28
ENDBRANCH  19  20
ENDBRANCH   8  19
TORSDOF 6
