REMARK  Name = ZINC20682349
REMARK  7 active torsions:
REMARK  status: ('A' for Active; 'I' for Inactive)
REMARK    1  A    between atoms: C_1  and  C_2
REMARK    2  A    between atoms: C_2  and  N_3
REMARK    3  A    between atoms: N_3  and  C_4
REMARK    4  A    between atoms: C_10  and  C_12
REMARK    5  A    between atoms: C_19  and  C_28
REMARK    6  A    between atoms: C_31  and  O_35
REMARK    7  A    between atoms: C_33  and  O_34
REMARK                            x       y       z     vdW  Elec       q    Type
REMARK                         _______ _______ _______ _____ _____    ______ ____
ROOT
ATOM      1  C   UNL     1       4.406   2.608  -4.587  0.00  0.00    +0.058 A 
ATOM      2  C   UNL     1       4.860   1.446  -5.210  0.00  0.00    +0.015 A 
ATOM      3  C   UNL     1       5.516   0.482  -4.477  0.00  0.00    +0.001 A 
ATOM      4  C   UNL     1       5.732   0.673  -3.122  0.00  0.00    +0.006 A 
ATOM      5  C   UNL     1       5.298   1.819  -2.492  0.00  0.00    -0.019 A 
ATOM      6  C   UNL     1       4.616   2.808  -3.207  0.00  0.00    +0.044 A 
ATOM      7  N   UNL     1       4.126   3.976  -2.647  0.00  0.00    -0.336 N 
ATOM      8  C   UNL     1       4.442   4.218  -1.230  0.00  0.00    +0.108 C 
ATOM      9  C   UNL     1       4.340   2.885  -0.519  0.00  0.00    +0.029 C 
ATOM     10  C   UNL     1       5.552   2.059  -1.055  0.00  0.00    +0.049 C 
ATOM     11  C   UNL     1       5.648   0.959  -0.064  0.00  0.00    -0.023 C 
ATOM     12  C   UNL     1       5.194   1.401   1.104  0.00  0.00    -0.030 C 
ATOM     13  C   UNL     1       4.716   2.849   0.963  0.00  0.00    +0.033 C 
ATOM     14  H   UNL     1       3.527   4.707  -3.210  0.00  0.00    +0.147 HD
ENDROOT
BRANCH   8  15
ATOM     15  C   UNL     1       5.841   4.763  -1.101  0.00  0.00    +0.015 A 
ATOM     16  C   UNL     1       6.823   4.363  -1.988  0.00  0.00    +0.012 A 
ATOM     17  C   UNL     1       8.106   4.861  -1.873  0.00  0.00    +0.046 A 
ATOM     18  C   UNL     1       8.413   5.764  -0.865  0.00  0.00    +0.120 A 
ATOM     19  C   UNL     1       7.429   6.171   0.023  0.00  0.00    +0.091 A 
ATOM     20  C   UNL     1       6.143   5.666  -0.092  0.00  0.00    +0.125 A 
BRANCH  20  21
ATOM     21  O   UNL     1       5.177   6.060   0.779  0.00  0.00    -0.506 OA
ATOM     22  H   UNL     1       5.417   6.776   1.579  0.00  0.00    +0.292 HD
ENDBRANCH  20  21
BRANCH  18  23
ATOM     23  O   UNL     1       9.676   6.253  -0.751  0.00  0.00    -0.507 OA
ATOM     24  H   UNL     1       9.918   6.970   0.048  0.00  0.00    +0.292 HD
ENDBRANCH  18  23
ENDBRANCH   8  15
BRANCH   1  26
ATOM     25  N   UNL     1       4.010   3.813  -6.677  0.00  0.00    -0.268 N 
ATOM     26  C   UNL     1       3.702   3.635  -5.377  0.00  0.00    +0.253 C 
ATOM     27  O   UNL     1       2.844   4.321  -4.856  0.00  0.00    -0.270 OA
BRANCH  25  28
ATOM     28  C   UNL     1       3.294   4.737  -7.445  0.00  0.00    +0.037 A 
ATOM     29  C   UNL     1       3.701   5.030  -8.740  0.00  0.00    +0.023 A 
ATOM     30  C   UNL     1       2.988   5.939  -9.497  0.00  0.00    +0.002 A 
ATOM     31  C   UNL     1       1.877   6.564  -8.964  0.00  0.00    +0.000 A 
ATOM     32  C   UNL     1       1.471   6.279  -7.673  0.00  0.00    +0.002 A 
ATOM     33  C   UNL     1       2.177   5.367  -6.912  0.00  0.00    +0.023 A 
ENDBRANCH  25  28
BRANCH  25  35
ATOM     34  C   UNL     1       4.511   2.050  -8.297  0.00  0.00    +0.025 C 
ATOM     35  C   UNL     1       5.095   3.039  -7.286  0.00  0.00    +0.110 C 
ENDBRANCH  25  35
ENDBRANCH   1  26
TORSDOF 6
