REMARK  Name = ZINC35991019
REMARK  15 active torsions:
REMARK  status: ('A' for Active; 'I' for Inactive)
REMARK    1  A    between atoms: C_1  and  C_2
REMARK    2  A    between atoms: C_2  and  N_3
REMARK    3  A    between atoms: C_4  and  C_26
REMARK    4  A    between atoms: C_5  and  C_21
REMARK    5  A    between atoms: C_6  and  C_11
REMARK    6  A    between atoms: C_13  and  O_19
REMARK    7  A    between atoms: C_15  and  O_17
REMARK    8  A    between atoms: O_17  and  C_18
REMARK    9  A    between atoms: O_19  and  C_20
REMARK   10  A    between atoms: C_21  and  O_23
REMARK   11  A    between atoms: O_23  and  C_24
REMARK   12  A    between atoms: C_24  and  C_25
REMARK   13  A    between atoms: C_26  and  N_27
REMARK   14  A    between atoms: N_27  and  C_28
REMARK   15  A    between atoms: N_27  and  C_29
REMARK                            x       y       z     vdW  Elec       q    Type
REMARK                         _______ _______ _______ _____ _____    ______ ____
ROOT
ATOM      1  N   UNL     1      -1.300  -0.522   0.095  0.00  0.00    -0.261 N 
ATOM      2  C   UNL     1      -1.711  -0.976   1.316  0.00  0.00    +0.010 C 
ATOM      3  C   UNL     1      -2.852  -1.686   1.447  0.00  0.00    +0.076 C 
ATOM      4  C   UNL     1      -3.660  -1.961   0.195  0.00  0.00    +0.144 C 
ATOM      5  N   UNL     1      -3.130  -1.428  -1.071  0.00  0.00    -0.288 N 
ATOM      6  C   UNL     1      -1.976  -0.732  -1.041  0.00  0.00    +0.307 C 
ATOM      7  O   UNL     1      -1.532  -0.284  -2.080  0.00  0.00    -0.252 OA
ATOM      8  H   UNL     1      -3.602  -1.571  -1.907  0.00  0.00    +0.151 HD
ENDROOT
BRANCH   4   9
ATOM      9  C   UNL     1      -5.040  -1.391   0.397  0.00  0.00    -0.016 A 
ATOM     10  C   UNL     1      -5.260  -0.038   0.218  0.00  0.00    +0.051 A 
ATOM     11  C   UNL     1      -6.530   0.489   0.403  0.00  0.00    +0.124 A 
ATOM     12  C   UNL     1      -7.578  -0.341   0.769  0.00  0.00    +0.091 A 
ATOM     13  C   UNL     1      -7.354  -1.698   0.949  0.00  0.00    +0.124 A 
ATOM     14  C   UNL     1      -6.084  -2.222   0.756  0.00  0.00    +0.051 A 
BRANCH  13  15
ATOM     15  O   UNL     1      -8.379  -2.514   1.308  0.00  0.00    -0.495 OA
ATOM     16  C   UNL     1      -9.661  -1.908   1.483  0.00  0.00    +0.277 C 
ENDBRANCH  13  15
BRANCH  11  17
ATOM     17  O   UNL     1      -6.746   1.819   0.227  0.00  0.00    -0.495 OA
ATOM     18  C   UNL     1      -8.078   2.293   0.435  0.00  0.00    +0.277 C 
ENDBRANCH  11  17
ENDBRANCH   4   9
BRANCH   1  20
ATOM     19  C   UNL     1      -0.358   1.734   0.181  0.00  0.00    +0.025 C 
ATOM     20  C   UNL     1      -0.052   0.242   0.026  0.00  0.00    +0.111 C 
ENDBRANCH   1  20
BRANCH   3  21
ATOM     21  C   UNL     1      -3.279  -2.157   2.711  0.00  0.00    +0.339 C 
ATOM     22  O   UNL     1      -2.667  -1.845   3.715  0.00  0.00    -0.245 OA
BRANCH  21  23
ATOM     23  O   UNL     1      -4.365  -2.953   2.803  0.00  0.00    -0.462 OA
BRANCH  23  24
ATOM     24  C   UNL     1      -4.739  -3.392   4.110  0.00  0.00    +0.229 C 
ATOM     25  C   UNL     1      -5.982  -4.279   4.014  0.00  0.00    +0.048 C 
ENDBRANCH  23  24
ENDBRANCH  21  23
ENDBRANCH   3  21
BRANCH   2  26
ATOM     26  C   UNL     1      -0.878  -0.679   2.536  0.00  0.00    -0.026 C 
BRANCH  26  27
ATOM     27  N   UNL     1      -0.068  -1.857   2.874  0.00  0.00    +0.383 N 
ATOM     28  C   UNL     1       0.867  -2.140   1.777  0.00  0.00    -0.095 C 
ATOM     29  H   UNL     1      -0.674  -2.653   3.014  0.00  0.00    -0.081 HD
BRANCH  27  30
ATOM     30  C   UNL     1       0.687  -1.595   4.106  0.00  0.00    -0.068 C 
ATOM     31  C   UNL     1       1.530  -2.822   4.458  0.00  0.00    -0.015 C 
ATOM     32  C   UNL     1       2.318  -2.549   5.742  0.00  0.00    -0.002 C 
ATOM     33  C   UNL     1       1.344  -2.255   6.884  0.00  0.00    -0.000 C 
ATOM     34  C   UNL     1       0.501  -1.028   6.532  0.00  0.00    -0.002 C 
ATOM     35  C   UNL     1      -0.286  -1.301   5.249  0.00  0.00    -0.015 C 
ENDBRANCH  27  30
ENDBRANCH  26  27
ENDBRANCH   2  26
TORSDOF 10
