REMARK  Name = ZINC02881508
REMARK  10 active torsions:
REMARK  status: ('A' for Active; 'I' for Inactive)
REMARK    1  A    between atoms: C_1  and  C_2
REMARK    2  A    between atoms: C_2  and  C_26
REMARK    3  A    between atoms: C_4  and  N_10
REMARK    4  A    between atoms: C_6  and  C_8
REMARK    5  A    between atoms: C_6  and  C_9
REMARK    6  A    between atoms: C_11  and  C_13
REMARK    7  A    between atoms: C_13  and  N_14
REMARK    8  A    between atoms: N_14  and  C_15
REMARK    9  A    between atoms: N_14  and  S_16
REMARK   10  A    between atoms: S_16  and  C_19
REMARK                            x       y       z     vdW  Elec       q    Type
REMARK                         _______ _______ _______ _____ _____    ______ ____
ROOT
ATOM      1  N   UNL     1      -3.540  -0.922   1.007  0.00  0.00    -0.311 N 
ATOM      2  C   UNL     1      -4.546  -0.473   1.784  0.00  0.00    +0.229 C 
ATOM      3  O   UNL     1      -4.333   0.384   2.615  0.00  0.00    -0.274 OA
ATOM      4  H   UNL     1      -3.710  -1.608   0.342  0.00  0.00    +0.149 HD
ENDROOT
BRANCH   1   8
ATOM      5  C   UNL     1      -0.019   1.528   0.010  0.00  0.00    -0.010 C 
ATOM      6  C   UNL     1       0.002  -0.004   0.002  0.00  0.00    -0.072 C 
ATOM      7  C   UNL     1      -1.419  -0.538  -0.145  0.00  0.00    +0.009 C 
ATOM      8  C   UNL     1      -2.188  -0.373   1.166  0.00  0.00    +0.070 C 
ATOM      9  C   UNL     1      -1.451  -1.155   2.253  0.00  0.00    +0.009 C 
ATOM     10  C   UNL     1      -0.030  -0.627   2.418  0.00  0.00    -0.072 C 
ATOM     11  N   UNL     1       0.697  -0.529   1.164  0.00  0.00    +0.386 N 
ATOM     12  C   UNL     1       0.730  -1.621   3.326  0.00  0.00    -0.010 C 
ATOM     13  C   UNL     1      -0.059   0.719   3.151  0.00  0.00    -0.010 C 
ATOM     14  C   UNL     1       0.791  -0.440  -1.254  0.00  0.00    -0.010 C 
ATOM     15  H   UNL     1       1.056  -1.460   0.929  0.00  0.00    -0.084 HD
ATOM     16  H   UNL     1       1.534   0.040   1.322  0.00  0.00    -0.084 HD
ENDBRANCH   1   8
BRANCH   2  17
ATOM     17  C   UNL     1      -5.934  -1.037   1.621  0.00  0.00    +0.204 C 
BRANCH  17  18
ATOM     18  N   UNL     1      -6.839  -0.391   2.574  0.00  0.00    -0.171 NA
ATOM     19  C   UNL     1      -7.470   0.887   2.234  0.00  0.00    +0.132 C 
BRANCH  18  20
ATOM     20  S   UNL     1      -7.149  -1.104   4.036  0.00  0.00    +0.061 S 
ATOM     21  O   UNL     1      -8.405  -0.604   4.473  0.00  0.00    -0.153 OA
ATOM     22  O   UNL     1      -6.897  -2.493   3.871  0.00  0.00    -0.153 OA
BRANCH  20  23
ATOM     23  C   UNL     1      -5.944  -0.505   5.174  0.00  0.00    +0.106 A 
ATOM     24  C   UNL     1      -4.745  -1.175   5.326  0.00  0.00    +0.029 A 
ATOM     25  C   UNL     1      -3.799  -0.706   6.218  0.00  0.00    +0.017 A 
ATOM     26  C   UNL     1      -4.053   0.434   6.959  0.00  0.00    +0.018 A 
ATOM     27  C   UNL     1      -5.254   1.105   6.806  0.00  0.00    +0.017 A 
ATOM     28  C   UNL     1      -6.197   0.637   5.910  0.00  0.00    +0.029 A 
ATOM     29 BR   UNL     1      -2.761   1.077   8.180  0.00  0.00    -0.050 Br
ENDBRANCH  20  23
ENDBRANCH  18  20
ENDBRANCH  17  18
ENDBRANCH   2  17
TORSDOF 5
