REMARK  Name = ZINC18255936
REMARK  7 active torsions:
REMARK  status: ('A' for Active; 'I' for Inactive)
REMARK    1  A    between atoms: C_4  and  C_7
REMARK    2  A    between atoms: C_7  and  N_8
REMARK    3  A    between atoms: C_17  and  C_19
REMARK    4  A    between atoms: C_22  and  S_24
REMARK    5  A    between atoms: S_24  and  C_25
REMARK    6  A    between atoms: C_25  and  C_26
REMARK    7  A    between atoms: C_34  and  N_36
REMARK                            x       y       z     vdW  Elec       q    Type
REMARK                         _______ _______ _______ _____ _____    ______ ____
ROOT
ATOM      1  C   UNL     1      -2.336  -1.990   3.881  0.00  0.00    +0.270 A 
ATOM      2  N   UNL     1      -2.588  -2.405   5.100  0.00  0.00    -0.105 NA
ATOM      3  N   UNL     1      -2.001  -3.533   5.297  0.00  0.00    -0.101 NA
ATOM      4  C   UNL     1      -1.349  -3.882   4.211  0.00  0.00    +0.278 A 
ATOM      5  O   UNL     1      -1.551  -2.919   3.292  0.00  0.00    -0.409 OA
ENDROOT
BRANCH   1  15
ATOM      6  N   UNL     1      -2.927   0.722   1.401  0.00  0.00    -0.224 N 
ATOM      7  C   UNL     1      -3.715   1.620   2.027  0.00  0.00    +0.275 A 
ATOM      8  O   UNL     1      -4.078   2.630   1.453  0.00  0.00    -0.266 OA
ATOM      9  C   UNL     1      -4.128   1.361   3.413  0.00  0.00    +0.050 A 
ATOM     10  C   UNL     1      -4.942   2.247   4.117  0.00  0.00    +0.014 A 
ATOM     11  C   UNL     1      -5.301   1.956   5.415  0.00  0.00    +0.001 A 
ATOM     12  C   UNL     1      -4.860   0.789   6.026  0.00  0.00    +0.001 A 
ATOM     13  C   UNL     1      -4.056  -0.100   5.348  0.00  0.00    +0.011 A 
ATOM     14  C   UNL     1      -3.680   0.175   4.035  0.00  0.00    +0.020 A 
ATOM     15  C   UNL     1      -2.823  -0.742   3.266  0.00  0.00    +0.155 A 
ATOM     16  N   UNL     1      -2.498  -0.447   2.030  0.00  0.00    -0.162 NA
BRANCH   6  17
ATOM     17  C   UNL     1      -2.514   0.980   0.019  0.00  0.00    +0.182 C 
BRANCH  17  21
ATOM     18  C   UNL     1       1.156   3.165   0.008  0.00  0.00    +0.000 A 
ATOM     19  C   UNL     1       1.175   1.783   0.000  0.00  0.00    +0.000 A 
ATOM     20  C   UNL     1      -0.013   1.076   0.008  0.00  0.00    +0.005 A 
ATOM     21  C   UNL     1      -1.219   1.751   0.017  0.00  0.00    -0.026 A 
ATOM     22  C   UNL     1      -1.238   3.133   0.030  0.00  0.00    +0.005 A 
ATOM     23  C   UNL     1      -0.050   3.840   0.022  0.00  0.00    +0.000 A 
ENDBRANCH  17  21
ENDBRANCH   6  17
ENDBRANCH   1  15
BRANCH   4  24
ATOM     24  S   UNL     1      -0.393  -5.346   3.995  0.00  0.00    -0.058 S 
BRANCH  24  25
ATOM     25  C   UNL     1      -0.610  -6.106   5.624  0.00  0.00    +0.155 C 
BRANCH  25  26
ATOM     26  C   UNL     1       0.143  -7.411   5.673  0.00  0.00    +0.142 A 
ATOM     27  N   UNL     1      -0.481  -8.508   5.316  0.00  0.00    -0.231 NA
ATOM     28  C   UNL     1       0.153  -9.690   5.340  0.00  0.00    +0.076 A 
ATOM     29  C   UNL     1      -0.480 -10.880   4.959  0.00  0.00    +0.028 A 
ATOM     30  C   UNL     1       0.209 -12.055   5.009  0.00  0.00    +0.002 A 
ATOM     31  C   UNL     1       1.535 -12.092   5.431  0.00  0.00    +0.001 A 
ATOM     32  C   UNL     1       2.182 -10.952   5.808  0.00  0.00    +0.013 A 
ATOM     33  C   UNL     1       1.502  -9.729   5.769  0.00  0.00    +0.040 A 
ATOM     34  C   UNL     1       2.119  -8.512   6.148  0.00  0.00    +0.127 A 
ATOM     35  N   UNL     1       1.402  -7.399   6.081  0.00  0.00    -0.216 NA
BRANCH  34  36
ATOM     36  N   UNL     1       3.430  -8.485   6.574  0.00  0.00    -0.343 N 
ATOM     37  H   UNL     1       3.840  -7.644   6.830  0.00  0.00    +0.144 HD
ATOM     38  H   UNL     1       3.943  -9.308   6.618  0.00  0.00    +0.144 HD
ENDBRANCH  34  36
ENDBRANCH  25  26
ENDBRANCH  24  25
ENDBRANCH   4  24
TORSDOF 7
