REMARK  Name = ZINC19940341
REMARK  9 active torsions:
REMARK  status: ('A' for Active; 'I' for Inactive)
REMARK    1  A    between atoms: C_1  and  C_2
REMARK    2  A    between atoms: C_4  and  C_41
REMARK    3  A    between atoms: C_9  and  C_14
REMARK    4  A    between atoms: C_14  and  C_16
REMARK    5  A    between atoms: C_14  and  N_28
REMARK    6  A    between atoms: N_20  and  C_21
REMARK    7  A    between atoms: C_21  and  C_22
REMARK    8  A    between atoms: N_31  and  C_34
REMARK    9  A    between atoms: C_34  and  C_35
REMARK                            x       y       z     vdW  Elec       q    Type
REMARK                         _______ _______ _______ _____ _____    ______ ____
ROOT
ATOM      1  C   UNL     1       5.416  -2.745  -5.023  0.00  0.00    +0.162 C 
ENDROOT
BRANCH   1  10
ATOM      2  C   UNL     1       4.831  -9.493  -8.143  0.00  0.00    +0.044 C 
ATOM      3  C   UNL     1       4.201  -8.227  -7.623  0.00  0.00    -0.050 A 
ATOM      4  C   UNL     1       2.822  -8.072  -7.675  0.00  0.00    +0.008 A 
ATOM      5  C   UNL     1       2.225  -6.923  -7.206  0.00  0.00    -0.026 A 
ATOM      6  C   UNL     1       3.010  -5.905  -6.674  0.00  0.00    +0.052 A 
ATOM      7  C   UNL     1       4.407  -6.065  -6.623  0.00  0.00    -0.001 A 
ATOM      8  C   UNL     1       4.992  -7.241  -7.105  0.00  0.00    +0.013 A 
ATOM      9  C   UNL     1       5.225  -4.989  -6.060  0.00  0.00    +0.021 A 
ATOM     10  C   UNL     1       4.604  -3.872  -5.608  0.00  0.00    +0.042 A 
ATOM     11  C   UNL     1       3.198  -3.763  -5.677  0.00  0.00    +0.254 A 
ATOM     12  O   UNL     1       2.659  -2.753  -5.260  0.00  0.00    -0.268 OA
ATOM     13  N   UNL     1       2.439  -4.744  -6.197  0.00  0.00    -0.322 N 
ATOM     14  H   UNL     1       1.348  -4.611  -6.237  0.00  0.00    +0.169 HD
ATOM     15  C   UNL     1       0.727  -6.768  -7.269  0.00  0.00    +0.046 C 
ENDBRANCH   1  10
BRANCH   1  16
ATOM     16  N   UNL     1       4.972  -2.484  -3.647  0.00  0.00    -0.286 NA
ATOM     17  C   UNL     1       5.111  -3.686  -2.813  0.00  0.00    +0.101 C 
ATOM     18  C   UNL     1       4.566  -3.397  -1.412  0.00  0.00    +0.100 C 
ATOM     19  N   UNL     1       5.300  -2.267  -0.828  0.00  0.00    -0.296 NA
ATOM     20  C   UNL     1       5.162  -1.065  -1.662  0.00  0.00    +0.100 C 
ATOM     21  C   UNL     1       5.707  -1.354  -3.062  0.00  0.00    +0.101 C 
BRANCH  19  22
ATOM     22  C   UNL     1       4.857  -2.006   0.549  0.00  0.00    +0.119 C 
BRANCH  22  23
ATOM     23  C   UNL     1       5.788  -1.015   1.197  0.00  0.00    -0.033 A 
ATOM     24  C   UNL     1       5.530   0.340   1.103  0.00  0.00    +0.005 A 
ATOM     25  C   UNL     1       6.384   1.249   1.698  0.00  0.00    +0.000 A 
ATOM     26  C   UNL     1       7.497   0.804   2.387  0.00  0.00    +0.000 A 
ATOM     27  C   UNL     1       7.755  -0.551   2.481  0.00  0.00    +0.000 A 
ATOM     28  C   UNL     1       6.901  -1.460   1.886  0.00  0.00    +0.005 A 
ENDBRANCH  22  23
ENDBRANCH  19  22
ENDBRANCH   1  16
BRANCH   1  29
ATOM     29  C   UNL     1       5.225  -1.503  -5.856  0.00  0.00    +0.173 A 
ATOM     30  N   UNL     1       4.169  -0.727  -5.873  0.00  0.00    -0.111 NA
ATOM     31  N   UNL     1       4.389   0.227  -6.710  0.00  0.00    -0.023 NA
ATOM     32  N   UNL     1       5.559   0.080  -7.228  0.00  0.00    -0.044 NA
ATOM     33  N   UNL     1       6.108  -0.973  -6.722  0.00  0.00    -0.225 N 
BRANCH  33  34
ATOM     34  C   UNL     1       7.440  -1.495  -7.036  0.00  0.00    +0.179 C 
BRANCH  34  35
ATOM     35  C   UNL     1       7.341  -2.475  -8.207  0.00  0.00    +0.140 C 
ATOM     36  C   UNL     1       8.749  -2.998  -8.590  0.00  0.00    +0.035 C 
ATOM     37  C   UNL     1       8.387  -4.353  -9.258  0.00  0.00    +0.031 C 
ATOM     38  C   UNL     1       7.161  -4.807  -8.437  0.00  0.00    +0.160 C 
ATOM     39  O   UNL     1       6.600  -3.643  -7.819  0.00  0.00    -0.375 OA
ENDBRANCH  34  35
ENDBRANCH  33  34
ENDBRANCH   1  29
TORSDOF 7
