REMARK  Name = ZINC20998131
REMARK  15 active torsions:
REMARK  status: ('A' for Active; 'I' for Inactive)
REMARK    1  A    between atoms: C_1  and  C_2
REMARK    2  A    between atoms: C_2  and  C_3
REMARK    3  A    between atoms: C_2  and  C_4
REMARK    4  A    between atoms: C_2  and  C_5
REMARK    5  A    between atoms: C_5  and  N_6
REMARK    6  A    between atoms: N_9  and  C_16
REMARK    7  A    between atoms: C_11  and  C_13
REMARK    8  A    between atoms: C_13  and  C_14
REMARK    9  A    between atoms: C_14  and  O_15
REMARK   10  A    between atoms: C_16  and  C_17
REMARK   11  A    between atoms: C_20  and  C_22
REMARK   12  A    between atoms: C_23  and  C_24
REMARK   13  A    between atoms: C_24  and  C_25
REMARK   14  A    between atoms: C_24  and  C_26
REMARK   15  A    between atoms: C_24  and  O_27
REMARK                            x       y       z     vdW  Elec       q    Type
REMARK                         _______ _______ _______ _____ _____    ______ ____
ROOT
ATOM      1  N   UNL     1       1.129   1.396   0.719  0.00  0.00    +0.384 N 
ATOM      2  C   UNL     1       2.163   0.675  -0.036  0.00  0.00    -0.063 C 
ATOM      3  C   UNL     1       3.462   0.655   0.773  0.00  0.00    +0.066 C 
ATOM      4  N   UNL     1       3.883   2.035   1.052  0.00  0.00    -0.301 NA
ATOM      5  C   UNL     1       2.849   2.756   1.807  0.00  0.00    +0.069 C 
ATOM      6  C   UNL     1       1.550   2.776   0.998  0.00  0.00    -0.052 C 
ATOM      7  H   UNL     1       0.991   0.882   1.681  0.00  0.00    -0.081 HD
ENDROOT
BRANCH   1   8
ATOM      8  C   UNL     1      -0.156   1.372   0.007  0.00  0.00    -0.072 C 
BRANCH   8  10
ATOM      9  C   UNL     1      -0.111  -0.960   0.902  0.00  0.00    +0.009 C 
ATOM     10  C   UNL     1      -0.561  -0.078  -0.264  0.00  0.00    -0.052 C 
ATOM     11  C   UNL     1      -2.082  -0.164  -0.411  0.00  0.00    +0.009 C 
ATOM     12  C   UNL     1       0.104  -0.561  -1.555  0.00  0.00    +0.009 C 
ENDBRANCH   8  10
ENDBRANCH   1   8
BRANCH   6  13
ATOM     13  C   UNL     1       0.460   3.491   1.798  0.00  0.00    +0.014 C 
BRANCH  13  14
ATOM     14  C   UNL     1       0.835   4.965   1.967  0.00  0.00    +0.154 C 
BRANCH  14  15
ATOM     15  O   UNL     1      -0.141   5.614   2.784  0.00  0.00    -0.395 OA
ATOM     16  H   UNL     1      -0.040   6.684   3.018  0.00  0.00    +0.209 HD
ENDBRANCH  14  15
ENDBRANCH  13  14
ENDBRANCH   6  13
BRANCH   4  17
ATOM     17  C   UNL     1       5.168   2.060   1.764  0.00  0.00    +0.126 C 
BRANCH  17  18
ATOM     18  C   UNL     1       6.132   1.115   1.094  0.00  0.00    +0.005 A 
ATOM     19  C   UNL     1       7.006   1.361   0.084  0.00  0.00    +0.014 A 
ATOM     20  C   UNL     1       7.804   0.339  -0.378  0.00  0.00    +0.025 A 
ATOM     21  C   UNL     1       7.680  -0.902   0.193  0.00  0.00    +0.062 A 
ATOM     22  S   UNL     1       6.412  -0.618   1.417  0.00  0.00    -0.084 S 
BRANCH  21  23
ATOM     23  C   UNL     1       8.384  -2.111  -0.114  0.00  0.00    -0.056 C 
ATOM     24  C   UNL     1       8.961  -3.102  -0.365  0.00  0.00    -0.062 C 
BRANCH  24  25
ATOM     25  C   UNL     1       9.685  -4.344  -0.680  0.00  0.00    +0.121 C 
ATOM     26  C   UNL     1      10.440  -4.823   0.561  0.00  0.00    +0.055 C 
ATOM     27  C   UNL     1       8.687  -5.419  -1.117  0.00  0.00    +0.055 C 
BRANCH  25  28
ATOM     28  O   UNL     1      10.614  -4.099  -1.738  0.00  0.00    -0.377 OA
ATOM     29  H   UNL     1      11.249  -4.915  -2.113  0.00  0.00    +0.211 HD
ENDBRANCH  25  28
ENDBRANCH  24  25
ENDBRANCH  21  23
ENDBRANCH  17  18
ENDBRANCH   4  17
TORSDOF 10
