REMARK  Name = ZINC13063345
REMARK  9 active torsions:
REMARK  status: ('A' for Active; 'I' for Inactive)
REMARK    1  A    between atoms: C_1  and  N_2
REMARK    2  A    between atoms: N_2  and  C_3
REMARK    3  A    between atoms: N_2  and  C_16
REMARK    4  A    between atoms: C_3  and  C_4
REMARK    5  A    between atoms: C_16  and  C_17
REMARK    6  A    between atoms: N_19  and  C_20
REMARK    7  A    between atoms: C_20  and  C_21
REMARK    8  A    between atoms: C_21  and  N_22
REMARK    9  A    between atoms: C_26  and  C_27
REMARK                            x       y       z     vdW  Elec       q    Type
REMARK                         _______ _______ _______ _____ _____    ______ ____
ROOT
ATOM      1  C   UNL     1      -1.663   0.390  -1.553  0.00  0.00    +0.227 C 
ATOM      2  O   UNL     1      -1.107   1.100  -2.364  0.00  0.00    -0.274 OA
ATOM      3  N   UNL     1      -2.875  -0.132  -1.833  0.00  0.00    -0.313 N 
ATOM      4  H   UNL     1      -3.319  -0.700  -1.184  0.00  0.00    +0.149 HD
ENDROOT
BRANCH   1   5
ATOM      5  C   UNL     1      -1.000   0.089  -0.234  0.00  0.00    +0.180 C 
BRANCH   5   7
ATOM      6  C   UNL     1       0.132   2.228  -0.156  0.00  0.00    +0.105 C 
ATOM      7  N   UNL     1       0.301   0.769  -0.174  0.00  0.00    -0.290 NA
BRANCH   7   8
ATOM      8  C   UNL     1       1.080   0.314   0.986  0.00  0.00    +0.158 C 
BRANCH   8   9
ATOM      9  C   UNL     1       2.488   0.840   0.882  0.00  0.00    +0.124 A 
ATOM     10  N   UNL     1       3.369   0.520   1.865  0.00  0.00    -0.309 N 
ATOM     11  H   UNL     1       3.081  -0.034   2.608  0.00  0.00    +0.170 HD
ATOM     12  C   UNL     1       4.646   0.967   1.819  0.00  0.00    +0.259 A 
ATOM     13  O   UNL     1       5.446   0.688   2.693  0.00  0.00    -0.267 OA
ATOM     14  C   UNL     1       5.030   1.802   0.671  0.00  0.00    +0.065 A 
ATOM     15  C   UNL     1       6.318   2.312   0.528  0.00  0.00    +0.015 A 
ATOM     16  C   UNL     1       6.623   3.090  -0.567  0.00  0.00    +0.001 A 
ATOM     17  C   UNL     1       5.658   3.368  -1.527  0.00  0.00    +0.002 A 
ATOM     18  C   UNL     1       4.379   2.873  -1.404  0.00  0.00    +0.028 A 
ATOM     19  C   UNL     1       4.046   2.082  -0.303  0.00  0.00    +0.078 A 
ATOM     20  N   UNL     1       2.799   1.571  -0.145  0.00  0.00    -0.232 NA
ENDBRANCH   8   9
ENDBRANCH   7   8
ENDBRANCH   5   7
ENDBRANCH   1   5
BRANCH   3  21
ATOM     21  C   UNL     1      -3.520   0.161  -3.115  0.00  0.00    +0.123 C 
BRANCH  21  22
ATOM     22  C   UNL     1      -4.875  -0.547  -3.177  0.00  0.00    +0.136 C 
BRANCH  22  23
ATOM     23  N   UNL     1      -5.520  -0.255  -4.460  0.00  0.00    -0.227 N 
ATOM     24  C   UNL     1      -6.306   0.803  -4.561  0.00  0.00    +0.260 C 
ATOM     25  O   UNL     1      -6.509   1.542  -3.615  0.00  0.00    -0.269 OA
ATOM     26  C   UNL     1      -6.927   1.043  -5.880  0.00  0.00    +0.080 C 
ATOM     27  C   UNL     1      -7.765   2.034  -6.274  0.00  0.00    +0.031 C 
ATOM     28  S   UNL     1      -6.268  -0.332  -6.814  0.00  0.00    -0.026 S 
ATOM     29  C   UNL     1      -5.294  -1.068  -5.512  0.00  0.00    +0.286 C 
ATOM     30  O   UNL     1      -4.596  -2.063  -5.561  0.00  0.00    -0.262 OA
BRANCH  27  31
ATOM     31  C   UNL     1      -8.133   2.164  -7.691  0.00  0.00    +0.011 A 
ATOM     32  C   UNL     1      -7.359   1.545  -8.679  0.00  0.00    +0.011 A 
ATOM     33  C   UNL     1      -7.712   1.672 -10.005  0.00  0.00    +0.001 A 
ATOM     34  C   UNL     1      -8.828   2.410 -10.363  0.00  0.00    +0.003 A 
ATOM     35  C   UNL     1      -9.599   3.026  -9.395  0.00  0.00    +0.039 A 
ATOM     36  C   UNL     1      -9.264   2.905  -8.060  0.00  0.00    +0.131 A 
ATOM     37  F   UNL     1     -10.021   3.503  -7.114  0.00  0.00    -0.205 F 
ENDBRANCH  27  31
ENDBRANCH  22  23
ENDBRANCH  21  22
ENDBRANCH   3  21
TORSDOF 8
