REMARK  Name = ZINC47424862
REMARK  4 active torsions:
REMARK  status: ('A' for Active; 'I' for Inactive)
REMARK    1  A    between atoms: C_1  and  C_2
REMARK    2  A    between atoms: C_2  and  C_3
REMARK    3  A    between atoms: C_4  and  C_22
REMARK    4  A    between atoms: C_9  and  C_11
REMARK                            x       y       z     vdW  Elec       q    Type
REMARK                         _______ _______ _______ _____ _____    ______ ____
ROOT
ATOM      1  C   UNL     1      -1.412  -0.526   0.013  0.00  0.00    +0.053 A 
ATOM      2  C   UNL     1      -2.067  -0.772   1.174  0.00  0.00    +0.011 A 
ATOM      3  S   UNL     1      -3.638  -1.349   0.553  0.00  0.00    -0.057 S 
ATOM      4  C   UNL     1      -3.302  -1.219  -1.090  0.00  0.00    +0.165 A 
ATOM      5  N   UNL     1      -2.070  -0.758  -1.108  0.00  0.00    -0.229 NA
ATOM      6  N   UNL     1      -4.127  -1.518  -2.166  0.00  0.00    -0.260 N 
ATOM      7  C   UNL     1      -5.375  -1.979  -1.951  0.00  0.00    +0.256 C 
ATOM      8  O   UNL     1      -5.779  -2.133  -0.812  0.00  0.00    -0.269 OA
ATOM      9  C   UNL     1      -1.597  -0.605   2.596  0.00  0.00    +0.053 C 
ATOM     10  H   UNL     1      -3.805  -1.396  -3.073  0.00  0.00    +0.157 HD
ENDROOT
BRANCH   7  11
ATOM     11  C   UNL     1      -6.216  -2.285  -3.049  0.00  0.00    +0.078 A 
ATOM     12  C   UNL     1      -7.516  -2.758  -3.039  0.00  0.00    +0.049 A 
ATOM     13  C   UNL     1      -8.161  -2.992  -4.243  0.00  0.00    +0.082 A 
ATOM     14  C   UNL     1      -7.434  -2.727  -5.408  0.00  0.00    +0.128 A 
ATOM     15  S   UNL     1      -5.871  -2.151  -4.795  0.00  0.00    -0.063 S 
ATOM     16  N   UNL     1      -8.187  -3.000  -6.465  0.00  0.00    -0.214 NA
ATOM     17  C   UNL     1      -9.355  -3.426  -6.064  0.00  0.00    +0.179 A 
ATOM     18  N   UNL     1      -9.427  -3.453  -4.698  0.00  0.00    -0.293 N 
ATOM     19  C   UNL     1     -10.609  -3.883  -4.141  0.00  0.00    +0.101 A 
ATOM     20  C   UNL     1     -11.631  -4.254  -4.912  0.00  0.00    +0.067 A 
ATOM     21  S   UNL     1     -10.963  -4.011  -6.550  0.00  0.00    -0.058 S 
ENDBRANCH   7  11
BRANCH   1  23
ATOM     22  C   UNL     1      -0.019   1.526   0.010  0.00  0.00    +0.010 C 
ATOM     23  C   UNL     1       0.002  -0.004   0.002  0.00  0.00    +0.053 C 
ENDBRANCH   1  23
TORSDOF 2
