REMARK  Name = ZINC67187764
REMARK  7 active torsions:
REMARK  status: ('A' for Active; 'I' for Inactive)
REMARK    1  A    between atoms: C_1  and  N_2
REMARK    2  A    between atoms: C_4  and  C_16
REMARK    3  A    between atoms: C_5  and  C_7
REMARK    4  A    between atoms: C_16  and  N_17
REMARK    5  A    between atoms: N_17  and  C_18
REMARK    6  A    between atoms: C_18  and  C_19
REMARK    7  A    between atoms: N_23  and  C_25
REMARK                            x       y       z     vdW  Elec       q    Type
REMARK                         _______ _______ _______ _____ _____    ______ ____
ROOT
ATOM      1  C   UNL     1       0.040  -3.291  -1.582  0.00  0.00    -0.043 C 
ENDROOT
BRANCH   1   5
ATOM      2  C   UNL     1      -0.018   1.461   0.010  0.00  0.00    +0.172 C 
ATOM      3  N   UNL     1       0.002  -0.004   0.002  0.00  0.00    -0.274 N 
ATOM      4  C   UNL     1       0.008  -0.790  -1.096  0.00  0.00    +0.110 A 
ATOM      5  C   UNL     1       0.028  -2.077  -0.689  0.00  0.00    -0.016 A 
ATOM      6  C   UNL     1       0.034  -2.084   0.721  0.00  0.00    +0.129 A 
ATOM      7  N   UNL     1       0.025  -0.832   1.132  0.00  0.00    -0.168 NA
BRANCH   6   8
ATOM      8  C   UNL     1       0.055  -3.283   1.586  0.00  0.00    +0.156 A 
ATOM      9  C   UNL     1       0.693  -3.373   2.777  0.00  0.00    +0.060 A 
ATOM     10  C   UNL     1       0.443  -4.729   3.271  0.00  0.00    +0.021 A 
ATOM     11  C   UNL     1       0.817  -5.433   4.417  0.00  0.00    +0.011 A 
ATOM     12  C   UNL     1       0.406  -6.726   4.583  0.00  0.00    +0.001 A 
ATOM     13  C   UNL     1      -0.379  -7.342   3.619  0.00  0.00    +0.004 A 
ATOM     14  C   UNL     1      -0.758  -6.664   2.479  0.00  0.00    +0.047 A 
ATOM     15  C   UNL     1      -0.353  -5.349   2.291  0.00  0.00    +0.136 A 
ATOM     16  O   UNL     1      -0.563  -4.448   1.309  0.00  0.00    -0.453 OA
ENDBRANCH   6   8
ENDBRANCH   1   5
BRANCH   1  17
ATOM     17  N   UNL     1      -1.317  -3.846  -1.673  0.00  0.00    +0.382 N 
ATOM     18  H   UNL     1      -1.634  -4.110  -0.752  0.00  0.00    -0.085 HD
ATOM     19  H   UNL     1      -1.939  -3.152  -2.058  0.00  0.00    -0.085 HD
BRANCH  17  20
ATOM     20  C   UNL     1      -1.304  -5.029  -2.544  0.00  0.00    -0.077 C 
BRANCH  20  21
ATOM     21  C   UNL     1      -2.717  -5.608  -2.638  0.00  0.00    -0.009 C 
ATOM     22  C   UNL     1      -3.651  -4.651  -3.426  0.00  0.00    +0.022 C 
ATOM     23  C   UNL     1      -4.709  -5.637  -3.982  0.00  0.00    +0.105 C 
ATOM     24  N   UNL     1      -3.950  -6.857  -4.315  0.00  0.00    -0.330 N 
ATOM     25  C   UNL     1      -2.726  -6.891  -3.496  0.00  0.00    +0.106 C 
BRANCH  24  26
ATOM     26  C   UNL     1      -4.332  -7.823  -5.249  0.00  0.00    +0.030 A 
ATOM     27  C   UNL     1      -3.528  -8.935  -5.467  0.00  0.00    +0.023 A 
ATOM     28  C   UNL     1      -3.909  -9.889  -6.391  0.00  0.00    +0.002 A 
ATOM     29  C   UNL     1      -5.087  -9.737  -7.098  0.00  0.00    +0.000 A 
ATOM     30  C   UNL     1      -5.889  -8.631  -6.883  0.00  0.00    +0.002 A 
ATOM     31  C   UNL     1      -5.518  -7.677  -5.957  0.00  0.00    +0.023 A 
ENDBRANCH  24  26
ENDBRANCH  20  21
ENDBRANCH  17  20
ENDBRANCH   1  17
TORSDOF 6
