REMARK  Name = ZINC20927605
REMARK  12 active torsions:
REMARK  status: ('A' for Active; 'I' for Inactive)
REMARK    1  A    between atoms: C_1  and  O_2
REMARK    2  A    between atoms: O_2  and  C_3
REMARK    3  A    between atoms: C_8  and  C_9
REMARK    4  A    between atoms: C_10  and  C_11
REMARK    5  A    between atoms: N_12  and  N_13
REMARK    6  A    between atoms: N_13  and  C_14
REMARK    7  A    between atoms: C_17  and  N_32
REMARK    8  A    between atoms: C_19  and  S_20
REMARK    9  A    between atoms: S_20  and  N_23
REMARK   10  A    between atoms: N_23  and  C_24
REMARK   11  A    between atoms: C_29  and  O_30
REMARK   12  A    between atoms: O_30  and  C_31
REMARK                            x       y       z     vdW  Elec       q    Type
REMARK                         _______ _______ _______ _____ _____    ______ ____
ROOT
ATOM      1  C   UNL     1       0.807   3.407   2.016  0.00  0.00    +0.075 A 
ATOM      2  C   UNL     1       1.030   3.979   3.271  0.00  0.00    +0.029 A 
ATOM      3  C   UNL     1       2.122   3.591   4.017  0.00  0.00    +0.035 A 
ATOM      4  C   UNL     1       2.997   2.636   3.526  0.00  0.00    +0.128 A 
ATOM      5  C   UNL     1       2.778   2.061   2.285  0.00  0.00    +0.063 A 
ATOM      6  C   UNL     1       1.692   2.445   1.526  0.00  0.00    +0.133 A 
ENDROOT
BRANCH   6   7
ATOM      7  S   UNL     1       1.419   1.718  -0.055  0.00  0.00    +0.074 S 
ATOM      8  O   UNL     1       0.059   1.304  -0.082  0.00  0.00    -0.150 OA
ATOM      9  O   UNL     1       2.494   0.816  -0.279  0.00  0.00    -0.150 OA
BRANCH   7  10
ATOM     10  N   UNL     1       1.570   2.922  -1.181  0.00  0.00    -0.213 N 
ATOM     11  H   UNL     1       0.721   3.176  -1.833  0.00  0.00    +0.174 HD
BRANCH  10  12
ATOM     12  C   UNL     1       2.778   3.618  -1.303  0.00  0.00    +0.090 A 
ATOM     13  C   UNL     1       3.983   2.958  -1.113  0.00  0.00    +0.028 A 
ATOM     14  C   UNL     1       5.175   3.647  -1.240  0.00  0.00    +0.002 A 
ATOM     15  C   UNL     1       5.169   4.995  -1.545  0.00  0.00    +0.004 A 
ATOM     16  C   UNL     1       3.972   5.661  -1.730  0.00  0.00    +0.047 A 
ATOM     17  C   UNL     1       2.773   4.977  -1.611  0.00  0.00    +0.142 A 
BRANCH  17  18
ATOM     18  O   UNL     1       1.594   5.631  -1.792  0.00  0.00    -0.493 OA
ATOM     19  C   UNL     1       1.666   7.024  -2.105  0.00  0.00    +0.277 C 
ENDBRANCH  17  18
ENDBRANCH  10  12
ENDBRANCH   7  10
ENDBRANCH   6   7
BRANCH   4  20
ATOM     20  N   UNL     1       4.168   2.224   4.332  0.00  0.00    +0.056 N 
ATOM     21  O   UNL     1       4.376   2.764   5.515  0.00  0.00    -0.126 OA
ATOM     22  O   UNL     1       5.001   1.316   3.867  0.00  0.00    -0.126 OA
ENDBRANCH   4  20
BRANCH   1  23
ATOM     23  N   UNL     1      -0.284   3.792   1.264  0.00  0.00    -0.236 N 
ATOM     24  H   UNL     1      -0.411   3.406   0.242  0.00  0.00    +0.174 HD
BRANCH  23  26
ATOM     25  C   UNL     1      -2.267   4.898   1.069  0.00  0.00    +0.130 C 
ATOM     26  N   UNL     1      -1.156   4.603   1.761  0.00  0.00    -0.190 NA
BRANCH  25  28
ATOM     27  C   UNL     1      -4.309   6.145   0.820  0.00  0.00    +0.013 C 
ATOM     28  C   UNL     1      -3.140   5.834   1.547  0.00  0.00    +0.022 C 
BRANCH  27  34
ATOM     29  C   UNL     1      -6.419   7.442   0.563  0.00  0.00    +0.127 A 
ATOM     30  C   UNL     1      -7.283   8.395   1.086  0.00  0.00    +0.046 A 
ATOM     31  C   UNL     1      -6.985   9.014   2.283  0.00  0.00    +0.004 A 
ATOM     32  C   UNL     1      -5.829   8.699   2.992  0.00  0.00    +0.001 A 
ATOM     33  C   UNL     1      -4.949   7.770   2.532  0.00  0.00    +0.011 A 
ATOM     34  C   UNL     1      -5.204   7.104   1.310  0.00  0.00    +0.017 A 
BRANCH  29  36
ATOM     35  C   UNL     1      -7.902   7.221  -1.275  0.00  0.00    +0.277 C 
ATOM     36  O   UNL     1      -6.697   6.833  -0.612  0.00  0.00    -0.495 OA
ENDBRANCH  29  36
ENDBRANCH  27  34
ENDBRANCH  25  28
ENDBRANCH  23  26
ENDBRANCH   1  23
TORSDOF 10
