REMARK  Name = ZINC63573034
REMARK  9 active torsions:
REMARK  status: ('A' for Active; 'I' for Inactive)
REMARK    1  A    between atoms: C_1  and  C_2
REMARK    2  A    between atoms: C_2  and  O_3
REMARK    3  A    between atoms: O_3  and  C_4
REMARK    4  A    between atoms: C_7  and  N_10
REMARK    5  A    between atoms: C_19  and  O_36
REMARK    6  A    between atoms: C_26  and  C_28
REMARK    7  A    between atoms: C_31  and  O_34
REMARK    8  A    between atoms: O_34  and  C_35
REMARK    9  A    between atoms: O_36  and  C_37
REMARK                            x       y       z     vdW  Elec       q    Type
REMARK                         _______ _______ _______ _____ _____    ______ ____
ROOT
ATOM      1  N   UNL     1      -2.363  -6.120   1.795  0.00  0.00    -0.269 N 
ATOM      2  C   UNL     1      -3.495  -6.635   1.276  0.00  0.00    +0.307 C 
ATOM      3  O   UNL     1      -4.488  -5.941   1.173  0.00  0.00    -0.252 OA
ATOM      4  N   UNL     1      -3.526  -7.920   0.870  0.00  0.00    -0.276 N 
ATOM      5  C   UNL     1      -2.368  -8.786   1.113  0.00  0.00    +0.114 C 
ATOM      6  C   UNL     1      -1.859  -9.350  -0.227  0.00  0.00    +0.052 C 
ATOM      7  C   UNL     1      -3.075  -9.817  -0.988  0.00  0.00    -0.035 C 
ATOM      8  C   UNL     1      -3.353 -10.977  -1.570  0.00  0.00    +0.003 A 
ATOM      9  C   UNL     1      -2.547 -12.189  -1.782  0.00  0.00    +0.055 A 
ATOM     10  C   UNL     1      -3.161 -13.228  -2.412  0.00  0.00    +0.121 A 
ATOM     11  C   UNL     1      -4.491 -13.200  -2.857  0.00  0.00    +0.047 A 
ATOM     12  C   UNL     1      -5.319 -12.134  -2.721  0.00  0.00    +0.029 A 
ATOM     13  C   UNL     1      -4.766 -10.943  -2.061  0.00  0.00    +0.043 A 
ATOM     14  N   UNL     1      -5.306  -9.788  -1.815  0.00  0.00    -0.375 N 
ATOM     15  C   UNL     1      -4.295  -8.928  -1.200  0.00  0.00    +0.131 C 
ATOM     16  C   UNL     1      -4.725  -8.441   0.193  0.00  0.00    +0.134 C 
ATOM     17  H   UNL     1      -1.550  -6.648   1.805  0.00  0.00    +0.156 HD
ATOM     18  H   UNL     1      -6.224  -9.538  -2.007  0.00  0.00    +0.160 HD
ENDROOT
BRANCH   1  22
ATOM     19  C   UNL     1      -2.357  -2.253   3.358  0.00  0.00    +0.121 A 
ATOM     20  C   UNL     1      -1.585  -3.242   3.950  0.00  0.00    +0.047 A 
ATOM     21  C   UNL     1      -1.586  -4.522   3.433  0.00  0.00    +0.027 A 
ATOM     22  C   UNL     1      -2.361  -4.821   2.321  0.00  0.00    +0.035 A 
ATOM     23  C   UNL     1      -3.134  -3.831   1.728  0.00  0.00    +0.027 A 
ATOM     24  C   UNL     1      -3.135  -2.552   2.249  0.00  0.00    +0.047 A 
BRANCH  19  25
ATOM     25  O   UNL     1      -2.355  -0.993   3.868  0.00  0.00    -0.492 OA
BRANCH  25  27
ATOM     26  C   UNL     1      -1.657   0.707   5.437  0.00  0.00    +0.048 C 
ATOM     27  C   UNL     1      -1.530  -0.756   5.010  0.00  0.00    +0.225 C 
ENDBRANCH  25  27
ENDBRANCH  19  25
ENDBRANCH   1  22
BRANCH  16  28
ATOM     28  C   UNL     1      -5.752  -7.346   0.060  0.00  0.00    -0.024 A 
ATOM     29  C   UNL     1      -5.482  -6.239  -0.724  0.00  0.00    +0.009 A 
ATOM     30  C   UNL     1      -6.422  -5.234  -0.848  0.00  0.00    +0.046 A 
ATOM     31  C   UNL     1      -7.636  -5.336  -0.185  0.00  0.00    +0.120 A 
ATOM     32  C   UNL     1      -7.904  -6.448   0.600  0.00  0.00    +0.046 A 
ATOM     33  C   UNL     1      -6.964  -7.453   0.716  0.00  0.00    +0.009 A 
BRANCH  31  34
ATOM     34  O   UNL     1      -8.562  -4.348  -0.305  0.00  0.00    -0.495 OA
ATOM     35  C   UNL     1      -9.790  -4.520   0.405  0.00  0.00    +0.277 C 
ENDBRANCH  31  34
ENDBRANCH  16  28
BRANCH  10  36
ATOM     36  O   UNL     1      -2.441 -14.361  -2.623  0.00  0.00    -0.495 OA
ATOM     37  C   UNL     1      -3.106 -15.439  -3.286  0.00  0.00    +0.277 C 
ENDBRANCH  10  36
TORSDOF 6
