REMARK  Name = ZINC10000773
REMARK  14 active torsions:
REMARK  status: ('A' for Active; 'I' for Inactive)
REMARK    1  A    between atoms: C_1  and  C_2
REMARK    2  A    between atoms: C_2  and  N_3
REMARK    3  A    between atoms: N_3  and  C_4
REMARK    4  A    between atoms: N_3  and  C_6
REMARK    5  A    between atoms: C_4  and  C_5
REMARK    6  A    between atoms: C_9  and  N_33
REMARK    7  A    between atoms: C_11  and  C_12
REMARK    8  A    between atoms: N_13  and  N_14
REMARK    9  A    between atoms: C_15  and  C_17
REMARK   10  A    between atoms: C_17  and  C_19
REMARK   11  A    between atoms: C_17  and  N_22
REMARK   12  A    between atoms: C_19  and  C_20
REMARK   13  A    between atoms: C_19  and  C_21
REMARK   14  A    between atoms: C_23  and  C_25
REMARK                            x       y       z     vdW  Elec       q    Type
REMARK                         _______ _______ _______ _____ _____    ______ ____
ROOT
ATOM      1  N   UNL     1      -3.672  -3.324  -0.453  0.00  0.00    -0.205 N 
ATOM      2  C   UNL     1      -2.465  -2.850  -0.821  0.00  0.00    +0.253 C 
ATOM      3  O   UNL     1      -1.707  -3.552  -1.457  0.00  0.00    -0.272 OA
ATOM      4  H   UNL     1      -4.251  -2.788   0.111  0.00  0.00    +0.177 HD
ENDROOT
BRANCH   1   6
ATOM      5  C   UNL     1      -5.252  -5.045  -0.528  0.00  0.00    +0.140 C 
ATOM      6  N   UNL     1      -4.090  -4.589  -0.884  0.00  0.00    -0.188 NA
BRANCH   5  12
ATOM      7  C   UNL     1      -4.856  -7.155  -1.798  0.00  0.00    +0.039 A 
ATOM      8  C   UNL     1      -5.281  -8.407  -2.219  0.00  0.00    +0.026 A 
ATOM      9  C   UNL     1      -6.520  -8.883  -1.835  0.00  0.00    +0.034 A 
ATOM     10  C   UNL     1      -7.346  -8.117  -1.030  0.00  0.00    +0.127 A 
ATOM     11  C   UNL     1      -6.939  -6.873  -0.598  0.00  0.00    +0.044 A 
ATOM     12  C   UNL     1      -5.691  -6.376  -0.982  0.00  0.00    +0.018 A 
BRANCH  10  13
ATOM     13  N   UNL     1      -8.671  -8.640  -0.626  0.00  0.00    +0.056 N 
ATOM     14  O   UNL     1      -9.032  -9.741  -1.003  0.00  0.00    -0.126 OA
ATOM     15  O   UNL     1      -9.401  -7.969   0.082  0.00  0.00    -0.126 OA
ENDBRANCH  10  13
BRANCH   7  16
ATOM     16  N   UNL     1      -3.607  -6.673  -2.184  0.00  0.00    -0.330 N 
BRANCH  16  18
ATOM     17  C   UNL     1      -2.438  -7.480  -0.189  0.00  0.00    +0.024 C 
ATOM     18  C   UNL     1      -2.534  -7.559  -1.714  0.00  0.00    +0.102 C 
ENDBRANCH  16  18
BRANCH  16  19
ATOM     19  C   UNL     1      -3.541  -6.491  -3.640  0.00  0.00    +0.102 C 
ATOM     20  C   UNL     1      -2.347  -5.600  -3.988  0.00  0.00    +0.024 C 
ENDBRANCH  16  19
ENDBRANCH   7  16
ENDBRANCH   5  12
ENDBRANCH   1   6
BRANCH   2  21
ATOM     21  C   UNL     1      -2.057  -1.450  -0.444  0.00  0.00    +0.163 C 
BRANCH  21  22
ATOM     22  N   UNL     1      -0.971  -1.004  -1.320  0.00  0.00    -0.300 N 
ATOM     23  C   UNL     1      -0.776   0.312  -1.536  0.00  0.00    +0.246 C 
ATOM     24  O   UNL     1      -1.502   1.129  -1.003  0.00  0.00    -0.270 OA
ATOM     25  H   UNL     1      -0.393  -1.656  -1.746  0.00  0.00    +0.150 HD
BRANCH  23  26
ATOM     26  C   UNL     1       0.318   0.762  -2.420  0.00  0.00    +0.055 A 
ATOM     27  C   UNL     1       1.153  -0.175  -3.034  0.00  0.00    +0.016 A 
ATOM     28  C   UNL     1       2.170   0.251  -3.862  0.00  0.00    +0.021 A 
ATOM     29  C   UNL     1       2.368   1.604  -4.082  0.00  0.00    +0.042 A 
ATOM     30  C   UNL     1       1.548   2.538  -3.473  0.00  0.00    +0.040 A 
ATOM     31  C   UNL     1       0.526   2.126  -2.641  0.00  0.00    +0.054 A 
ATOM     32 CL   UNL     1      -0.502   3.298  -1.878  0.00  0.00    -0.083 Cl
ATOM     33 CL   UNL     1       3.652   2.131  -5.126  0.00  0.00    -0.083 Cl
ENDBRANCH  23  26
ENDBRANCH  21  22
BRANCH  21  34
ATOM     34  C   UNL     1      -1.579  -1.432   1.010  0.00  0.00    +0.012 C 
ATOM     35  C   UNL     1      -0.301  -2.263   1.136  0.00  0.00    +0.009 C 
ATOM     36  C   UNL     1      -1.294   0.010   1.435  0.00  0.00    +0.009 C 
ENDBRANCH  21  34
ENDBRANCH   2  21
TORSDOF 10
