REMARK  Name = ZINC36602301
REMARK  18 active torsions:
REMARK  status: ('A' for Active; 'I' for Inactive)
REMARK    1  A    between atoms: C_1  and  C_2
REMARK    2  A    between atoms: C_5  and  C_7
REMARK    3  A    between atoms: C_7  and  N_8
REMARK    4  A    between atoms: N_8  and  C_9
REMARK    5  A    between atoms: C_9  and  C_11
REMARK    6  A    between atoms: C_9  and  C_20
REMARK    7  A    between atoms: C_12  and  O_19
REMARK    8  A    between atoms: C_14  and  O_18
REMARK    9  A    between atoms: C_16  and  O_17
REMARK   10  A    between atoms: N_22  and  C_23
REMARK   11  A    between atoms: C_23  and  C_24
REMARK   12  A    between atoms: C_23  and  C_25
REMARK   13  A    between atoms: C_23  and  C_26
REMARK   14  A    between atoms: C_26  and  C_27
REMARK   15  A    between atoms: C_27  and  C_28
REMARK   16  A    between atoms: C_27  and  C_29
REMARK   17  A    between atoms: C_27  and  C_30
REMARK   18  A    between atoms: C_31  and  C_33
REMARK                            x       y       z     vdW  Elec       q    Type
REMARK                         _______ _______ _______ _____ _____    ______ ____
ROOT
ATOM      1  C   UNL     1       2.019  -3.824  -3.011  0.00  0.00    +0.200 C 
ENDROOT
BRANCH   1   2
ATOM      2  C   UNL     1       1.775  -4.285  -4.425  0.00  0.00    +0.065 A 
ATOM      3  C   UNL     1       2.592  -3.835  -5.451  0.00  0.00    +0.129 A 
ATOM      4  C   UNL     1       2.369  -4.258  -6.753  0.00  0.00    +0.091 A 
ATOM      5  C   UNL     1       1.328  -5.133  -7.028  0.00  0.00    +0.124 A 
ATOM      6  C   UNL     1       0.511  -5.584  -6.002  0.00  0.00    +0.091 A 
ATOM      7  C   UNL     1       0.738  -5.163  -4.700  0.00  0.00    +0.129 A 
BRANCH   7   8
ATOM      8  O   UNL     1      -0.059  -5.609  -3.693  0.00  0.00    -0.506 OA
ATOM      9  H   UNL     1      -0.912  -5.157  -3.637  0.00  0.00    +0.292 HD
ENDBRANCH   7   8
BRANCH   5  10
ATOM     10  O   UNL     1       1.108  -5.547  -8.303  0.00  0.00    -0.507 OA
ATOM     11  H   UNL     1       1.586  -6.353  -8.543  0.00  0.00    +0.292 HD
ENDBRANCH   5  10
BRANCH   3  12
ATOM     12  O   UNL     1       3.612  -2.978  -5.182  0.00  0.00    -0.506 OA
ATOM     13  H   UNL     1       4.466  -3.412  -5.049  0.00  0.00    +0.292 HD
ENDBRANCH   3  12
ENDBRANCH   1   2
BRANCH   1  14
ATOM     14  C   UNL     1       1.697  -2.357  -2.898  0.00  0.00    +0.239 C 
ATOM     15  O   UNL     1       0.841  -1.981  -2.125  0.00  0.00    -0.273 OA
ATOM     16  N   UNL     1       2.360  -1.461  -3.657  0.00  0.00    -0.308 N 
ATOM     17  H   UNL     1       2.999  -1.766  -4.319  0.00  0.00    +0.149 HD
BRANCH  16  18
ATOM     18  C   UNL     1       2.113  -0.028  -3.481  0.00  0.00    +0.030 C 
ATOM     19  C   UNL     1       0.643   0.277  -3.773  0.00  0.00    +0.031 C 
ATOM     20  C   UNL     1       2.441   0.373  -2.041  0.00  0.00    +0.031 C 
BRANCH  18  21
ATOM     21  C   UNL     1       3.000   0.764  -4.445  0.00  0.00    +0.031 C 
BRANCH  21  22
ATOM     22  C   UNL     1       4.462   0.640  -4.012  0.00  0.00    -0.036 C 
ATOM     23  C   UNL     1       4.768  -0.818  -3.662  0.00  0.00    +0.010 C 
ATOM     24  C   UNL     1       5.373   1.093  -5.155  0.00  0.00    +0.010 C 
ATOM     25  C   UNL     1       4.707   1.521  -2.785  0.00  0.00    +0.010 C 
ENDBRANCH  21  22
ENDBRANCH  18  21
ENDBRANCH  16  18
ENDBRANCH   1  14
BRANCH   1  26
ATOM     26  N   UNL     1       1.163  -4.584  -2.096  0.00  0.00    -0.274 N 
ATOM     27  C   UNL     1      -0.152  -4.300  -2.012  0.00  0.00    +0.249 C 
ATOM     28  O   UNL     1      -0.883  -5.003  -1.342  0.00  0.00    -0.270 OA
BRANCH  27  29
ATOM     29  C   UNL     1      -0.705  -3.134  -2.733  0.00  0.00    +0.055 A 
ATOM     30  C   UNL     1      -1.906  -2.545  -2.320  0.00  0.00    +0.016 A 
ATOM     31  C   UNL     1      -2.380  -1.456  -3.030  0.00  0.00    +0.020 A 
ATOM     32  C   UNL     1      -1.659  -0.988  -4.114  0.00  0.00    +0.111 A 
ATOM     33  N   UNL     1      -0.530  -1.563  -4.480  0.00  0.00    -0.263 NA
ATOM     34  C   UNL     1      -0.035  -2.599  -3.834  0.00  0.00    +0.123 A 
ENDBRANCH  27  29
BRANCH  26  35
ATOM     35  C   UNL     1       1.736  -5.651  -1.273  0.00  0.00    +0.183 C 
BRANCH  35  40
ATOM     36  C   UNL     1       4.397  -3.664   2.523  0.00  0.00    +0.086 C 
ATOM     37  C   UNL     1       3.248  -4.239   1.736  0.00  0.00    +0.102 A 
ATOM     38  C   UNL     1       1.997  -4.429   2.194  0.00  0.00    +0.045 A 
ATOM     39  C   UNL     1       1.252  -4.986   1.130  0.00  0.00    +0.046 A 
ATOM     40  C   UNL     1       2.091  -5.103   0.085  0.00  0.00    +0.122 A 
ATOM     41  O   UNL     1       3.297  -4.644   0.456  0.00  0.00    -0.463 OA
ENDBRANCH  35  40
ENDBRANCH  26  35
ENDBRANCH   1  26
TORSDOF 12
