REMARK  Name = ZINC10214891
REMARK  10 active torsions:
REMARK  status: ('A' for Active; 'I' for Inactive)
REMARK    1  A    between atoms: C_1  and  C_2
REMARK    2  A    between atoms: C_2  and  C_3
REMARK    3  A    between atoms: C_3  and  C_4
REMARK    4  A    between atoms: C_4  and  N_5
REMARK    5  A    between atoms: C_6  and  C_29
REMARK    6  A    between atoms: C_8  and  C_14
REMARK    7  A    between atoms: N_16  and  C_17
REMARK    8  A    between atoms: C_18  and  C_26
REMARK    9  A    between atoms: C_32  and  O_35
REMARK   10  A    between atoms: O_35  and  C_36
REMARK                            x       y       z     vdW  Elec       q    Type
REMARK                         _______ _______ _______ _____ _____    ______ ____
ROOT
ATOM      1  N   UNL     1       2.062  -2.265  -1.941  0.00  0.00    -0.294 N 
ATOM      2  C   UNL     1       3.321  -2.725  -2.513  0.00  0.00    +0.118 C 
ATOM      3  C   UNL     1       3.222  -2.797  -4.037  0.00  0.00    +0.101 C 
ATOM      4  C   UNL     1       1.965  -3.592  -4.410  0.00  0.00    +0.024 C 
ATOM      5  C   UNL     1       0.737  -2.778  -3.997  0.00  0.00    +0.097 C 
ATOM      6  C   UNL     1       0.891  -2.306  -2.579  0.00  0.00    +0.216 C 
ATOM      7  O   UNL     1      -0.100  -1.938  -1.985  0.00  0.00    -0.276 OA
ENDROOT
BRANCH   2   8
ATOM      8  C   UNL     1       4.420  -1.768  -2.130  0.00  0.00    -0.026 A 
ATOM      9  C   UNL     1       5.095  -1.064  -3.111  0.00  0.00    +0.009 A 
ATOM     10  C   UNL     1       6.099  -0.182  -2.762  0.00  0.00    +0.046 A 
ATOM     11  C   UNL     1       6.439  -0.011  -1.428  0.00  0.00    +0.120 A 
ATOM     12  C   UNL     1       5.764  -0.723  -0.446  0.00  0.00    +0.046 A 
ATOM     13  C   UNL     1       4.756  -1.599  -0.800  0.00  0.00    +0.009 A 
BRANCH  11  14
ATOM     14  O   UNL     1       7.431   0.851  -1.083  0.00  0.00    -0.495 OA
ATOM     15  C   UNL     1       8.082   1.550  -2.146  0.00  0.00    +0.277 C 
ENDBRANCH  11  14
ENDBRANCH   2   8
BRANCH   3  16
ATOM     16  C   UNL     1       3.126  -1.404  -4.604  0.00  0.00    +0.223 C 
ATOM     17  O   UNL     1       2.626  -0.515  -3.948  0.00  0.00    -0.275 OA
ATOM     18  N   UNL     1       3.595  -1.146  -5.841  0.00  0.00    -0.279 N 
ATOM     19  H   UNL     1       3.995  -1.857  -6.366  0.00  0.00    +0.155 HD
BRANCH  18  20
ATOM     20  C   UNL     1       3.507   0.136  -6.363  0.00  0.00    +0.084 A 
ATOM     21  C   UNL     1       3.934   0.594  -7.601  0.00  0.00    +0.068 A 
ATOM     22  C   UNL     1       3.718   1.997  -7.909  0.00  0.00    -0.023 A 
ATOM     23  C   UNL     1       3.123   2.715  -6.932  0.00  0.00    -0.004 A 
ATOM     24  S   UNL     1       2.842   1.555  -5.624  0.00  0.00    -0.077 S 
ATOM     25  C   UNL     1       2.782   4.173  -6.962  0.00  0.00    +0.043 C 
ATOM     26  C   UNL     1       3.546   4.825  -8.124  0.00  0.00    +0.005 C 
ATOM     27  C   UNL     1       3.362   3.966  -9.378  0.00  0.00    +0.005 C 
ATOM     28  C   UNL     1       4.125   2.649  -9.224  0.00  0.00    +0.037 C 
BRANCH  21  29
ATOM     29  C   UNL     1       4.577  -0.305  -8.564  0.00  0.00    +0.244 C 
ATOM     30  O   UNL     1       3.902  -0.911  -9.376  0.00  0.00    -0.270 OA
ATOM     31  N   UNL     1       5.916  -0.462  -8.551  0.00  0.00    -0.325 N 
ATOM     32  H   UNL     1       6.454   0.021  -7.904  0.00  0.00    +0.145 HD
ATOM     33  H   UNL     1       6.341  -1.056  -9.188  0.00  0.00    +0.145 HD
ENDBRANCH  21  29
ENDBRANCH  18  20
ENDBRANCH   3  16
BRANCH   1  34
ATOM     34  C   UNL     1       2.081  -1.731  -0.577  0.00  0.00    +0.108 C 
BRANCH  34  35
ATOM     35  C   UNL     1       2.429  -0.242  -0.618  0.00  0.00    +0.019 C 
BRANCH  35  37
ATOM     36  C   UNL     1       2.944   1.772   0.769  0.00  0.00    +0.004 C 
ATOM     37  C   UNL     1       2.596   0.282   0.810  0.00  0.00    -0.002 C 
ENDBRANCH  35  37
ENDBRANCH  34  35
ENDBRANCH   1  34
TORSDOF 8
