REMARK  Name = ZINC52282714
REMARK  11 active torsions:
REMARK  status: ('A' for Active; 'I' for Inactive)
REMARK    1  A    between atoms: C_1  and  C_2
REMARK    2  A    between atoms: C_5  and  C_28
REMARK    3  A    between atoms: N_8  and  C_10
REMARK    4  A    between atoms: C_10  and  C_11
REMARK    5  A    between atoms: C_11  and  C_12
REMARK    6  A    between atoms: C_12  and  C_13
REMARK    7  A    between atoms: C_13  and  N_14
REMARK    8  A    between atoms: N_14  and  C_15
REMARK    9  A    between atoms: C_18  and  N_25
REMARK   10  A    between atoms: C_20  and  S_21
REMARK   11  A    between atoms: S_21  and  N_24
REMARK                            x       y       z     vdW  Elec       q    Type
REMARK                         _______ _______ _______ _____ _____    ______ ____
ROOT
ATOM      1  N   UNL     1       6.033  -2.576   4.436  0.00  0.00    -0.342 N 
ATOM      2  H   UNL     1       5.596  -3.085   5.136  0.00  0.00    +0.146 HD
ENDROOT
BRANCH   1   3
ATOM      3  C   UNL     1       7.400  -2.302   4.521  0.00  0.00    +0.054 A 
ATOM      4  C   UNL     1       8.027  -1.569   3.522  0.00  0.00    +0.027 A 
ATOM      5  C   UNL     1       9.378  -1.299   3.610  0.00  0.00    +0.034 A 
ATOM      6  C   UNL     1      10.107  -1.757   4.692  0.00  0.00    +0.128 A 
ATOM      7  C   UNL     1       9.487  -2.487   5.688  0.00  0.00    +0.063 A 
ATOM      8  C   UNL     1       8.134  -2.756   5.609  0.00  0.00    +0.128 A 
BRANCH   8   9
ATOM      9  S   UNL     1       7.343  -3.681   6.883  0.00  0.00    +0.058 S 
ATOM     10  O   UNL     1       6.587  -4.697   6.238  0.00  0.00    -0.153 OA
ATOM     11  O   UNL     1       8.340  -3.972   7.853  0.00  0.00    -0.153 OA
BRANCH   9  12
ATOM     12  N   UNL     1       6.252  -2.672   7.615  0.00  0.00    -0.203 NA
ATOM     13  H   UNL     1       5.443  -3.035   8.008  0.00  0.00    +0.144 HD
ATOM     14  H   UNL     1       6.422  -1.718   7.650  0.00  0.00    +0.144 HD
ENDBRANCH   9  12
ENDBRANCH   8   9
BRANCH   6  15
ATOM     15  N   UNL     1      11.556  -1.466   4.783  0.00  0.00    +0.056 N 
ATOM     16  O   UNL     1      12.100  -0.828   3.912  0.00  0.00    -0.126 OA
ATOM     17  O   UNL     1      12.194  -1.866   5.728  0.00  0.00    -0.126 OA
ENDBRANCH   6  15
ENDBRANCH   1   3
BRANCH   1  18
ATOM     18  C   UNL     1       5.260  -2.096   3.288  0.00  0.00    +0.101 C 
BRANCH  18  19
ATOM     19  C   UNL     1       3.800  -2.529   3.438  0.00  0.00    +0.017 C 
BRANCH  19  20
ATOM     20  C   UNL     1       2.993  -2.028   2.239  0.00  0.00    -0.017 C 
BRANCH  20  21
ATOM     21  C   UNL     1       1.534  -2.461   2.390  0.00  0.00    -0.079 C 
BRANCH  21  27
ATOM     22  C   UNL     1      -0.019   1.526   0.010  0.00  0.00    +0.005 C 
ATOM     23  C   UNL     1       0.002  -0.004   0.002  0.00  0.00    -0.031 C 
ATOM     24  C   UNL     1      -1.434  -0.535   0.015  0.00  0.00    +0.003 C 
ATOM     25  C   UNL     1      -1.402  -2.064   0.086  0.00  0.00    -0.031 C 
ATOM     26  C   UNL     1      -0.613  -2.496   1.324  0.00  0.00    -0.076 C 
ATOM     27  N   UNL     1       0.758  -1.980   1.239  0.00  0.00    +0.380 N 
ATOM     28  C   UNL     1       0.740  -0.512   1.242  0.00  0.00    -0.076 C 
ATOM     29  C   UNL     1      -2.832  -2.602   0.177  0.00  0.00    +0.005 C 
ATOM     30  H   UNL     1       1.188  -2.307   0.386  0.00  0.00    -0.082 HD
ENDBRANCH  21  27
ENDBRANCH  20  21
ENDBRANCH  19  20
ENDBRANCH  18  19
ENDBRANCH   1  18
TORSDOF 9
