REMARK  Name = ZINC19597309
REMARK  10 active torsions:
REMARK  status: ('A' for Active; 'I' for Inactive)
REMARK    1  A    between atoms: C_1  and  C_2
REMARK    2  A    between atoms: C_2  and  C_3
REMARK    3  A    between atoms: C_2  and  N_4
REMARK    4  A    between atoms: C_11  and  C_23
REMARK    5  A    between atoms: C_13  and  C_19
REMARK    6  A    between atoms: C_13  and  C_21
REMARK    7  A    between atoms: C_14  and  N_18
REMARK    8  A    between atoms: C_15  and  C_16
REMARK    9  A    between atoms: C_26  and  O_33
REMARK   10  A    between atoms: O_33  and  C_34
REMARK                            x       y       z     vdW  Elec       q    Type
REMARK                         _______ _______ _______ _____ _____    ______ ____
ROOT
ATOM      1  N   UNL     1       1.242   2.045  -0.146  0.00  0.00    -0.296 NA
ATOM      2  C   UNL     1       1.951   1.574  -1.350  0.00  0.00    +0.112 C 
ATOM      3  C   UNL     1       2.129   0.081  -1.222  0.00  0.00    -0.006 C 
ATOM      4  C   UNL     1       1.222  -0.643  -0.593  0.00  0.00    -0.026 C 
ATOM      5  C   UNL     1      -0.041  -0.061  -0.026  0.00  0.00    +0.044 C 
ATOM      6  C   UNL     1      -0.095   1.450  -0.082  0.00  0.00    +0.094 C 
ATOM      7  C   UNL     1      -0.207  -0.585   1.402  0.00  0.00    +0.068 C 
ATOM      8  C   UNL     1      -0.368  -2.105   1.357  0.00  0.00    +0.188 C 
ATOM      9  C   UNL     1       0.713  -2.754   0.547  0.00  0.00    +0.054 C 
ATOM     10  C   UNL     1       1.457  -2.092  -0.376  0.00  0.00    +0.074 C 
ENDROOT
BRANCH   7  11
ATOM     11  C   UNL     1      -1.430   0.034   2.027  0.00  0.00    -0.033 A 
ATOM     12  C   UNL     1      -2.628  -0.017   1.382  0.00  0.00    +0.008 A 
ATOM     13  C   UNL     1      -3.770   0.548   1.942  0.00  0.00    +0.046 A 
ATOM     14  C   UNL     1      -3.722   1.171   3.157  0.00  0.00    +0.128 A 
ATOM     15  C   UNL     1      -2.499   1.243   3.853  0.00  0.00    +0.024 A 
ATOM     16  C   UNL     1      -1.340   0.661   3.282  0.00  0.00    -0.011 A 
ATOM     17  C   UNL     1      -0.118   0.738   3.973  0.00  0.00    +0.009 A 
ATOM     18  C   UNL     1      -0.067   1.358   5.183  0.00  0.00    +0.001 A 
ATOM     19  C   UNL     1      -1.208   1.926   5.747  0.00  0.00    +0.001 A 
ATOM     20  C   UNL     1      -2.407   1.875   5.104  0.00  0.00    +0.012 A 
BRANCH  14  21
ATOM     21  O   UNL     1      -4.845   1.718   3.690  0.00  0.00    -0.495 OA
ATOM     22  C   UNL     1      -6.047   1.606   2.925  0.00  0.00    +0.277 C 
ENDBRANCH  14  21
ENDBRANCH   7  11
BRANCH   1  24
ATOM     23  C   UNL     1       2.582   4.093  -0.062  0.00  0.00    +0.024 C 
ATOM     24  C   UNL     1       1.168   3.511  -0.119  0.00  0.00    +0.051 C 
ATOM     25  C   UNL     1       0.463   4.010  -1.382  0.00  0.00    +0.024 C 
ENDBRANCH   1  24
BRANCH   9  26
ATOM     26  N   UNL     1       0.962  -4.083   0.747  0.00  0.00    -0.358 N 
ATOM     27  H   UNL     1       1.749  -4.588   0.168  0.00  0.00    +0.142 HD
ATOM     28  H   UNL     1       0.376  -4.647   1.487  0.00  0.00    +0.142 HD
ENDBRANCH   9  26
BRANCH  10  29
ATOM     29  C   UNL     1       2.458  -2.785  -1.130  0.00  0.00    +0.101 C 
ATOM     30  N   UNL     1       3.252  -3.334  -1.729  0.00  0.00    -0.191 NA
ENDBRANCH  10  29
BRANCH   8  31
ATOM     31  C   UNL     1      -1.675  -2.432   0.763  0.00  0.00    +0.091 C 
ATOM     32  N   UNL     1      -2.683  -2.684   0.305  0.00  0.00    -0.194 NA
ENDBRANCH   8  31
BRANCH   8  33
ATOM     33  C   UNL     1      -0.321  -2.631   2.731  0.00  0.00    +0.091 C 
ATOM     34  N   UNL     1      -0.283  -3.038   3.791  0.00  0.00    -0.194 NA
ENDBRANCH   8  33
TORSDOF 7
