REMARK  Name = ZINC04165426
REMARK  5 active torsions:
REMARK  status: ('A' for Active; 'I' for Inactive)
REMARK    1  A    between atoms: C_1  and  C_2
REMARK    2  A    between atoms: C_5  and  N_9
REMARK    3  A    between atoms: C_7  and  C_8
REMARK    4  A    between atoms: N_9  and  C_10
REMARK    5  A    between atoms: C_18  and  C_20
REMARK                            x       y       z     vdW  Elec       q    Type
REMARK                         _______ _______ _______ _____ _____    ______ ____
ROOT
ATOM      1  N   UNL     1       2.962  -1.802   2.709  0.00  0.00    -0.262 N 
ATOM      2  C   UNL     1       2.830  -0.516   2.330  0.00  0.00    +0.227 C 
ATOM      3  O   UNL     1       3.292   0.370   3.017  0.00  0.00    -0.275 OA
ENDROOT
BRANCH   2   4
ATOM      4  C   UNL     1       2.108  -0.178   1.051  0.00  0.00    +0.048 C 
ATOM      5  C   UNL     1       0.719  -0.820   1.065  0.00  0.00    +0.019 C 
ATOM      6  C   UNL     1      -0.014  -0.477  -0.234  0.00  0.00    -0.009 C 
ATOM      7  C   UNL     1      -0.155   1.042  -0.355  0.00  0.00    +0.007 C 
ATOM      8  C   UNL     1       1.234   1.683  -0.369  0.00  0.00    -0.009 C 
ATOM      9  C   UNL     1       1.967   1.340   0.930  0.00  0.00    +0.019 C 
ATOM     10  C   UNL     1       2.031   1.148  -1.560  0.00  0.00    +0.007 C 
ATOM     11  C   UNL     1       2.171  -0.370  -1.440  0.00  0.00    -0.009 C 
ATOM     12  C   UNL     1       0.782  -1.012  -1.426  0.00  0.00    +0.007 C 
ATOM     13  C   UNL     1       2.905  -0.713  -0.141  0.00  0.00    +0.019 C 
ENDBRANCH   2   4
BRANCH   1  18
ATOM     14  C   UNL     1       5.322  -3.054   7.715  0.00  0.00    +0.044 C 
ATOM     15  C   UNL     1       4.695  -2.721   6.385  0.00  0.00    -0.047 A 
ATOM     16  C   UNL     1       4.129  -3.724   5.619  0.00  0.00    +0.005 A 
ATOM     17  C   UNL     1       3.549  -3.422   4.403  0.00  0.00    +0.024 A 
ATOM     18  C   UNL     1       3.544  -2.111   3.944  0.00  0.00    +0.037 A 
ATOM     19  C   UNL     1       4.113  -1.106   4.716  0.00  0.00    +0.027 A 
ATOM     20  C   UNL     1       4.686  -1.414   5.934  0.00  0.00    -0.046 A 
ATOM     21  C   UNL     1       5.304  -0.325   6.772  0.00  0.00    +0.044 C 
ENDBRANCH   1  18
BRANCH   1  22
ATOM     22  C   UNL     1       2.498  -2.877   1.829  0.00  0.00    +0.127 C 
ATOM     23  C   UNL     1       1.328  -3.631   2.517  0.00  0.00    +0.198 C 
ATOM     24  S   UNL     1       1.709  -5.335   1.928  0.00  0.00    -0.008 S 
ATOM     25  O   UNL     1       1.673  -6.267   3.000  0.00  0.00    -0.170 OA
ATOM     26  O   UNL     1       1.066  -5.604   0.690  0.00  0.00    -0.170 OA
ATOM     27  C   UNL     1       3.435  -5.101   1.542  0.00  0.00    +0.132 C 
ATOM     28  C   UNL     1       3.632  -3.810   1.549  0.00  0.00    +0.016 C 
ENDBRANCH   1  22
TORSDOF 3
