REMARK  Name = ZINC32930270
REMARK  9 active torsions:
REMARK  status: ('A' for Active; 'I' for Inactive)
REMARK    1  A    between atoms: C_1  and  C_2
REMARK    2  A    between atoms: N_8  and  C_9
REMARK    3  A    between atoms: C_9  and  C_10
REMARK    4  A    between atoms: C_13  and  C_16
REMARK    5  A    between atoms: C_16  and  N_17
REMARK    6  A    between atoms: C_18  and  C_20
REMARK    7  A    between atoms: C_20  and  C_21
REMARK    8  A    between atoms: C_21  and  C_22
REMARK    9  A    between atoms: C_25  and  C_28
REMARK                            x       y       z     vdW  Elec       q    Type
REMARK                         _______ _______ _______ _____ _____    ______ ____
ROOT
ATOM      1  C   UNL     1       5.665   3.967  -0.274  0.00  0.00    -0.064 A 
ATOM      2  C   UNL     1       4.929   3.503   0.801  0.00  0.00    +0.002 A 
ATOM      3  C   UNL     1       3.919   2.582   0.600  0.00  0.00    +0.005 A 
ATOM      4  C   UNL     1       3.644   2.125  -0.675  0.00  0.00    -0.030 A 
ATOM      5  C   UNL     1       4.383   2.585  -1.749  0.00  0.00    +0.005 A 
ATOM      6  C   UNL     1       5.390   3.510  -1.549  0.00  0.00    +0.002 A 
ENDROOT
BRANCH   1   7
ATOM      7  C   UNL     1       6.767   4.972  -0.054  0.00  0.00    -0.043 C 
BRANCH   7  14
ATOM      8  C   UNL     1       9.087   6.141  -1.135  0.00  0.00    -0.013 C 
ATOM      9  C   UNL     1       9.170   5.224   0.087  0.00  0.00    -0.071 C 
ATOM     10  C   UNL     1      10.495   4.459   0.060  0.00  0.00    -0.016 C 
ATOM     11  C   UNL     1      10.566   3.528   1.274  0.00  0.00    -0.003 C 
ATOM     12  C   UNL     1       9.364   2.578   1.249  0.00  0.00    -0.019 C 
ATOM     13  C   UNL     1       8.072   3.398   1.241  0.00  0.00    -0.078 C 
ATOM     14  N   UNL     1       8.053   4.272   0.061  0.00  0.00    +0.384 N 
ATOM     15  H   UNL     1       8.174   3.637  -0.829  0.00  0.00    -0.081 HD
ENDBRANCH   7  14
ENDBRANCH   1   7
BRANCH   4  16
ATOM     16  C   UNL     1       2.542   1.120  -0.894  0.00  0.00    +0.139 C 
BRANCH  16  17
ATOM     17  N   UNL     1       1.281   1.823  -1.139  0.00  0.00    -0.311 N 
ATOM     18  C   UNL     1       0.151   1.123  -1.363  0.00  0.00    +0.214 C 
ATOM     19  O   UNL     1       0.179  -0.089  -1.361  0.00  0.00    -0.276 OA
ATOM     20  H   UNL     1       1.256   2.923  -1.140  0.00  0.00    +0.149 HD
BRANCH  18  21
ATOM     21  C   UNL     1      -1.145   1.847  -1.620  0.00  0.00    +0.100 C 
BRANCH  21  22
ATOM     22  C   UNL     1      -2.263   0.827  -1.848  0.00  0.00    +0.044 C 
BRANCH  22  23
ATOM     23  C   UNL     1      -3.559   1.551  -2.106  0.00  0.00    -0.047 A 
ATOM     24  C   UNL     1      -4.390   1.873  -1.048  0.00  0.00    +0.005 A 
ATOM     25  C   UNL     1      -5.576   2.540  -1.276  0.00  0.00    +0.019 A 
ATOM     26  C   UNL     1      -5.942   2.881  -2.579  0.00  0.00    +0.052 A 
ATOM     27  C   UNL     1      -5.101   2.548  -3.643  0.00  0.00    +0.019 A 
ATOM     28  C   UNL     1      -3.915   1.886  -3.400  0.00  0.00    +0.005 A 
BRANCH  26  29
ATOM     29  C   UNL     1      -7.173   3.569  -2.824  0.00  0.00    +0.099 C 
ATOM     30  N   UNL     1      -8.151   4.114  -3.019  0.00  0.00    -0.191 NA
ENDBRANCH  26  29
ENDBRANCH  22  23
ENDBRANCH  21  22
ENDBRANCH  18  21
ENDBRANCH  16  17
ENDBRANCH   4  16
TORSDOF 8
