REMARK  Name = ZINC39600841
REMARK  7 active torsions:
REMARK  status: ('A' for Active; 'I' for Inactive)
REMARK    1  A    between atoms: C_1  and  C_2
REMARK    2  A    between atoms: C_2  and  C_3
REMARK    3  A    between atoms: C_3  and  C_5
REMARK    4  A    between atoms: C_3  and  C_11
REMARK    5  A    between atoms: C_15  and  C_24
REMARK    6  A    between atoms: N_26  and  C_27
REMARK    7  A    between atoms: C_27  and  C_28
REMARK                            x       y       z     vdW  Elec       q    Type
REMARK                         _______ _______ _______ _____ _____    ______ ____
ROOT
ATOM      1  C   UNL     1       0.657  -2.160  -1.300  0.00  0.00    +0.223 C 
ATOM      2  O   UNL     1       1.654  -2.847  -1.365  0.00  0.00    -0.275 OA
ATOM      3  N   UNL     1      -0.562  -2.729  -1.385  0.00  0.00    -0.300 N 
ATOM      4  C   UNL     1      -1.883  -2.060  -1.334  0.00  0.00    +0.121 C 
ATOM      5  C   UNL     1      -2.737  -2.801  -2.386  0.00  0.00    +0.100 C 
ATOM      6  C   UNL     1      -2.078  -4.183  -2.524  0.00  0.00    -0.004 C 
ATOM      7  C   UNL     1      -0.883  -4.166  -1.560  0.00  0.00    +0.115 C 
ATOM      8  C   UNL     1      -3.062  -5.280  -2.129  0.00  0.00    -0.010 C 
ATOM      9  C   UNL     1      -2.402  -6.648  -2.330  0.00  0.00    -0.082 C 
ATOM     10  N   UNL     1      -2.007  -6.801  -3.735  0.00  0.00    +0.379 N 
ATOM     11  C   UNL     1      -0.991  -5.799  -4.081  0.00  0.00    -0.082 C 
ATOM     12  C   UNL     1      -1.591  -4.396  -3.954  0.00  0.00    -0.010 C 
ATOM     13  H   UNL     1      -1.628  -7.725  -3.878  0.00  0.00    -0.086 HD
ATOM     14  H   UNL     1      -2.815  -6.676  -4.326  0.00  0.00    -0.086 HD
ENDROOT
BRANCH   5  15
ATOM     15  C   UNL     1      -4.158  -2.941  -1.904  0.00  0.00    +0.218 C 
ATOM     16  O   UNL     1      -4.389  -3.034  -0.717  0.00  0.00    -0.275 OA
ATOM     17  N   UNL     1      -5.172  -2.963  -2.792  0.00  0.00    -0.311 N 
ATOM     18  H   UNL     1      -4.987  -2.889  -3.741  0.00  0.00    +0.149 HD
BRANCH  17  19
ATOM     19  C   UNL     1      -6.553  -3.099  -2.323  0.00  0.00    +0.142 C 
BRANCH  19  20
ATOM     20  C   UNL     1      -7.488  -3.097  -3.505  0.00  0.00    +0.006 A 
ATOM     21  C   UNL     1      -8.165  -1.942  -3.849  0.00  0.00    +0.023 A 
ATOM     22  C   UNL     1      -9.022  -1.939  -4.934  0.00  0.00    +0.018 A 
ATOM     23  C   UNL     1      -9.203  -3.092  -5.676  0.00  0.00    +0.018 A 
ATOM     24  C   UNL     1      -8.527  -4.248  -5.334  0.00  0.00    +0.040 A 
ATOM     25  C   UNL     1      -7.664  -4.250  -4.251  0.00  0.00    +0.128 A 
ATOM     26  F   UNL     1      -6.998  -5.377  -3.919  0.00  0.00    -0.205 F 
ATOM     27 BR   UNL     1      -9.948  -0.358  -5.403  0.00  0.00    -0.050 Br
ENDBRANCH  19  20
ENDBRANCH  17  19
ENDBRANCH   5  15
BRANCH   1  28
ATOM     28  C   UNL     1       0.781  -0.668  -1.122  0.00  0.00    +0.105 C 
BRANCH  28  29
ATOM     29  C   UNL     1       2.238  -0.290  -1.055  0.00  0.00    -0.036 A 
ATOM     30  C   UNL     1       3.044  -0.817  -0.064  0.00  0.00    +0.004 A 
ATOM     31  C   UNL     1       4.380  -0.469  -0.002  0.00  0.00    +0.000 A 
ATOM     32  C   UNL     1       4.911   0.405  -0.932  0.00  0.00    +0.000 A 
ATOM     33  C   UNL     1       4.105   0.931  -1.925  0.00  0.00    +0.000 A 
ATOM     34  C   UNL     1       2.770   0.580  -1.989  0.00  0.00    +0.004 A 
ENDBRANCH  28  29
BRANCH  28  36
ATOM     35  C   UNL     1       0.102   1.276   0.292  0.00  0.00    +0.005 C 
ATOM     36  C   UNL     1       0.085  -0.249   0.174  0.00  0.00    +0.014 C 
ENDBRANCH  28  36
ENDBRANCH   1  28
TORSDOF 6
