REMARK  Name = ZINC63221851
REMARK  5 active torsions:
REMARK  status: ('A' for Active; 'I' for Inactive)
REMARK    1  A    between atoms: C_4  and  C_7
REMARK    2  A    between atoms: C_8  and  C_18
REMARK    3  A    between atoms: N_10  and  C_12
REMARK    4  A    between atoms: N_19  and  N_20
REMARK    5  A    between atoms: C_21  and  C_23
REMARK                            x       y       z     vdW  Elec       q    Type
REMARK                         _______ _______ _______ _____ _____    ______ ____
ROOT
ATOM      1  C   UNL     1       3.694  -0.682  -0.033  0.00  0.00    +0.058 C 
ATOM      2  C   UNL     1       3.824  -2.034   0.044  0.00  0.00    +0.014 C 
ATOM      3  C   UNL     1       5.305  -2.337  -0.017  0.00  0.00    +0.166 C 
ATOM      4  N   UNL     1       5.952  -1.021  -0.135  0.00  0.00    -0.249 N 
ATOM      5  N   UNL     1       4.924  -0.071  -0.145  0.00  0.00    -0.263 N 
ATOM      6  H   UNL     1       5.059   0.887  -0.218  0.00  0.00    +0.170 HD
ENDROOT
BRANCH   1  10
ATOM      7  C   UNL     1      -0.014   1.383   0.040  0.00  0.00    +0.000 A 
ATOM      8  C   UNL     1       0.241   0.392   0.972  0.00  0.00    +0.001 A 
ATOM      9  C   UNL     1       1.443  -0.283   0.954  0.00  0.00    +0.010 A 
ATOM     10  C   UNL     1       2.405   0.035  -0.008  0.00  0.00    -0.002 A 
ATOM     11  C   UNL     1       2.140   1.036  -0.946  0.00  0.00    +0.010 A 
ATOM     12  C   UNL     1       0.933   1.703  -0.916  0.00  0.00    +0.001 A 
ENDBRANCH   1  10
BRANCH   4  13
ATOM     13  C   UNL     1       7.323  -0.769  -0.226  0.00  0.00    +0.048 A 
ATOM     14  C   UNL     1       8.227  -1.824  -0.215  0.00  0.00    +0.025 A 
ATOM     15  C   UNL     1       9.582  -1.571  -0.305  0.00  0.00    +0.002 A 
ATOM     16  C   UNL     1      10.039  -0.270  -0.406  0.00  0.00    +0.000 A 
ATOM     17  C   UNL     1       9.142   0.782  -0.417  0.00  0.00    +0.002 A 
ATOM     18  C   UNL     1       7.785   0.536  -0.333  0.00  0.00    +0.025 A 
ENDBRANCH   4  13
BRANCH   2  19
ATOM     19  C   UNL     1       2.779  -2.972   0.161  0.00  0.00    +0.137 C 
ATOM     20  N   UNL     1       3.054  -4.239   0.331  0.00  0.00    -0.188 NA
BRANCH  20  21
ATOM     21  N   UNL     1       2.020  -5.184   0.341  0.00  0.00    -0.203 N 
ATOM     22  C   UNL     1       2.310  -6.498   0.415  0.00  0.00    +0.262 C 
ATOM     23  O   UNL     1       3.464  -6.860   0.565  0.00  0.00    -0.269 OA
ATOM     24  H   UNL     1       1.096  -4.893   0.295  0.00  0.00    +0.178 HD
BRANCH  22  25
ATOM     25  C   UNL     1       1.239  -7.490   0.315  0.00  0.00    +0.044 C 
ATOM     26  C   UNL     1       1.366  -8.864   0.377  0.00  0.00    +0.008 A 
ATOM     27  C   UNL     1       2.482  -9.721   0.544  0.00  0.00    +0.010 A 
ATOM     28  C   UNL     1       2.313 -11.062   0.568  0.00  0.00    +0.001 A 
ATOM     29  C   UNL     1       1.054 -11.664   0.431  0.00  0.00    +0.002 A 
ATOM     30  C   UNL     1      -0.073 -10.935   0.267  0.00  0.00    +0.026 A 
ATOM     31  C   UNL     1       0.022  -9.469   0.230  0.00  0.00    +0.043 A 
ATOM     32  N   UNL     1      -0.885  -8.540   0.087  0.00  0.00    -0.380 N 
ATOM     33  C   UNL     1      -0.238  -7.224   0.130  0.00  0.00    +0.154 C 
ATOM     34  H   UNL     1      -1.835  -8.695  -0.026  0.00  0.00    +0.160 HD
ENDBRANCH  22  25
ENDBRANCH  20  21
ENDBRANCH   2  19
TORSDOF 5
