REMARK  Name = ZINC36567723
REMARK  17 active torsions:
REMARK  status: ('A' for Active; 'I' for Inactive)
REMARK    1  A    between atoms: C_1  and  C_2
REMARK    2  A    between atoms: C_2  and  C_3
REMARK    3  A    between atoms: C_3  and  N_4
REMARK    4  A    between atoms: N_4  and  C_5
REMARK    5  A    between atoms: C_5  and  C_7
REMARK    6  A    between atoms: C_5  and  C_14
REMARK    7  A    between atoms: C_12  and  O_13
REMARK    8  A    between atoms: N_16  and  C_17
REMARK    9  A    between atoms: C_17  and  C_18
REMARK   10  A    between atoms: C_17  and  C_19
REMARK   11  A    between atoms: C_17  and  C_20
REMARK   12  A    between atoms: C_20  and  C_21
REMARK   13  A    between atoms: C_21  and  C_22
REMARK   14  A    between atoms: C_21  and  C_23
REMARK   15  A    between atoms: C_21  and  C_24
REMARK   16  A    between atoms: C_25  and  C_27
REMARK   17  A    between atoms: C_32  and  O_33
REMARK                            x       y       z     vdW  Elec       q    Type
REMARK                         _______ _______ _______ _____ _____    ______ ____
ROOT
ATOM      1  C   UNL     1       0.214  -1.691   1.287  0.00  0.00    +0.196 C 
ENDROOT
BRANCH   1   2
ATOM      2  C   UNL     1      -0.828  -1.175   2.245  0.00  0.00    +0.023 A 
ATOM      3  C   UNL     1      -0.472  -0.834   3.536  0.00  0.00    +0.009 A 
ATOM      4  C   UNL     1      -1.428  -0.361   4.416  0.00  0.00    +0.001 A 
ATOM      5  C   UNL     1      -2.742  -0.229   4.007  0.00  0.00    +0.004 A 
ATOM      6  C   UNL     1      -3.103  -0.569   2.718  0.00  0.00    +0.046 A 
ATOM      7  C   UNL     1      -2.145  -1.038   1.831  0.00  0.00    +0.122 A 
BRANCH   7   8
ATOM      8  O   UNL     1      -2.497  -1.368   0.560  0.00  0.00    -0.506 OA
ATOM      9  H   UNL     1      -2.839  -2.268   0.468  0.00  0.00    +0.292 HD
ENDBRANCH   7   8
ENDBRANCH   1   2
BRANCH   1  10
ATOM     10  C   UNL     1       1.406  -2.190   2.062  0.00  0.00    +0.239 C 
ATOM     11  O   UNL     1       2.473  -1.621   1.966  0.00  0.00    -0.273 OA
ATOM     12  N   UNL     1       1.287  -3.268   2.862  0.00  0.00    -0.308 N 
ATOM     13  H   UNL     1       0.456  -3.768   2.881  0.00  0.00    +0.149 HD
BRANCH  12  14
ATOM     14  C   UNL     1       2.412  -3.684   3.703  0.00  0.00    +0.030 C 
ATOM     15  C   UNL     1       3.448  -4.413   2.845  0.00  0.00    +0.031 C 
ATOM     16  C   UNL     1       3.055  -2.451   4.341  0.00  0.00    +0.031 C 
BRANCH  14  17
ATOM     17  C   UNL     1       1.908  -4.623   4.801  0.00  0.00    +0.031 C 
BRANCH  17  18
ATOM     18  C   UNL     1       0.577  -4.102   5.346  0.00  0.00    -0.036 C 
ATOM     19  C   UNL     1      -0.540  -4.412   4.347  0.00  0.00    +0.010 C 
ATOM     20  C   UNL     1       0.270  -4.784   6.681  0.00  0.00    +0.010 C 
ATOM     21  C   UNL     1       0.668  -2.589   5.555  0.00  0.00    +0.010 C 
ENDBRANCH  17  18
ENDBRANCH  14  17
ENDBRANCH  12  14
ENDBRANCH   1  10
BRANCH   1  22
ATOM     22  N   UNL     1       0.632  -0.610   0.391  0.00  0.00    -0.282 N 
ATOM     23  C   UNL     1       1.198  -0.899  -0.797  0.00  0.00    +0.251 C 
ATOM     24  O   UNL     1       1.500  -0.003  -1.561  0.00  0.00    -0.270 OA
BRANCH  23  25
ATOM     25  C   UNL     1       1.453  -2.304  -1.170  0.00  0.00    +0.078 A 
ATOM     26  C   UNL     1       1.237  -3.327  -0.243  0.00  0.00    +0.017 A 
ATOM     27  C   UNL     1       1.476  -4.637  -0.598  0.00  0.00    +0.001 A 
ATOM     28  C   UNL     1       1.931  -4.945  -1.870  0.00  0.00    +0.004 A 
ATOM     29  C   UNL     1       2.148  -3.943  -2.795  0.00  0.00    +0.046 A 
ATOM     30  C   UNL     1       1.908  -2.620  -2.457  0.00  0.00    +0.129 A 
BRANCH  30  31
ATOM     31  O   UNL     1       2.116  -1.636  -3.367  0.00  0.00    -0.506 OA
ATOM     32  H   UNL     1       3.012  -1.272  -3.355  0.00  0.00    +0.292 HD
ENDBRANCH  30  31
ENDBRANCH  23  25
BRANCH  22  33
ATOM     33  C   UNL     1       0.433   0.787   0.787  0.00  0.00    +0.109 C 
BRANCH  33  35
ATOM     34  C   UNL     1       1.549   2.811   1.736  0.00  0.00    +0.005 C 
ATOM     35  C   UNL     1       1.712   1.320   1.436  0.00  0.00    +0.016 C 
ENDBRANCH  33  35
ENDBRANCH  22  33
ENDBRANCH   1  22
TORSDOF 11
