REMARK  Name = ZINC38609905
REMARK  10 active torsions:
REMARK  status: ('A' for Active; 'I' for Inactive)
REMARK    1  A    between atoms: C_1  and  C_2
REMARK    2  A    between atoms: C_2  and  C_3
REMARK    3  A    between atoms: C_3  and  C_4
REMARK    4  A    between atoms: C_4  and  O_5
REMARK    5  A    between atoms: O_5  and  C_6
REMARK    6  A    between atoms: C_9  and  C_12
REMARK    7  A    between atoms: C_15  and  C_30
REMARK    8  A    between atoms: N_22  and  C_23
REMARK    9  A    between atoms: C_23  and  C_24
REMARK   10  A    between atoms: C_35  and  O_36
REMARK                            x       y       z     vdW  Elec       q    Type
REMARK                         _______ _______ _______ _____ _____    ______ ____
ROOT
ATOM      1  C   UNL     1      -3.433  -8.117  -0.015  0.00  0.00    +0.142 C 
ATOM      2  C   UNL     1      -3.876  -8.599  -1.369  0.00  0.00    +0.035 A 
ATOM      3  C   UNL     1      -3.591  -8.703  -2.735  0.00  0.00    +0.102 A 
ATOM      4  N   UNL     1      -4.600  -9.335  -3.301  0.00  0.00    -0.173 NA
ATOM      5  N   UNL     1      -5.493  -9.640  -2.429  0.00  0.00    -0.272 N 
ATOM      6  H   UNL     1      -6.321 -10.108  -2.620  0.00  0.00    +0.189 HD
ATOM      7  C   UNL     1      -5.103  -9.207  -1.193  0.00  0.00    +0.126 A 
ATOM      8  C   UNL     1      -5.462  -9.132   0.227  0.00  0.00    +0.266 C 
ATOM      9  O   UNL     1      -6.486  -9.577   0.709  0.00  0.00    -0.268 OA
ATOM     10  N   UNL     1      -4.497  -8.500   0.922  0.00  0.00    -0.281 N 
ENDROOT
BRANCH   1  14
ATOM     11  C   UNL     1      -2.960  -3.870  -0.046  0.00  0.00    +0.121 A 
ATOM     12  C   UNL     1      -4.216  -4.431  -0.229  0.00  0.00    +0.046 A 
ATOM     13  C   UNL     1      -4.366  -5.804  -0.219  0.00  0.00    +0.009 A 
ATOM     14  C   UNL     1      -3.266  -6.619  -0.026  0.00  0.00    -0.022 A 
ATOM     15  C   UNL     1      -2.014  -6.063   0.158  0.00  0.00    +0.009 A 
ATOM     16  C   UNL     1      -1.857  -4.691   0.142  0.00  0.00    +0.046 A 
BRANCH  11  17
ATOM     17  O   UNL     1      -2.810  -2.519  -0.056  0.00  0.00    -0.492 OA
BRANCH  17  18
ATOM     18  C   UNL     1      -3.989  -1.737  -0.255  0.00  0.00    +0.229 C 
BRANCH  18  19
ATOM     19  C   UNL     1      -3.624  -0.251  -0.235  0.00  0.00    +0.041 C 
BRANCH  19  21
ATOM     20  C   UNL     1      -4.521   2.073  -0.429  0.00  0.00    +0.004 C 
ATOM     21  C   UNL     1      -4.886   0.587  -0.448  0.00  0.00    -0.000 C 
ENDBRANCH  19  21
ENDBRANCH  18  19
ENDBRANCH  17  18
ENDBRANCH  11  17
ENDBRANCH   1  14
BRANCH   3  22
ATOM     22  C   UNL     1      -2.376  -8.195  -3.420  0.00  0.00    +0.044 A 
ATOM     23  C   UNL     1      -1.328  -7.657  -2.678  0.00  0.00    +0.014 A 
ATOM     24  C   UNL     1      -0.200  -7.186  -3.320  0.00  0.00    +0.001 A 
ATOM     25  C   UNL     1      -0.107  -7.246  -4.699  0.00  0.00    +0.004 A 
ATOM     26  C   UNL     1      -1.142  -7.778  -5.445  0.00  0.00    +0.046 A 
ATOM     27  C   UNL     1      -2.277  -8.260  -4.813  0.00  0.00    +0.126 A 
BRANCH  27  28
ATOM     28  O   UNL     1      -3.292  -8.789  -5.545  0.00  0.00    -0.506 OA
ATOM     29  H   UNL     1      -3.956  -8.143  -5.820  0.00  0.00    +0.292 HD
ENDBRANCH  27  28
ENDBRANCH   3  22
BRANCH  10  30
ATOM     30  C   UNL     1      -4.507  -8.239   2.364  0.00  0.00    +0.145 C 
BRANCH  30  31
ATOM     31  C   UNL     1      -5.159  -6.907   2.629  0.00  0.00    -0.012 A 
ATOM     32  C   UNL     1      -4.400  -5.747   2.656  0.00  0.00    +0.008 A 
ATOM     33  C   UNL     1      -5.043  -4.543   2.904  0.00  0.00    +0.020 A 
ATOM     34  C   UNL     1      -6.409  -4.540   3.114  0.00  0.00    +0.111 A 
ATOM     35  N   UNL     1      -7.099  -5.664   3.081  0.00  0.00    -0.263 NA
ATOM     36  C   UNL     1      -6.522  -6.825   2.842  0.00  0.00    +0.115 A 
ENDBRANCH  30  31
ENDBRANCH  10  30
TORSDOF 9
