REMARK  Name = ZINC63843769
REMARK  4 active torsions:
REMARK  status: ('A' for Active; 'I' for Inactive)
REMARK    1  A    between atoms: C_7  and  C_10
REMARK    2  A    between atoms: C_10  and  C_11
REMARK    3  A    between atoms: N_15  and  C_19
REMARK    4  A    between atoms: C_19  and  C_20
REMARK                            x       y       z     vdW  Elec       q    Type
REMARK                         _______ _______ _______ _____ _____    ______ ____
ROOT
ATOM      1  C   UNL     1      -0.561  -3.473  -1.856  0.00  0.00    +0.165 C 
ATOM      2  C   UNL     1      -1.245  -4.812  -2.049  0.00  0.00    +0.244 C 
ATOM      3  O   UNL     1      -2.434  -5.017  -2.165  0.00  0.00    -0.273 OA
ATOM      4  N   UNL     1      -0.256  -5.728  -2.064  0.00  0.00    -0.220 N 
ATOM      5  C   UNL     1       0.945  -5.159  -1.910  0.00  0.00    +0.309 C 
ATOM      6  O   UNL     1       1.990  -5.780  -1.891  0.00  0.00    -0.252 OA
ATOM      7  N   UNL     1       0.869  -3.819  -1.779  0.00  0.00    -0.287 N 
ATOM      8  H   UNL     1       1.609  -3.203  -1.659  0.00  0.00    +0.151 HD
ENDROOT
BRANCH   1   9
ATOM      9  C   UNL     1      -1.026  -2.814  -0.556  0.00  0.00    +0.065 C 
BRANCH   9  16
ATOM     10  C   UNL     1      -2.449   1.405  -1.663  0.00  0.00    +0.001 A 
ATOM     11  C   UNL     1      -1.518   2.409  -1.364  0.00  0.00    +0.002 A 
ATOM     12  C   UNL     1      -0.319   2.148  -0.802  0.00  0.00    +0.026 A 
ATOM     13  C   UNL     1       0.051   0.811  -0.487  0.00  0.00    +0.043 A 
ATOM     14  N   UNL     1       1.136   0.309   0.051  0.00  0.00    -0.380 N 
ATOM     15  C   UNL     1       0.981  -1.146   0.146  0.00  0.00    +0.144 C 
ATOM     16  C   UNL     1      -0.385  -1.456  -0.424  0.00  0.00    -0.039 C 
ATOM     17  C   UNL     1      -0.915  -0.268  -0.793  0.00  0.00    -0.001 A 
ATOM     18  C   UNL     1      -2.198   0.102  -1.404  0.00  0.00    +0.010 A 
ATOM     19  H   UNL     1       1.912   0.816   0.337  0.00  0.00    +0.160 HD
ENDBRANCH   9  16
ENDBRANCH   1   9
BRANCH   4  20
ATOM     20  C   UNL     1      -0.470  -7.167  -2.229  0.00  0.00    +0.154 C 
BRANCH  20  21
ATOM     21  C   UNL     1      -0.830  -7.777  -0.899  0.00  0.00    -0.012 A 
ATOM     22  C   UNL     1      -2.158  -7.929  -0.546  0.00  0.00    +0.055 A 
ATOM     23  C   UNL     1      -2.492  -8.489   0.676  0.00  0.00    +0.167 A 
ATOM     24  C   UNL     1      -1.486  -8.899   1.548  0.00  0.00    +0.167 A 
ATOM     25  C   UNL     1      -0.157  -8.745   1.188  0.00  0.00    +0.065 A 
ATOM     26  C   UNL     1       0.169  -8.190  -0.036  0.00  0.00    +0.026 A 
ATOM     27 BR   UNL     1       1.984  -7.988  -0.527  0.00  0.00    -0.050 Br
ATOM     28  O   UNL     1      -2.066  -9.412   2.672  0.00  0.00    -0.453 OA
ATOM     29  C   UNL     1      -3.425  -8.938   2.654  0.00  0.00    +0.466 C 
ATOM     30  O   UNL     1      -3.701  -8.744   1.254  0.00  0.00    -0.453 OA
ENDBRANCH  20  21
ENDBRANCH   4  20
TORSDOF 4
