REMARK  Name = ZINC46650972
REMARK  8 active torsions:
REMARK  status: ('A' for Active; 'I' for Inactive)
REMARK    1  A    between atoms: C_1  and  C_2
REMARK    2  A    between atoms: C_10  and  C_11
REMARK    3  A    between atoms: C_11  and  C_13
REMARK    4  A    between atoms: C_11  and  N_14
REMARK    5  A    between atoms: C_15  and  C_17
REMARK    6  A    between atoms: C_24  and  C_31
REMARK    7  A    between atoms: N_26  and  S_27
REMARK    8  A    between atoms: S_27  and  C_30
REMARK                            x       y       z     vdW  Elec       q    Type
REMARK                         _______ _______ _______ _____ _____    ______ ____
ROOT
ATOM      1  N   UNL     1      -0.928  -1.145   3.277  0.00  0.00    -0.302 N 
ATOM      2  C   UNL     1      -1.473  -0.636   4.399  0.00  0.00    +0.245 C 
ATOM      3  O   UNL     1      -1.169   0.481   4.770  0.00  0.00    -0.270 OA
ATOM      4  H   UNL     1      -1.171  -2.037   2.981  0.00  0.00    +0.150 HD
ENDROOT
BRANCH   2   5
ATOM      5  C   UNL     1      -2.439  -1.435   5.178  0.00  0.00    +0.037 A 
ATOM      6  C   UNL     1      -2.787  -2.722   4.760  0.00  0.00    +0.015 A 
ATOM      7  C   UNL     1      -3.686  -3.463   5.487  0.00  0.00    +0.026 A 
ATOM      8  C   UNL     1      -4.261  -2.939   6.651  0.00  0.00    +0.054 A 
ATOM      9  C   UNL     1      -3.912  -1.659   7.063  0.00  0.00    -0.022 A 
ATOM     10  C   UNL     1      -3.007  -0.912   6.343  0.00  0.00    +0.018 A 
ATOM     11  C   UNL     1      -4.669  -1.341   8.334  0.00  0.00    +0.061 C 
ATOM     12  C   UNL     1      -5.504  -2.603   8.608  0.00  0.00    +0.099 C 
ATOM     13  N   UNL     1      -5.181  -3.523   7.515  0.00  0.00    -0.204 N 
ATOM     14  C   UNL     1      -5.114  -3.216   9.954  0.00  0.00    +0.030 C 
BRANCH  13  15
ATOM     15  S   UNL     1      -5.818  -5.040   7.334  0.00  0.00    +0.043 S 
ATOM     16  O   UNL     1      -7.074  -4.988   7.997  0.00  0.00    -0.155 OA
ATOM     17  O   UNL     1      -5.745  -5.301   5.939  0.00  0.00    -0.155 OA
ATOM     18  C   UNL     1      -4.682  -6.133   8.234  0.00  0.00    +0.218 C 
ENDBRANCH  13  15
ENDBRANCH   2   5
BRANCH   1  19
ATOM     19  C   UNL     1       0.030  -0.352   2.503  0.00  0.00    +0.137 C 
ATOM     20  C   UNL     1       1.432  -0.532   3.090  0.00  0.00    +0.036 C 
BRANCH  19  30
ATOM     21  C   UNL     1      -0.018   1.503   0.010  0.00  0.00    +0.048 C 
ATOM     22  C   UNL     1       0.002  -0.004   0.002  0.00  0.00    +0.000 A 
ATOM     23  C   UNL     1       0.009  -0.879  -1.177  0.00  0.00    +0.023 A 
ATOM     24  C   UNL     1       0.000  -0.660  -2.553  0.00  0.00    +0.012 A 
ATOM     25  C   UNL     1       0.011  -1.726  -3.409  0.00  0.00    +0.001 A 
ATOM     26  C   UNL     1       0.031  -3.023  -2.916  0.00  0.00    +0.004 A 
ATOM     27  C   UNL     1       0.040  -3.259  -1.558  0.00  0.00    +0.047 A 
ATOM     28  C   UNL     1       0.029  -2.190  -0.671  0.00  0.00    +0.136 A 
ATOM     29  O   UNL     1       0.033  -2.100   0.674  0.00  0.00    -0.458 OA
ATOM     30  C   UNL     1       0.023  -0.814   1.069  0.00  0.00    +0.129 A 
ENDBRANCH  19  30
ENDBRANCH   1  19
TORSDOF 4
