REMARK  Name = ZINC40061962
REMARK  8 active torsions:
REMARK  status: ('A' for Active; 'I' for Inactive)
REMARK    1  A    between atoms: C_1  and  C_2
REMARK    2  A    between atoms: C_4  and  C_37
REMARK    3  A    between atoms: C_13  and  C_26
REMARK    4  A    between atoms: N_15  and  C_18
REMARK    5  A    between atoms: C_18  and  C_19
REMARK    6  A    between atoms: C_29  and  O_32
REMARK    7  A    between atoms: O_32  and  C_33
REMARK    8  A    between atoms: C_33  and  C_34
REMARK                            x       y       z     vdW  Elec       q    Type
REMARK                         _______ _______ _______ _____ _____    ______ ____
ROOT
ATOM      1  C   UNL     1      -0.523   1.450   0.038  0.00  0.00    +0.044 C 
ATOM      2  C   UNL     1      -0.237  -0.029   0.015  0.00  0.00    -0.047 A 
ATOM      3  C   UNL     1      -0.233  -0.708  -1.195  0.00  0.00    +0.007 A 
ATOM      4  C   UNL     1       0.027  -2.050  -1.231  0.00  0.00    -0.036 A 
ATOM      5  C   UNL     1       0.289  -2.735  -0.045  0.00  0.00    +0.067 A 
ATOM      6  C   UNL     1       0.282  -2.060   1.186  0.00  0.00    +0.140 A 
ATOM      7  C   UNL     1       0.022  -0.690   1.195  0.00  0.00    +0.050 A 
ATOM      8  O   UNL     1       0.518  -2.692   2.358  0.00  0.00    -0.450 OA
ATOM      9  C   UNL     1       1.001  -3.950   2.351  0.00  0.00    +0.199 A 
ATOM     10  C   UNL     1       1.051  -4.714   1.220  0.00  0.00    +0.072 A 
ATOM     11  C   UNL     1       0.581  -4.191  -0.067  0.00  0.00    +0.199 A 
ATOM     12  O   UNL     1       0.444  -4.884  -1.060  0.00  0.00    -0.287 OA
ATOM     13  C   UNL     1       1.631  -6.039   1.591  0.00  0.00    +0.145 C 
ATOM     14  N   UNL     1       1.915  -5.964   3.033  0.00  0.00    -0.279 N 
ATOM     15  C   UNL     1       1.545  -4.742   3.468  0.00  0.00    +0.283 C 
ATOM     16  O   UNL     1       1.646  -4.351   4.614  0.00  0.00    -0.267 OA
ATOM     17  C   UNL     1       0.031  -2.784  -2.547  0.00  0.00    +0.044 C 
ENDROOT
BRANCH  13  18
ATOM     18  C   UNL     1       2.903  -6.284   0.821  0.00  0.00    -0.022 A 
ATOM     19  C   UNL     1       4.080  -5.679   1.222  0.00  0.00    +0.009 A 
ATOM     20  C   UNL     1       5.247  -5.901   0.518  0.00  0.00    +0.046 A 
ATOM     21  C   UNL     1       5.238  -6.732  -0.593  0.00  0.00    +0.121 A 
ATOM     22  C   UNL     1       4.056  -7.338  -0.994  0.00  0.00    +0.046 A 
ATOM     23  C   UNL     1       2.893  -7.117  -0.283  0.00  0.00    +0.009 A 
BRANCH  21  24
ATOM     24  O   UNL     1       6.385  -6.951  -1.288  0.00  0.00    -0.483 OA
BRANCH  24  25
ATOM     25  C   UNL     1       6.301  -7.818  -2.421  0.00  0.00    +0.324 C 
BRANCH  25  26
ATOM     26  C   UNL     1       7.660  -7.942  -3.061  0.00  0.00    +0.248 C 
ATOM     27  O   UNL     1       8.607  -7.346  -2.593  0.00  0.00    -0.272 OA
ATOM     28  N   UNL     1       7.823  -8.714  -4.153  0.00  0.00    -0.327 N 
ATOM     29  H   UNL     1       7.066  -9.191  -4.528  0.00  0.00    +0.145 HD
ATOM     30  H   UNL     1       8.698  -8.793  -4.565  0.00  0.00    +0.145 HD
ENDBRANCH  25  26
ENDBRANCH  24  25
ENDBRANCH  21  24
ENDBRANCH  13  18
BRANCH  14  31
ATOM     31  C   UNL     1       2.498  -7.029   3.853  0.00  0.00    +0.145 C 
BRANCH  31  32
ATOM     32  C   UNL     1       3.999  -6.900   3.851  0.00  0.00    -0.012 A 
ATOM     33  C   UNL     1       4.762  -7.700   3.021  0.00  0.00    +0.006 A 
ATOM     34  C   UNL     1       6.139  -7.581   3.019  0.00  0.00    +0.000 A 
ATOM     35  C   UNL     1       6.755  -6.662   3.848  0.00  0.00    +0.001 A 
ATOM     36  C   UNL     1       5.994  -5.861   4.679  0.00  0.00    +0.020 A 
ATOM     37  C   UNL     1       4.615  -5.976   4.676  0.00  0.00    +0.046 A 
ATOM     38 CL   UNL     1       3.658  -4.965   5.714  0.00  0.00    -0.083 Cl
ENDBRANCH  31  32
ENDBRANCH  14  31
TORSDOF 6
