REMARK  Name = ZINC39935640
REMARK  7 active torsions:
REMARK  status: ('A' for Active; 'I' for Inactive)
REMARK    1  A    between atoms: C_1  and  C_2
REMARK    2  A    between atoms: N_16  and  N_17
REMARK    3  A    between atoms: C_18  and  C_19
REMARK    4  A    between atoms: C_22  and  O_27
REMARK    5  A    between atoms: C_24  and  O_25
REMARK    6  A    between atoms: O_25  and  C_26
REMARK    7  A    between atoms: O_27  and  C_28
REMARK                            x       y       z     vdW  Elec       q    Type
REMARK                         _______ _______ _______ _____ _____    ______ ____
ROOT
ATOM      1  C   UNL     1      -0.018   1.503   0.010  0.00  0.00    +0.046 C 
ATOM      2  C   UNL     1       0.002  -0.004   0.002  0.00  0.00    -0.027 A 
ATOM      3  C   UNL     1       0.006  -0.675  -1.174  0.00  0.00    +0.005 A 
ATOM      4  C   UNL     1       0.022  -2.073  -1.223  0.00  0.00    +0.001 A 
ATOM      5  C   UNL     1       0.077  -2.824  -0.094  0.00  0.00    +0.012 A 
ATOM      6  C   UNL     1       0.117  -2.199   1.169  0.00  0.00    +0.025 A 
ATOM      7  C   UNL     1       0.315  -2.652   2.458  0.00  0.00    +0.113 C 
ATOM      8  C   UNL     1      -0.095  -1.480   3.347  0.00  0.00    +0.220 C 
ATOM      9  N   UNL     1      -0.033  -0.312   2.481  0.00  0.00    -0.361 N 
ATOM     10  C   UNL     1       0.023  -0.721   1.227  0.00  0.00    +0.049 A 
ATOM     11  N   UNL     1       0.872  -1.483   4.452  0.00  0.00    -0.288 N 
ATOM     12  C   UNL     1       1.169  -2.748   4.974  0.00  0.00    +0.231 C 
ATOM     13  N   UNL     1       1.076  -3.840   4.211  0.00  0.00    -0.113 NA
ATOM     14  N   UNL     1       0.729  -3.798   2.971  0.00  0.00    -0.147 NA
ATOM     15  N   UNL     1       1.548  -2.863   6.239  0.00  0.00    -0.247 N 
ATOM     16  H   UNL     1      -0.028   0.612   2.776  0.00  0.00    +0.162 HD
ATOM     17  H   UNL     1       1.274  -0.670   4.795  0.00  0.00    +0.151 HD
ATOM     18  H   UNL     1       1.756  -3.736   6.606  0.00  0.00    +0.192 HD
ENDROOT
BRANCH  15  19
ATOM     19  N   UNL     1       1.641  -1.812   6.982  0.00  0.00    -0.179 NA
ATOM     20  C   UNL     1       2.018  -1.927   8.239  0.00  0.00    +0.144 C 
BRANCH  20  21
ATOM     21  C   UNL     1       2.121  -0.772   9.056  0.00  0.00    +0.037 A 
ATOM     22  C   UNL     1       2.527  -0.888  10.395  0.00  0.00    +0.016 A 
ATOM     23  C   UNL     1       2.625   0.224  11.178  0.00  0.00    +0.046 A 
ATOM     24  C   UNL     1       2.322   1.482  10.659  0.00  0.00    +0.124 A 
ATOM     25  C   UNL     1       1.919   1.617   9.337  0.00  0.00    +0.091 A 
ATOM     26  C   UNL     1       1.820   0.500   8.527  0.00  0.00    +0.132 A 
BRANCH  26  27
ATOM     27  O   UNL     1       1.431   0.626   7.234  0.00  0.00    -0.494 OA
ATOM     28  C   UNL     1       1.144   1.947   6.770  0.00  0.00    +0.277 C 
ENDBRANCH  26  27
BRANCH  24  29
ATOM     29  O   UNL     1       2.423   2.580  11.449  0.00  0.00    -0.495 OA
ATOM     30  C   UNL     1       2.844   2.372  12.799  0.00  0.00    +0.277 C 
ENDBRANCH  24  29
ENDBRANCH  20  21
ENDBRANCH  15  19
TORSDOF 4
