REMARK  Name = ZINC05516166
REMARK  4 active torsions:
REMARK  status: ('A' for Active; 'I' for Inactive)
REMARK    1  A    between atoms: C_4  and  S_14
REMARK    2  A    between atoms: S_14  and  N_17
REMARK    3  A    between atoms: N_17  and  C_18
REMARK    4  A    between atoms: C_21  and  C_24
REMARK                            x       y       z     vdW  Elec       q    Type
REMARK                         _______ _______ _______ _____ _____    ______ ____
ROOT
ATOM      1  C   UNL     1      -3.460   0.258  -0.454  0.00  0.00    +0.001 A 
ATOM      2  C   UNL     1      -4.265   1.356  -0.601  0.00  0.00    +0.010 A 
ATOM      3  C   UNL     1      -5.617   1.264  -0.229  0.00  0.00    +0.011 A 
ATOM      4  C   UNL     1      -6.566   2.296  -0.317  0.00  0.00    +0.116 A 
ATOM      5  C   UNL     1      -7.846   2.043   0.095  0.00  0.00    +0.031 A 
ATOM      6  C   UNL     1      -8.260   0.806   0.589  0.00  0.00    +0.026 A 
ATOM      7  C   UNL     1      -7.357  -0.235   0.690  0.00  0.00    +0.042 A 
ATOM      8  C   UNL     1      -6.058   0.039   0.273  0.00  0.00    +0.017 A 
ATOM      9  C   UNL     1      -5.242  -1.092   0.427  0.00  0.00    +0.047 A 
ATOM     10  C   UNL     1      -3.917  -0.960   0.049  0.00  0.00    +0.014 A 
ATOM     11  C   UNL     1      -6.141  -2.113   0.979  0.00  0.00    +0.249 C 
ATOM     12  O   UNL     1      -5.835  -3.255   1.265  0.00  0.00    -0.270 OA
ATOM     13  N   UNL     1      -7.374  -1.557   1.115  0.00  0.00    -0.281 N 
ATOM     14  H   UNL     1      -8.154  -2.019   1.460  0.00  0.00    +0.155 HD
ENDROOT
BRANCH   4  15
ATOM     15  S   UNL     1      -6.116   3.882  -0.938  0.00  0.00    +0.073 S 
ATOM     16  O   UNL     1      -7.276   4.698  -0.848  0.00  0.00    -0.150 OA
ATOM     17  O   UNL     1      -5.435   3.660  -2.166  0.00  0.00    -0.150 OA
BRANCH  15  18
ATOM     18  N   UNL     1      -5.005   4.522   0.110  0.00  0.00    -0.216 N 
ATOM     19  H   UNL     1      -4.111   4.734  -0.200  0.00  0.00    +0.174 HD
BRANCH  18  20
ATOM     20  C   UNL     1      -5.354   4.754   1.435  0.00  0.00    +0.048 A 
ATOM     21  C   UNL     1      -4.497   4.357   2.459  0.00  0.00    +0.025 A 
ATOM     22  C   UNL     1      -4.835   4.585   3.762  0.00  0.00    +0.014 A 
ATOM     23  C   UNL     1      -6.046   5.218   4.069  0.00  0.00    +0.034 A 
ATOM     24  C   UNL     1      -6.908   5.610   3.037  0.00  0.00    +0.014 A 
ATOM     25  C   UNL     1      -6.559   5.384   1.736  0.00  0.00    +0.025 A 
BRANCH  23  26
ATOM     26  C   UNL     1      -6.415   5.464   5.469  0.00  0.00    +0.252 C 
ATOM     27  O   UNL     1      -5.671   5.115   6.363  0.00  0.00    -0.274 OA
ATOM     28 CL   UNL     1      -7.916   6.249   5.847  0.00  0.00    -0.038 Cl
ENDBRANCH  23  26
ENDBRANCH  18  20
ENDBRANCH  15  18
ENDBRANCH   4  15
TORSDOF 4
