REMARK  Name = ZINC23514177
REMARK  7 active torsions:
REMARK  status: ('A' for Active; 'I' for Inactive)
REMARK    1  A    between atoms: C_1  and  C_2
REMARK    2  A    between atoms: C_9  and  S_12
REMARK    3  A    between atoms: S_12  and  C_13
REMARK    4  A    between atoms: C_13  and  C_15
REMARK    5  A    between atoms: C_13  and  C_16
REMARK    6  A    between atoms: C_16  and  C_18
REMARK    7  A    between atoms: C_18  and  C_28
REMARK                            x       y       z     vdW  Elec       q    Type
REMARK                         _______ _______ _______ _____ _____    ______ ____
ROOT
ATOM      1  C   UNL     1       0.240  -6.418   5.167  0.00  0.00    +0.189 C 
ATOM      2  O   UNL     1      -0.112  -7.512   4.771  0.00  0.00    -0.290 OA
ENDROOT
BRANCH   1   3
ATOM      3  C   UNL     1       0.783  -6.278   6.455  0.00  0.00    +0.123 C 
ATOM      4  C   UNL     1       0.918  -7.405   7.287  0.00  0.00    +0.091 C 
ATOM      5  N   UNL     1       1.412  -7.452   8.550  0.00  0.00    -0.307 N 
ATOM      6  C   UNL     1       1.469  -8.658   9.221  0.00  0.00    +0.046 A 
ATOM      7  C   UNL     1       1.936  -8.930  10.515  0.00  0.00    +0.024 A 
ATOM      8  C   UNL     1       1.913 -10.212  11.012  0.00  0.00    +0.002 A 
ATOM      9  C   UNL     1       1.430 -11.267  10.255  0.00  0.00    +0.001 A 
ATOM     10  C   UNL     1       0.963 -11.025   8.976  0.00  0.00    +0.017 A 
ATOM     11  C   UNL     1       0.986  -9.744   8.477  0.00  0.00    +0.035 A 
ATOM     12  S   UNL     1       0.499  -8.996   6.944  0.00  0.00    -0.071 S 
ATOM     13  H   UNL     1       1.724  -6.641   8.980  0.00  0.00    +0.153 HD
BRANCH   3  14
ATOM     14  C   UNL     1       1.198  -4.990   6.921  0.00  0.00    +0.105 C 
ATOM     15  N   UNL     1       1.527  -3.967   7.291  0.00  0.00    -0.191 NA
ENDBRANCH   3  14
ENDBRANCH   1   3
BRANCH   1  16
ATOM     16  C   UNL     1       0.095  -5.211   4.276  0.00  0.00    +0.123 C 
ATOM     17  C   UNL     1      -1.221  -4.498   4.593  0.00  0.00    +0.028 C 
BRANCH  16  18
ATOM     18  S   UNL     1       0.094  -5.738   2.540  0.00  0.00    -0.077 S 
BRANCH  18  27
ATOM     19  C   UNL     1      -0.018   1.503   0.010  0.00  0.00    +0.044 C 
ATOM     20  C   UNL     1       0.002  -0.004   0.002  0.00  0.00    -0.048 A 
ATOM     21  C   UNL     1       0.006  -0.686  -1.206  0.00  0.00    +0.005 A 
ATOM     22  C   UNL     1       0.024  -2.065  -1.230  0.00  0.00    +0.028 A 
ATOM     23  C   UNL     1       0.040  -2.776  -0.040  0.00  0.00    +0.067 A 
ATOM     24  C   UNL     1       0.037  -2.091   1.187  0.00  0.00    +0.090 A 
ATOM     25  C   UNL     1       0.023  -0.694   1.194  0.00  0.00    +0.033 A 
ATOM     26  N   UNL     1       0.055  -3.029   2.169  0.00  0.00    -0.222 NA
ATOM     27  C   UNL     1       0.068  -4.226   1.635  0.00  0.00    +0.168 A 
ATOM     28  N   UNL     1       0.060  -4.126   0.273  0.00  0.00    -0.333 N 
ATOM     29  H   UNL     1       0.066  -4.862  -0.358  0.00  0.00    +0.168 HD
ENDBRANCH  18  27
ENDBRANCH  16  18
ENDBRANCH   1  16
TORSDOF 5
