REMARK  Name = ZINC01827200
REMARK  5 active torsions:
REMARK  status: ('A' for Active; 'I' for Inactive)
REMARK    1  A    between atoms: C_4  and  C_7
REMARK    2  A    between atoms: C_10  and  C_26
REMARK    3  A    between atoms: C_11  and  C_19
REMARK    4  A    between atoms: C_26  and  N_28
REMARK    5  A    between atoms: N_28  and  C_29
REMARK                            x       y       z     vdW  Elec       q    Type
REMARK                         _______ _______ _______ _____ _____    ______ ____
ROOT
ATOM      1  C   UNL     1       6.572  -4.222  -0.185  0.00  0.00    +0.067 A 
ATOM      2  C   UNL     1       5.591  -3.284  -0.092  0.00  0.00    +0.119 A 
ATOM      3  N   UNL     1       6.157  -2.025  -0.186  0.00  0.00    -0.298 N 
ATOM      4  C   UNL     1       6.017  -0.648  -0.119  0.00  0.00    +0.084 A 
ATOM      5  C   UNL     1       7.265  -0.056  -0.414  0.00  0.00    +0.015 A 
ATOM      6  C   UNL     1       8.156  -1.089  -0.673  0.00  0.00    +0.003 A 
ATOM      7  C   UNL     1       7.447  -2.239  -0.473  0.00  0.00    +0.123 A 
ATOM      8  N   UNL     1       7.768  -3.575  -0.342  0.00  0.00    -0.325 N 
ATOM      9  C   UNL     1       9.183  -3.942  -0.346  0.00  0.00    +0.124 C 
ATOM     10  C   UNL     1       9.815  -3.658  -1.695  0.00  0.00    +0.022 C 
ATOM     11  C   UNL     1       9.627  -2.234  -2.235  0.00  0.00    +0.006 C 
ATOM     12  C   UNL     1       9.584  -1.111  -1.186  0.00  0.00    +0.039 C 
ENDROOT
BRANCH   5  13
ATOM     13  C   UNL     1       7.568   1.394  -0.440  0.00  0.00    -0.015 A 
ATOM     14  C   UNL     1       7.931   2.012  -1.637  0.00  0.00    +0.010 A 
ATOM     15  C   UNL     1       8.207   3.364  -1.656  0.00  0.00    +0.020 A 
ATOM     16  C   UNL     1       8.134   4.104  -0.488  0.00  0.00    +0.041 A 
ATOM     17  C   UNL     1       7.779   3.495   0.703  0.00  0.00    +0.020 A 
ATOM     18  C   UNL     1       7.496   2.145   0.733  0.00  0.00    +0.010 A 
ATOM     19 CL   UNL     1       8.490   5.803  -0.518  0.00  0.00    -0.084 Cl
ENDBRANCH   5  13
BRANCH   1  23
ATOM     20  C   UNL     1       6.019  -8.431  -0.017  0.00  0.00    +0.000 A 
ATOM     21  C   UNL     1       5.019  -7.586   0.430  0.00  0.00    +0.001 A 
ATOM     22  C   UNL     1       5.192  -6.218   0.378  0.00  0.00    +0.010 A 
ATOM     23  C   UNL     1       6.380  -5.687  -0.127  0.00  0.00    -0.000 A 
ATOM     24  C   UNL     1       7.383  -6.545  -0.581  0.00  0.00    +0.010 A 
ATOM     25  C   UNL     1       7.199  -7.910  -0.518  0.00  0.00    +0.001 A 
ENDBRANCH   1  23
BRANCH   4  26
ATOM     26  C   UNL     1       4.828   0.044   0.187  0.00  0.00    +0.101 C 
ATOM     27  S   UNL     1       4.822   1.756   0.229  0.00  0.00    -0.033 S 
BRANCH  26  28
ATOM     28  N   UNL     1       3.696  -0.640   0.446  0.00  0.00    -0.307 N 
ATOM     29  H   UNL     1       3.717  -1.609   0.500  0.00  0.00    +0.153 HD
BRANCH  28  30
ATOM     30  C   UNL     1       2.493   0.045   0.635  0.00  0.00    +0.032 A 
ATOM     31  C   UNL     1       2.169   1.122  -0.180  0.00  0.00    +0.023 A 
ATOM     32  C   UNL     1       0.979   1.796   0.010  0.00  0.00    +0.002 A 
ATOM     33  C   UNL     1       0.110   1.400   1.011  0.00  0.00    +0.000 A 
ATOM     34  C   UNL     1       0.430   0.329   1.824  0.00  0.00    +0.002 A 
ATOM     35  C   UNL     1       1.618  -0.350   1.640  0.00  0.00    +0.023 A 
ENDBRANCH  28  30
ENDBRANCH  26  28
ENDBRANCH   4  26
TORSDOF 5
