REMARK  Name = ZINC00661935
REMARK  8 active torsions:
REMARK  status: ('A' for Active; 'I' for Inactive)
REMARK    1  A    between atoms: C_1  and  C_2
REMARK    2  A    between atoms: C_2  and  C_3
REMARK    3  A    between atoms: C_11  and  N_28
REMARK    4  A    between atoms: C_12  and  C_16
REMARK    5  A    between atoms: N_18  and  C_19
REMARK    6  A    between atoms: C_22  and  O_26
REMARK    7  A    between atoms: C_24  and  C_25
REMARK    8  A    between atoms: O_26  and  C_27
REMARK                            x       y       z     vdW  Elec       q    Type
REMARK                         _______ _______ _______ _____ _____    ______ ____
ROOT
ATOM      1  C   UNL     1      -0.687   3.123   1.258  0.00  0.00    -0.007 C 
ATOM      2  C   UNL     1      -1.309   3.621   2.568  0.00  0.00    +0.010 C 
ATOM      3  C   UNL     1      -1.102   5.131   2.656  0.00  0.00    +0.056 C 
ATOM      4  C   UNL     1      -1.570   5.804   1.392  0.00  0.00    +0.046 A 
ATOM      5  C   UNL     1      -1.765   5.114   0.210  0.00  0.00    -0.025 A 
ATOM      6  C   UNL     1      -2.182   5.786  -0.923  0.00  0.00    +0.017 A 
ATOM      7  C   UNL     1      -2.412   7.180  -0.863  0.00  0.00    +0.029 A 
ATOM      8  C   UNL     1      -2.850   8.080  -1.920  0.00  0.00    +0.053 A 
ATOM      9  C   UNL     1      -3.007   9.414  -1.619  0.00  0.00    +0.097 A 
ATOM     10  S   UNL     1      -2.568   9.503   0.106  0.00  0.00    -0.062 S 
ATOM     11  C   UNL     1      -2.188   7.792   0.391  0.00  0.00    +0.111 A 
ATOM     12  N   UNL     1      -1.790   7.111   1.440  0.00  0.00    -0.244 NA
ATOM     13  C   UNL     1      -1.540   3.628   0.096  0.00  0.00    +0.040 C 
ENDROOT
BRANCH   9  14
ATOM     14  C   UNL     1      -3.420  10.465  -2.475  0.00  0.00    +0.257 C 
ATOM     15  O   UNL     1      -3.686  10.232  -3.640  0.00  0.00    -0.269 OA
ATOM     16  N   UNL     1      -3.519  11.723  -1.999  0.00  0.00    -0.281 N 
ATOM     17  H   UNL     1      -3.386  11.896  -1.054  0.00  0.00    +0.155 HD
BRANCH  16  18
ATOM     18  C   UNL     1      -3.814  12.779  -2.870  0.00  0.00    +0.037 A 
ATOM     19  C   UNL     1      -3.507  12.673  -4.220  0.00  0.00    +0.027 A 
ATOM     20  C   UNL     1      -3.804  13.713  -5.078  0.00  0.00    +0.047 A 
ATOM     21  C   UNL     1      -4.398  14.868  -4.590  0.00  0.00    +0.120 A 
ATOM     22  C   UNL     1      -4.700  14.977  -3.241  0.00  0.00    +0.050 A 
ATOM     23  C   UNL     1      -4.409  13.935  -2.382  0.00  0.00    -0.026 A 
ATOM     24  C   UNL     1      -4.737  14.053  -0.916  0.00  0.00    +0.046 C 
BRANCH  21  25
ATOM     25  O   UNL     1      -4.684  15.895  -5.435  0.00  0.00    -0.495 OA
ATOM     26  C   UNL     1      -4.346  15.715  -6.812  0.00  0.00    +0.277 C 
ENDBRANCH  21  25
ENDBRANCH  16  18
ENDBRANCH   9  14
BRANCH   8  27
ATOM     27  N   UNL     1      -3.102   7.604  -3.199  0.00  0.00    -0.356 N 
ATOM     28  H   UNL     1      -2.986   6.662  -3.398  0.00  0.00    +0.142 HD
ATOM     29  H   UNL     1      -3.393   8.215  -3.895  0.00  0.00    +0.142 HD
ENDBRANCH   8  27
BRANCH   1  31
ATOM     30  C   UNL     1       0.051   1.103  -0.014  0.00  0.00    +0.004 C 
ATOM     31  C   UNL     1      -0.659   1.593   1.250  0.00  0.00    +0.000 C 
ENDBRANCH   1  31
TORSDOF 5
