REMARK  Name = ZINC63627379
REMARK  7 active torsions:
REMARK  status: ('A' for Active; 'I' for Inactive)
REMARK    1  A    between atoms: C_1  and  C_2
REMARK    2  A    between atoms: C_2  and  O_3
REMARK    3  A    between atoms: O_3  and  C_4
REMARK    4  A    between atoms: C_7  and  S_10
REMARK    5  A    between atoms: S_10  and  N_13
REMARK    6  A    between atoms: N_13  and  C_14
REMARK    7  A    between atoms: C_17  and  C_20
REMARK                            x       y       z     vdW  Elec       q    Type
REMARK                         _______ _______ _______ _____ _____    ______ ____
ROOT
ATOM      1  C   UNL     1      -0.277  -6.235  -4.119  0.00  0.00    +0.048 A 
ATOM      2  C   UNL     1       0.154  -4.959  -4.457  0.00  0.00    +0.025 A 
ATOM      3  C   UNL     1       0.071  -4.527  -5.766  0.00  0.00    +0.008 A 
ATOM      4  C   UNL     1      -0.441  -5.364  -6.741  0.00  0.00    -0.021 A 
ATOM      5  C   UNL     1      -0.871  -6.636  -6.408  0.00  0.00    +0.008 A 
ATOM      6  C   UNL     1      -0.786  -7.076  -5.102  0.00  0.00    +0.025 A 
ENDROOT
BRANCH   4   7
ATOM      7  C   UNL     1      -0.531  -4.889  -8.168  0.00  0.00    +0.133 C 
ATOM      8  C   UNL     1       0.591  -5.487  -8.988  0.00  0.00    +0.012 C 
ATOM      9  C   UNL     1      -0.003  -6.220  -9.957  0.00  0.00    -0.002 A 
ATOM     10  C   UNL     1       0.531  -7.035 -11.056  0.00  0.00    +0.029 A 
ATOM     11  C   UNL     1      -0.333  -7.666 -11.884  0.00  0.00    +0.042 A 
ATOM     12  C   UNL     1      -1.722  -7.561 -11.720  0.00  0.00    +0.022 A 
ATOM     13  C   UNL     1      -2.287  -6.832 -10.734  0.00  0.00    +0.027 A 
ATOM     14  C   UNL     1      -1.473  -6.126  -9.805  0.00  0.00    +0.043 A 
ATOM     15  N   UNL     1      -1.776  -5.364  -8.781  0.00  0.00    -0.374 N 
ATOM     16 CL   UNL     1       0.294  -8.629 -13.185  0.00  0.00    -0.084 Cl
ATOM     17  H   UNL     1      -2.673  -5.149  -8.480  0.00  0.00    +0.161 HD
ENDBRANCH   4   7
BRANCH   1  18
ATOM     18  N   UNL     1      -0.195  -6.675  -2.796  0.00  0.00    -0.216 N 
ATOM     19  H   UNL     1      -0.996  -6.730  -2.252  0.00  0.00    +0.174 HD
BRANCH  18  20
ATOM     20  S   UNL     1       1.272  -7.103  -2.156  0.00  0.00    +0.072 S 
ATOM     21  O   UNL     1       1.018  -7.576  -0.841  0.00  0.00    -0.150 OA
ATOM     22  O   UNL     1       2.160  -6.025  -2.420  0.00  0.00    -0.150 OA
BRANCH  20  26
ATOM     23  C   UNL     1       2.791 -10.643  -4.536  0.00  0.00    +0.121 A 
ATOM     24  C   UNL     1       3.199  -9.359  -4.864  0.00  0.00    +0.047 A 
ATOM     25  C   UNL     1       2.734  -8.280  -4.137  0.00  0.00    +0.032 A 
ATOM     26  C   UNL     1       1.863  -8.480  -3.082  0.00  0.00    +0.109 A 
ATOM     27  C   UNL     1       1.455  -9.760  -2.752  0.00  0.00    +0.032 A 
ATOM     28  C   UNL     1       1.912 -10.841  -3.480  0.00  0.00    +0.047 A 
BRANCH  23  29
ATOM     29  O   UNL     1       3.247 -11.706  -5.250  0.00  0.00    -0.492 OA
BRANCH  29  31
ATOM     30  C   UNL     1       4.550 -12.737  -7.005  0.00  0.00    +0.048 C 
ATOM     31  C   UNL     1       4.149 -11.428  -6.322  0.00  0.00    +0.225 C 
ENDBRANCH  29  31
ENDBRANCH  23  29
ENDBRANCH  20  26
ENDBRANCH  18  20
ENDBRANCH   1  18
TORSDOF 6
