REMARK  Name = ZINC22449407
REMARK  5 active torsions:
REMARK  status: ('A' for Active; 'I' for Inactive)
REMARK    1  A    between atoms: C_4  and  C_7
REMARK    2  A    between atoms: C_7  and  C_8
REMARK    3  A    between atoms: C_20  and  C_22
REMARK    4  A    between atoms: C_22  and  S_23
REMARK    5  A    between atoms: S_23  and  C_24
REMARK                            x       y       z     vdW  Elec       q    Type
REMARK                         _______ _______ _______ _____ _____    ______ ____
ROOT
ATOM      1  C   UNL     1      -4.870  -0.065  -1.031  0.00  0.00    -0.004 C 
ATOM      2  C   UNL     1      -4.815   1.007   0.061  0.00  0.00    +0.023 C 
ATOM      3  C   UNL     1      -3.526   1.818  -0.090  0.00  0.00    +0.108 C 
ATOM      4  N   UNL     1      -2.368   0.922   0.019  0.00  0.00    -0.301 N 
ATOM      5  C   UNL     1      -2.373  -0.086  -1.049  0.00  0.00    +0.108 C 
ATOM      6  C   UNL     1      -3.628  -0.954  -0.926  0.00  0.00    +0.023 C 
ATOM      7  C   UNL     1      -1.197   1.632   0.017  0.00  0.00    +0.198 A 
ATOM      8  N   UNL     1      -0.011   0.966   0.007  0.00  0.00    -0.295 N 
ATOM      9  H   UNL     1       0.002  -0.134   0.006  0.00  0.00    +0.172 HD
ATOM     10  C   UNL     1       1.147   1.659   0.000  0.00  0.00    +0.253 A 
ATOM     11  O   UNL     1       2.220   1.077  -0.013  0.00  0.00    -0.268 OA
ATOM     12  C   UNL     1       1.094   3.064   0.008  0.00  0.00    +0.094 A 
ATOM     13  C   UNL     1      -0.124   3.678   0.022  0.00  0.00    +0.060 A 
ATOM     14  N   UNL     1      -1.238   2.950   0.029  0.00  0.00    -0.220 NA
ENDROOT
BRANCH   1  15
ATOM     15  C   UNL     1      -6.128  -0.917  -0.849  0.00  0.00    +0.038 C 
BRANCH  15  19
ATOM     16  C   UNL     1      -6.460  -3.677  -4.093  0.00  0.00    +0.000 A 
ATOM     17  C   UNL     1      -5.771  -4.034  -2.949  0.00  0.00    +0.000 A 
ATOM     18  C   UNL     1      -5.664  -3.141  -1.899  0.00  0.00    +0.003 A 
ATOM     19  C   UNL     1      -6.245  -1.890  -1.994  0.00  0.00    -0.047 A 
ATOM     20  C   UNL     1      -6.938  -1.534  -3.135  0.00  0.00    +0.003 A 
ATOM     21  C   UNL     1      -7.042  -2.426  -4.187  0.00  0.00    +0.000 A 
ENDBRANCH  15  19
ENDBRANCH   1  15
BRANCH  13  22
ATOM     22  C   UNL     1      -0.209   5.183   0.030  0.00  0.00    +0.132 C 
BRANCH  22  23
ATOM     23  S   UNL     1      -0.700   5.770  -1.614  0.00  0.00    -0.091 S 
BRANCH  23  24
ATOM     24  C   UNL     1      -0.753   7.523  -1.442  0.00  0.00    +0.160 A 
ATOM     25  N   UNL     1      -0.501   8.267  -0.383  0.00  0.00    -0.133 NA
ATOM     26  N   UNL     1      -0.604   9.636  -0.469  0.00  0.00    -0.125 NA
ATOM     27  C   UNL     1      -0.953  10.198  -1.609  0.00  0.00    +0.180 A 
ATOM     28  S   UNL     1      -1.156   8.767  -2.659  0.00  0.00    -0.025 S 
ATOM     29  N   UNL     1      -1.115  11.545  -1.914  0.00  0.00    -0.336 N 
ATOM     30  H   UNL     1      -1.415  11.846  -2.929  0.00  0.00    +0.144 HD
ATOM     31  H   UNL     1      -0.944  12.308  -1.141  0.00  0.00    +0.144 HD
ENDBRANCH  23  24
ENDBRANCH  22  23
ENDBRANCH  13  22
TORSDOF 5
