REMARK  Name = ZINC35148132
REMARK  12 active torsions:
REMARK  status: ('A' for Active; 'I' for Inactive)
REMARK    1  A    between atoms: C_1  and  C_2
REMARK    2  A    between atoms: C_2  and  O_3
REMARK    3  A    between atoms: O_3  and  C_4
REMARK    4  A    between atoms: C_4  and  C_6
REMARK    5  A    between atoms: C_7  and  N_35
REMARK    6  A    between atoms: C_9  and  C_25
REMARK    7  A    between atoms: C_18  and  O_23
REMARK    8  A    between atoms: O_23  and  C_24
REMARK    9  A    between atoms: C_28  and  O_33
REMARK   10  A    between atoms: C_29  and  O_31
REMARK   11  A    between atoms: O_31  and  C_32
REMARK   12  A    between atoms: O_33  and  C_34
REMARK                            x       y       z     vdW  Elec       q    Type
REMARK                         _______ _______ _______ _____ _____    ______ ____
ROOT
ATOM      1  C   UNL     1      -2.909  -2.514   1.002  0.00  0.00    +0.119 A 
ATOM      2  C   UNL     1      -3.199  -3.783   0.543  0.00  0.00    +0.056 A 
ATOM      3  C   UNL     1      -4.527  -4.039   0.018  0.00  0.00    +0.035 A 
ATOM      4  C   UNL     1      -5.051  -5.254  -0.524  0.00  0.00    -0.001 A 
ATOM      5  C   UNL     1      -6.367  -5.282  -0.955  0.00  0.00    -0.015 A 
ATOM      6  C   UNL     1      -7.160  -4.137  -0.853  0.00  0.00    +0.051 A 
ATOM      7  N   UNL     1      -6.653  -3.008  -0.374  0.00  0.00    -0.348 N 
ATOM      8  C   UNL     1      -5.409  -2.935   0.047  0.00  0.00    +0.088 A 
ATOM      9  S   UNL     1      -4.432  -1.625   0.744  0.00  0.00    -0.062 S 
ATOM     10  C   UNL     1      -8.584  -4.210  -1.254  0.00  0.00    +0.002 A 
ATOM     11  C   UNL     1      -9.320  -3.047  -1.469  0.00  0.00    +0.014 A 
ATOM     12  C   UNL     1     -10.640  -3.134  -1.858  0.00  0.00    +0.046 A 
ATOM     13  C   UNL     1     -11.231  -4.378  -2.038  0.00  0.00    +0.120 A 
ATOM     14  C   UNL     1     -10.500  -5.538  -1.819  0.00  0.00    +0.050 A 
ATOM     15  C   UNL     1      -9.183  -5.458  -1.420  0.00  0.00    -0.034 A 
ATOM     16  C   UNL     1      -8.400  -6.713  -1.137  0.00  0.00    +0.040 C 
ATOM     17  C   UNL     1      -6.941  -6.542  -1.547  0.00  0.00    +0.042 C 
ATOM     18  H   UNL     1      -7.214  -2.218  -0.333  0.00  0.00    +0.166 HD
ENDROOT
BRANCH   4  19
ATOM     19  C   UNL     1      -4.200  -6.461  -0.624  0.00  0.00    -0.013 A 
ATOM     20  C   UNL     1      -4.430  -7.550   0.218  0.00  0.00    +0.012 A 
ATOM     21  C   UNL     1      -3.637  -8.674   0.124  0.00  0.00    +0.050 A 
ATOM     22  C   UNL     1      -2.610  -8.726  -0.807  0.00  0.00    +0.162 A 
ATOM     23  C   UNL     1      -2.376  -7.643  -1.650  0.00  0.00    +0.162 A 
ATOM     24  C   UNL     1      -3.171  -6.515  -1.564  0.00  0.00    +0.058 A 
BRANCH  23  25
ATOM     25  O   UNL     1      -1.368  -7.697  -2.562  0.00  0.00    -0.491 OA
ATOM     26  C   UNL     1      -1.185  -6.550  -3.394  0.00  0.00    +0.277 C 
ENDBRANCH  23  25
BRANCH  22  27
ATOM     27  O   UNL     1      -1.831  -9.836  -0.895  0.00  0.00    -0.491 OA
ATOM     28  C   UNL     1      -2.126 -10.910   0.000  0.00  0.00    +0.277 C 
ENDBRANCH  22  27
ENDBRANCH   4  19
BRANCH   2  29
ATOM     29  N   UNL     1      -2.244  -4.789   0.581  0.00  0.00    -0.356 N 
ATOM     30  H   UNL     1      -1.306  -4.564   0.683  0.00  0.00    +0.142 HD
ATOM     31  H   UNL     1      -2.514  -5.718   0.506  0.00  0.00    +0.142 HD
ENDBRANCH   2  29
BRANCH   1  32
ATOM     32  C   UNL     1      -1.697  -2.035   1.550  0.00  0.00    +0.348 C 
ATOM     33  O   UNL     1      -0.741  -2.782   1.658  0.00  0.00    -0.244 OA
BRANCH  32  34
ATOM     34  O   UNL     1      -1.599  -0.751   1.955  0.00  0.00    -0.461 OA
BRANCH  34  36
ATOM     35  C   UNL     1      -0.426   1.139   2.898  0.00  0.00    +0.048 C 
ATOM     36  C   UNL     1      -0.345  -0.336   2.499  0.00  0.00    +0.229 C 
ENDBRANCH  34  36
ENDBRANCH  32  34
ENDBRANCH   1  32
BRANCH  13  37
ATOM     37  O   UNL     1     -12.530  -4.460  -2.428  0.00  0.00    -0.495 OA
ATOM     38  C   UNL     1     -13.224  -3.228  -2.635  0.00  0.00    +0.277 C 
ENDBRANCH  13  37
TORSDOF 8
