REMARK  Name = ZINC04308376
REMARK  5 active torsions:
REMARK  status: ('A' for Active; 'I' for Inactive)
REMARK    1  A    between atoms: C_1  and  C_2
REMARK    2  A    between atoms: C_2  and  C_18
REMARK    3  A    between atoms: N_5  and  C_9
REMARK    4  A    between atoms: C_9  and  C_10
REMARK    5  A    between atoms: C_10  and  C_12
REMARK                            x       y       z     vdW  Elec       q    Type
REMARK                         _______ _______ _______ _____ _____    ______ ____
ROOT
ATOM      1  C   UNL     1      -0.019   1.526   0.010  0.00  0.00    +0.047 C 
ATOM      2  C   UNL     1       0.002  -0.004   0.002  0.00  0.00    +0.136 C 
ATOM      3  C   UNL     1      -1.403  -0.557   0.139  0.00  0.00    +0.251 C 
ATOM      4  O   UNL     1      -2.332  -0.392  -0.621  0.00  0.00    -0.272 OA
ATOM      5  N   UNL     1      -1.403  -1.272   1.282  0.00  0.00    -0.216 N 
ATOM      6  C   UNL     1      -0.206  -1.247   1.879  0.00  0.00    +0.310 C 
ATOM      7  O   UNL     1       0.040  -1.819   2.924  0.00  0.00    -0.252 OA
ATOM      8  N   UNL     1       0.695  -0.520   1.195  0.00  0.00    -0.281 N 
ATOM      9  H   UNL     1       1.621  -0.365   1.440  0.00  0.00    +0.152 HD
ENDROOT
BRANCH   2  10
ATOM     10  C   UNL     1       0.657  -0.517  -1.255  0.00  0.00    +0.003 A 
ATOM     11  C   UNL     1       1.795  -1.298  -1.172  0.00  0.00    +0.009 A 
ATOM     12  C   UNL     1       2.396  -1.769  -2.324  0.00  0.00    +0.020 A 
ATOM     13  C   UNL     1       1.859  -1.459  -3.561  0.00  0.00    +0.042 A 
ATOM     14  C   UNL     1       0.720  -0.678  -3.644  0.00  0.00    +0.040 A 
ATOM     15  C   UNL     1       0.116  -0.211  -2.491  0.00  0.00    +0.048 A 
ATOM     16 CL   UNL     1      -1.316   0.764  -2.594  0.00  0.00    -0.083 Cl
ATOM     17 CL   UNL     1       2.615  -2.050  -5.008  0.00  0.00    -0.083 Cl
ENDBRANCH   2  10
BRANCH   5  18
ATOM     18  C   UNL     1      -2.569  -1.986   1.805  0.00  0.00    +0.199 C 
BRANCH  18  19
ATOM     19  C   UNL     1      -2.585  -3.391   1.260  0.00  0.00    +0.197 C 
ATOM     20  O   UNL     1      -1.706  -3.760   0.507  0.00  0.00    -0.289 OA
BRANCH  19  21
ATOM     21  C   UNL     1      -3.621  -4.280   1.625  0.00  0.00    +0.084 A 
ATOM     22  C   UNL     1      -4.685  -3.998   2.464  0.00  0.00    +0.030 A 
ATOM     23  C   UNL     1      -5.459  -5.157   2.543  0.00  0.00    +0.020 A 
ATOM     24  C   UNL     1      -4.872  -6.104   1.771  0.00  0.00    +0.083 A 
ATOM     25  N   UNL     1      -3.763  -5.586   1.205  0.00  0.00    -0.358 N 
ATOM     26  H   UNL     1      -3.162  -6.055   0.605  0.00  0.00    +0.165 HD
ENDBRANCH  19  21
ENDBRANCH  18  19
ENDBRANCH   5  18
TORSDOF 4
