REMARK  Name = ZINC04280392
REMARK  6 active torsions:
REMARK  status: ('A' for Active; 'I' for Inactive)
REMARK    1  A    between atoms: C_1  and  C_2
REMARK    2  A    between atoms: C_10  and  N_15
REMARK    3  A    between atoms: C_11  and  C_12
REMARK    4  A    between atoms: C_16  and  C_18
REMARK    5  A    between atoms: C_19  and  C_20
REMARK    6  A    between atoms: C_23  and  N_26
REMARK                            x       y       z     vdW  Elec       q    Type
REMARK                         _______ _______ _______ _____ _____    ______ ____
ROOT
ATOM      1  C   UNL     1       5.717   2.626  -4.213  0.00  0.00    +0.109 C 
ATOM      2  C   UNL     1       4.227   2.562  -4.429  0.00  0.00    +0.213 C 
ATOM      3  O   UNL     1       3.783   2.103  -5.460  0.00  0.00    -0.276 OA
ATOM      4  N   UNL     1       3.388   3.015  -3.477  0.00  0.00    -0.297 N 
ATOM      5  C   UNL     1       1.930   2.966  -3.659  0.00  0.00    +0.113 C 
ATOM      6  C   UNL     1       1.315   2.024  -2.622  0.00  0.00    +0.056 C 
ATOM      7  C   UNL     1       1.880   2.355  -1.247  0.00  0.00    -0.020 A 
ATOM      8  C   UNL     1       3.034   3.045  -1.109  0.00  0.00    +0.013 A 
ATOM      9  S   UNL     1       3.284   3.172   0.638  0.00  0.00    -0.076 S 
ATOM     10  C   UNL     1       1.871   2.330   1.184  0.00  0.00    +0.085 A 
ATOM     11  C   UNL     1       1.245   1.963   0.001  0.00  0.00    +0.068 A 
ATOM     12  C   UNL     1       3.898   3.579  -2.211  0.00  0.00    +0.150 C 
ENDROOT
BRANCH  11  13
ATOM     13  C   UNL     1      -0.014   1.213   0.009  0.00  0.00    +0.244 C 
ATOM     14  O   UNL     1       0.002  -0.004   0.002  0.00  0.00    -0.270 OA
ATOM     15  N   UNL     1      -1.191   1.871   0.018  0.00  0.00    -0.325 N 
ATOM     16  H   UNL     1      -2.024   1.375   0.019  0.00  0.00    +0.145 HD
ATOM     17  H   UNL     1      -1.204   2.841   0.023  0.00  0.00    +0.145 HD
ENDBRANCH  11  13
BRANCH  10  18
ATOM     18  N   UNL     1       1.467   2.081   2.485  0.00  0.00    -0.276 N 
ATOM     19  C   UNL     1       2.213   2.520   3.518  0.00  0.00    +0.241 C 
ATOM     20  O   UNL     1       3.242   3.135   3.308  0.00  0.00    -0.270 OA
ATOM     21  H   UNL     1       0.647   1.591   2.652  0.00  0.00    +0.156 HD
BRANCH  19  22
ATOM     22  C   UNL     1       1.785   2.257   4.893  0.00  0.00    +0.068 C 
ATOM     23  C   UNL     1       2.531   2.696   5.927  0.00  0.00    +0.013 C 
BRANCH  23  24
ATOM     24  C   UNL     1       2.102   2.431   7.309  0.00  0.00    -0.025 A 
ATOM     25  C   UNL     1       0.917   1.730   7.555  0.00  0.00    +0.010 A 
ATOM     26  C   UNL     1       0.524   1.481   8.853  0.00  0.00    +0.033 A 
ATOM     27  C   UNL     1       1.293   1.933   9.911  0.00  0.00    +0.126 A 
ATOM     28  C   UNL     1       2.463   2.633   9.677  0.00  0.00    +0.033 A 
ATOM     29  C   UNL     1       2.873   2.885   8.384  0.00  0.00    +0.010 A 
BRANCH  27  30
ATOM     30  N   UNL     1       0.861   1.666  11.302  0.00  0.00    +0.056 N 
ATOM     31  O   UNL     1       1.535   2.063  12.236  0.00  0.00    -0.126 OA
ATOM     32  O   UNL     1      -0.169   1.050  11.512  0.00  0.00    -0.126 OA
ENDBRANCH  27  30
ENDBRANCH  23  24
ENDBRANCH  19  22
ENDBRANCH  10  18
TORSDOF 5
