REMARK  Name = ZINC13064656
REMARK  14 active torsions:
REMARK  status: ('A' for Active; 'I' for Inactive)
REMARK    1  A    between atoms: C_1  and  C_2
REMARK    2  A    between atoms: C_2  and  C_3
REMARK    3  A    between atoms: C_3  and  C_5
REMARK    4  A    between atoms: C_3  and  N_72
REMARK    5  A    between atoms: N_9  and  C_10
REMARK    6  A    between atoms: C_10  and  C_11
REMARK    7  A    between atoms: C_14  and  O_17
REMARK    8  A    between atoms: O_17  and  C_18
REMARK    9  A    between atoms: C_19  and  C_20
REMARK   10  A    between atoms: C_19  and  N_72
REMARK   11  A    between atoms: C_26  and  C_27
REMARK   12  A    between atoms: C_26  and  N_72
REMARK   13  A    between atoms: C_31  and  C_40
REMARK   14  A    between atoms: C_32  and  C_39
REMARK                            x       y       z     vdW  Elec       q    Type
REMARK                         _______ _______ _______ _____ _____    ______ ____
ROOT
ATOM      1  N   UNL     1      -5.349   4.486  -1.177  0.00  0.00    +0.392 N 
ATOM      2  H   UNL     1      -4.708   4.917  -1.853  0.00  0.00    -0.080 HD
ENDROOT
BRANCH   1   3
ATOM      3  C   UNL     1      -6.662   5.160  -1.262  0.00  0.00    +0.003 C 
BRANCH   3   4
ATOM      4  C   UNL     1      -6.873   5.621  -2.681  0.00  0.00    +0.138 A 
ATOM      5  N   UNL     1      -6.448   5.026  -3.769  0.00  0.00    -0.115 NA
ATOM      6  N   UNL     1      -6.831   5.726  -4.781  0.00  0.00    -0.023 NA
ATOM      7  N   UNL     1      -7.481   6.756  -4.366  0.00  0.00    -0.044 NA
ATOM      8  N   UNL     1      -7.529   6.728  -3.077  0.00  0.00    -0.226 N 
BRANCH   8   9
ATOM      9  C   UNL     1      -8.175   7.714  -2.208  0.00  0.00    +0.182 C 
BRANCH   9  10
ATOM     10  C   UNL     1      -7.185   8.792  -1.850  0.00  0.00    -0.026 A 
ATOM     11  C   UNL     1      -6.400   8.660  -0.719  0.00  0.00    +0.009 A 
ATOM     12  C   UNL     1      -5.487   9.645  -0.391  0.00  0.00    +0.046 A 
ATOM     13  C   UNL     1      -5.367  10.772  -1.191  0.00  0.00    +0.120 A 
ATOM     14  C   UNL     1      -6.160  10.905  -2.322  0.00  0.00    +0.046 A 
ATOM     15  C   UNL     1      -7.067   9.915  -2.648  0.00  0.00    +0.009 A 
BRANCH  13  16
ATOM     16  O   UNL     1      -4.474  11.744  -0.868  0.00  0.00    -0.495 OA
ATOM     17  C   UNL     1      -3.692  11.540   0.310  0.00  0.00    +0.277 C 
ENDBRANCH  13  16
ENDBRANCH   9  10
ENDBRANCH   8   9
ENDBRANCH   3   4
BRANCH   3  19
ATOM     18  C   UNL     1      -7.641   3.829   0.612  0.00  0.00    +0.002 C 
ATOM     19  C   UNL     1      -7.782   4.196  -0.867  0.00  0.00    -0.011 C 
ENDBRANCH   3  19
ENDBRANCH   1   3
BRANCH   1  20
ATOM     20  C   UNL     1      -5.495   3.051  -1.501  0.00  0.00    -0.040 C 
BRANCH  20  21
ATOM     21  C   UNL     1      -5.658   2.907  -2.992  0.00  0.00    -0.046 A 
ATOM     22  C   UNL     1      -6.920   2.758  -3.549  0.00  0.00    +0.005 A 
ATOM     23  C   UNL     1      -7.022   2.633  -4.926  0.00  0.00    +0.020 A 
ATOM     24  C   UNL     1      -5.871   2.651  -5.691  0.00  0.00    +0.111 A 
ATOM     25  N   UNL     1      -4.688   2.789  -5.127  0.00  0.00    -0.263 NA
ATOM     26  C   UNL     1      -4.553   2.915  -3.821  0.00  0.00    +0.112 A 
ENDBRANCH  20  21
ENDBRANCH   1  20
BRANCH   1  27
ATOM     27  C   UNL     1      -4.788   4.643   0.182  0.00  0.00    -0.036 C 
BRANCH  27  28
ATOM     28  C   UNL     1      -3.326   4.279   0.147  0.00  0.00    +0.001 A 
ATOM     29  C   UNL     1      -2.392   5.249  -0.012  0.00  0.00    +0.017 A 
ATOM     30  C   UNL     1      -0.981   4.861  -0.047  0.00  0.00    -0.001 A 
ATOM     31  C   UNL     1       0.027   5.814  -0.227  0.00  0.00    +0.013 A 
ATOM     32  C   UNL     1       1.335   5.421  -0.256  0.00  0.00    -0.047 A 
ATOM     33  C   UNL     1       1.673   4.082  -0.107  0.00  0.00    -0.046 A 
ATOM     34  C   UNL     1       0.697   3.126   0.071  0.00  0.00    +0.030 A 
ATOM     35  C   UNL     1      -0.642   3.503   0.098  0.00  0.00    +0.049 A 
ATOM     36  N   UNL     1      -1.639   2.566   0.269  0.00  0.00    -0.322 N 
ATOM     37  H   UNL     1      -1.404   1.631   0.373  0.00  0.00    +0.169 HD
ATOM     38  C   UNL     1      -2.933   2.931   0.294  0.00  0.00    +0.251 A 
ATOM     39  O   UNL     1      -3.789   2.076   0.447  0.00  0.00    -0.268 OA
ATOM     40  C   UNL     1       3.122   3.671  -0.142  0.00  0.00    +0.044 C 
ATOM     41  C   UNL     1       2.420   6.448  -0.450  0.00  0.00    +0.044 C 
ENDBRANCH  27  28
ENDBRANCH   1  27
TORSDOF 10
