REMARK  Name = ZINC01325472
REMARK  10 active torsions:
REMARK  status: ('A' for Active; 'I' for Inactive)
REMARK    1  A    between atoms: C_1  and  O_2
REMARK    2  A    between atoms: O_2  and  C_3
REMARK    3  A    between atoms: C_5  and  S_14
REMARK    4  A    between atoms: C_8  and  N_9
REMARK    5  A    between atoms: S_14  and  N_17
REMARK    6  A    between atoms: N_17  and  C_18
REMARK    7  A    between atoms: N_17  and  C_30
REMARK    8  A    between atoms: C_18  and  C_19
REMARK    9  A    between atoms: C_19  and  C_20
REMARK   10  A    between atoms: C_30  and  C_31
REMARK                            x       y       z     vdW  Elec       q    Type
REMARK                         _______ _______ _______ _____ _____    ______ ____
ROOT
ATOM      1  N   UNL     1       3.196   4.572  -1.800  0.00  0.00    -0.172 NA
ENDROOT
BRANCH   1   2
ATOM      2  S   UNL     1       2.816   3.950  -0.313  0.00  0.00    +0.061 S 
ATOM      3  O   UNL     1       2.485   5.054   0.517  0.00  0.00    -0.153 OA
ATOM      4  O   UNL     1       3.847   3.030   0.018  0.00  0.00    -0.153 OA
BRANCH   2   7
ATOM      5  C   UNL     1       0.260   0.917  -0.973  0.00  0.00    +0.147 A 
ATOM      6  C   UNL     1       1.419   1.662  -0.821  0.00  0.00    +0.076 A 
ATOM      7  C   UNL     1       1.341   3.005  -0.506  0.00  0.00    +0.109 A 
ATOM      8  C   UNL     1       0.108   3.610  -0.341  0.00  0.00    +0.031 A 
ATOM      9  C   UNL     1      -1.052   2.874  -0.490  0.00  0.00    +0.033 A 
ATOM     10  C   UNL     1      -0.982   1.527  -0.813  0.00  0.00    +0.110 A 
BRANCH  10  11
ATOM     11  N   UNL     1      -2.159   0.779  -0.972  0.00  0.00    -0.197 N 
ATOM     12  C   UNL     1      -3.431   1.216  -0.847  0.00  0.00    +0.251 A 
ATOM     13  N   UNL     1      -4.216   0.196  -1.079  0.00  0.00    -0.116 NA
ATOM     14  N   UNL     1      -3.527  -0.857  -1.335  0.00  0.00    -0.023 NA
ATOM     15  N   UNL     1      -2.267  -0.586  -1.289  0.00  0.00    -0.039 NA
ENDBRANCH  10  11
BRANCH   5  17
ATOM     16  C   UNL     1       1.642  -0.962  -1.437  0.00  0.00    +0.277 C 
ATOM     17  O   UNL     1       0.335  -0.405  -1.282  0.00  0.00    -0.493 OA
ENDBRANCH   5  17
ENDBRANCH   2   7
ENDBRANCH   1   2
BRANCH   1  18
ATOM     18  C   UNL     1       4.059   3.815  -2.711  0.00  0.00    +0.114 C 
BRANCH  18  19
ATOM     19  C   UNL     1       3.192   2.998  -3.673  0.00  0.00    +0.054 C 
BRANCH  19  20
ATOM     20  C   UNL     1       4.079   2.220  -4.610  0.00  0.00    -0.021 A 
ATOM     21  C   UNL     1       4.460   2.592  -5.843  0.00  0.00    +0.087 A 
ATOM     22  N   UNL     1       5.266   1.633  -6.392  0.00  0.00    -0.360 N 
ATOM     23  H   UNL     1       5.665   1.679  -7.275  0.00  0.00    +0.165 HD
ATOM     24  C   UNL     1       5.421   0.589  -5.507  0.00  0.00    +0.047 A 
ATOM     25  C   UNL     1       4.685   0.912  -4.352  0.00  0.00    +0.003 A 
ATOM     26  C   UNL     1       4.659   0.026  -3.273  0.00  0.00    +0.010 A 
ATOM     27  C   UNL     1       5.350  -1.150  -3.344  0.00  0.00    +0.001 A 
ATOM     28  C   UNL     1       6.078  -1.473  -4.481  0.00  0.00    +0.002 A 
ATOM     29  C   UNL     1       6.117  -0.614  -5.558  0.00  0.00    +0.026 A 
ENDBRANCH  19  20
ENDBRANCH  18  19
ENDBRANCH   1  18
BRANCH   1  30
ATOM     30  C   UNL     1       2.671   5.878  -2.204  0.00  0.00    +0.146 C 
BRANCH  30  31
ATOM     31  C   UNL     1       3.687   6.947  -1.890  0.00  0.00    -0.013 A 
ATOM     32  C   UNL     1       4.845   6.621  -1.208  0.00  0.00    +0.006 A 
ATOM     33  C   UNL     1       5.778   7.600  -0.925  0.00  0.00    +0.000 A 
ATOM     34  C   UNL     1       5.550   8.907  -1.314  0.00  0.00    +0.001 A 
ATOM     35  C   UNL     1       4.391   9.235  -1.991  0.00  0.00    +0.020 A 
ATOM     36  C   UNL     1       3.458   8.254  -2.279  0.00  0.00    +0.045 A 
ATOM     37 CL   UNL     1       2.001   8.665  -3.129  0.00  0.00    -0.083 Cl
ENDBRANCH  30  31
ENDBRANCH   1  30
TORSDOF 9
