REMARK  Name = ZINC39458052
REMARK  7 active torsions:
REMARK  status: ('A' for Active; 'I' for Inactive)
REMARK    1  A    between atoms: C_1  and  C_2
REMARK    2  A    between atoms: C_3  and  C_26
REMARK    3  A    between atoms: N_6  and  C_7
REMARK    4  A    between atoms: C_7  and  C_8
REMARK    5  A    between atoms: C_16  and  O_20
REMARK    6  A    between atoms: O_20  and  C_21
REMARK    7  A    between atoms: C_31  and  O_32
REMARK                            x       y       z     vdW  Elec       q    Type
REMARK                         _______ _______ _______ _____ _____    ______ ____
ROOT
ATOM      1  C   UNL     1      -0.018   1.503   0.010  0.00  0.00    +0.064 C 
ATOM      2  C   UNL     1       0.002  -0.004   0.002  0.00  0.00    +0.025 A 
ATOM      3  C   UNL     1       0.008  -0.796  -1.111  0.00  0.00    +0.010 A 
ATOM      4  C   UNL     1       0.026  -2.132  -0.676  0.00  0.00    -0.012 A 
ATOM      5  C   UNL     1       0.044  -2.108   0.694  0.00  0.00    +0.073 A 
ATOM      6  N   UNL     1       0.023  -0.805   1.102  0.00  0.00    -0.338 N 
ATOM      7  C   UNL     1       0.106  -3.337   1.506  0.00  0.00    +0.102 A 
ATOM      8  C   UNL     1       1.032  -4.328   1.094  0.00  0.00    +0.086 A 
ATOM      9  C   UNL     1       1.089  -5.537   1.803  0.00  0.00    +0.134 A 
ATOM     10  C   UNL     1       0.252  -5.681   2.908  0.00  0.00    +0.066 A 
ATOM     11  C   UNL     1      -0.600  -4.653   3.261  0.00  0.00    +0.115 A 
ATOM     12  N   UNL     1      -0.656  -3.529   2.567  0.00  0.00    -0.253 NA
ATOM     13  C   UNL     1       1.904  -4.044  -0.039  0.00  0.00    +0.169 C 
ATOM     14  O   UNL     1       3.071  -3.778   0.161  0.00  0.00    -0.292 OA
ATOM     15  C   UNL     1       1.384  -4.075  -1.458  0.00  0.00    +0.084 C 
ATOM     16  C   UNL     1       0.013  -3.385  -1.506  0.00  0.00    +0.046 C 
ENDROOT
BRANCH   3  17
ATOM     17  C   UNL     1      -0.003  -0.332  -2.521  0.00  0.00    +0.026 A 
ATOM     18  C   UNL     1       1.196  -0.104  -3.192  0.00  0.00    +0.012 A 
ATOM     19  C   UNL     1       1.181   0.328  -4.503  0.00  0.00    +0.001 A 
ATOM     20  C   UNL     1      -0.022   0.535  -5.154  0.00  0.00    +0.004 A 
ATOM     21  C   UNL     1      -1.218   0.312  -4.497  0.00  0.00    +0.046 A 
ATOM     22  C   UNL     1      -1.216  -0.127  -3.183  0.00  0.00    +0.125 A 
BRANCH  22  23
ATOM     23  O   UNL     1      -2.391  -0.352  -2.538  0.00  0.00    -0.506 OA
ATOM     24  H   UNL     1      -2.740   0.421  -2.076  0.00  0.00    +0.292 HD
ENDBRANCH  22  23
ENDBRANCH   3  17
BRANCH   9  25
ATOM     25  O   UNL     1       1.930  -6.530   1.427  0.00  0.00    -0.494 OA
ATOM     26  C   UNL     1       1.917  -7.723   2.213  0.00  0.00    +0.277 C 
ENDBRANCH   9  25
BRANCH   6  27
ATOM     27  C   UNL     1       0.020  -0.346   2.494  0.00  0.00    +0.157 C 
BRANCH  27  28
ATOM     28  C   UNL     1      -1.401  -0.218   2.977  0.00  0.00    -0.028 A 
ATOM     29  C   UNL     1      -2.081   0.975   2.819  0.00  0.00    +0.005 A 
ATOM     30  C   UNL     1      -3.385   1.092   3.262  0.00  0.00    +0.000 A 
ATOM     31  C   UNL     1      -4.010   0.016   3.864  0.00  0.00    +0.000 A 
ATOM     32  C   UNL     1      -3.330  -1.178   4.021  0.00  0.00    +0.000 A 
ATOM     33  C   UNL     1      -2.028  -1.296   3.574  0.00  0.00    +0.005 A 
ENDBRANCH  27  28
ENDBRANCH   6  27
TORSDOF 5
