REMARK  Name = ZINC20868192
REMARK  12 active torsions:
REMARK  status: ('A' for Active; 'I' for Inactive)
REMARK    1  A    between atoms: C_1  and  C_2
REMARK    2  A    between atoms: C_2  and  O_3
REMARK    3  A    between atoms: O_3  and  C_4
REMARK    4  A    between atoms: C_7  and  C_12
REMARK    5  A    between atoms: C_9  and  O_10
REMARK    6  A    between atoms: O_10  and  C_11
REMARK    7  A    between atoms: C_15  and  C_29
REMARK    8  A    between atoms: N_22  and  C_23
REMARK    9  A    between atoms: C_23  and  C_24
REMARK   10  A    between atoms: C_30  and  C_37
REMARK   11  A    between atoms: C_32  and  C_36
REMARK   12  A    between atoms: C_34  and  O_35
REMARK                            x       y       z     vdW  Elec       q    Type
REMARK                         _______ _______ _______ _____ _____    ______ ____
ROOT
ATOM      1  C   UNL     1       1.149  -6.085   1.780  0.00  0.00    +0.142 C 
ATOM      2  C   UNL     1       2.165  -6.616   0.806  0.00  0.00    +0.035 A 
ATOM      3  C   UNL     1       3.493  -6.609   0.367  0.00  0.00    +0.102 A 
ATOM      4  N   UNL     1       3.576  -7.442  -0.651  0.00  0.00    -0.173 NA
ATOM      5  N   UNL     1       2.433  -7.974  -0.899  0.00  0.00    -0.272 N 
ATOM      6  H   UNL     1       2.258  -8.617  -1.603  0.00  0.00    +0.189 HD
ATOM      7  C   UNL     1       1.500  -7.500  -0.021  0.00  0.00    +0.126 A 
ATOM      8  C   UNL     1       0.092  -7.554   0.390  0.00  0.00    +0.266 C 
ATOM      9  O   UNL     1      -0.760  -8.242  -0.140  0.00  0.00    -0.268 OA
ATOM     10  N   UNL     1      -0.123  -6.735   1.437  0.00  0.00    -0.278 N 
ENDROOT
BRANCH   3  11
ATOM     11  C   UNL     1       4.604  -5.810   0.942  0.00  0.00    +0.047 A 
ATOM     12  C   UNL     1       5.423  -5.051   0.109  0.00  0.00    -0.037 A 
ATOM     13  C   UNL     1       6.455  -4.310   0.648  0.00  0.00    +0.007 A 
ATOM     14  C   UNL     1       6.680  -4.318   2.013  0.00  0.00    -0.047 A 
ATOM     15  C   UNL     1       5.873  -5.068   2.848  0.00  0.00    +0.049 A 
ATOM     16  C   UNL     1       4.830  -5.811   2.321  0.00  0.00    +0.127 A 
ATOM     17  C   UNL     1       7.809  -3.505   2.593  0.00  0.00    +0.044 C 
ATOM     18  C   UNL     1       5.183  -5.040  -1.379  0.00  0.00    +0.044 C 
BRANCH  16  19
ATOM     19  O   UNL     1       4.032  -6.544   3.141  0.00  0.00    -0.506 OA
ATOM     20  H   UNL     1       4.383  -7.421   3.351  0.00  0.00    +0.292 HD
ENDBRANCH  16  19
ENDBRANCH   3  11
BRANCH   1  24
ATOM     21  C   UNL     1       0.788  -1.844   1.364  0.00  0.00    +0.162 A 
ATOM     22  C   UNL     1       0.354  -2.683   0.349  0.00  0.00    +0.050 A 
ATOM     23  C   UNL     1       0.472  -4.053   0.487  0.00  0.00    +0.009 A 
ATOM     24  C   UNL     1       1.022  -4.591   1.635  0.00  0.00    -0.019 A 
ATOM     25  C   UNL     1       1.457  -3.760   2.651  0.00  0.00    +0.055 A 
ATOM     26  C   UNL     1       1.348  -2.385   2.517  0.00  0.00    +0.162 A 
BRANCH  26  27
ATOM     27  O   UNL     1       1.780  -1.567   3.513  0.00  0.00    -0.491 OA
ATOM     28  C   UNL     1       2.344  -2.192   4.668  0.00  0.00    +0.277 C 
ENDBRANCH  26  27
BRANCH  21  29
ATOM     29  O   UNL     1       0.673  -0.496   1.230  0.00  0.00    -0.489 OA
BRANCH  29  31
ATOM     30  C   UNL     1       0.044   1.517   0.050  0.00  0.00    +0.048 C 
ATOM     31  C   UNL     1       0.089  -0.012   0.019  0.00  0.00    +0.226 C 
ENDBRANCH  29  31
ENDBRANCH  21  29
ENDBRANCH   1  24
BRANCH  10  32
ATOM     32  C   UNL     1      -1.404  -6.528   2.117  0.00  0.00    +0.183 C 
BRANCH  32  33
ATOM     33  C   UNL     1      -2.145  -5.394   1.457  0.00  0.00    +0.122 A 
ATOM     34  C   UNL     1      -3.013  -5.511   0.435  0.00  0.00    +0.046 A 
ATOM     35  C   UNL     1      -3.468  -4.207   0.135  0.00  0.00    +0.041 A 
ATOM     36  C   UNL     1      -2.853  -3.371   0.990  0.00  0.00    +0.195 A 
ATOM     37  O   UNL     1      -2.057  -4.097   1.793  0.00  0.00    -0.466 OA
ENDBRANCH  32  33
ENDBRANCH  10  32
TORSDOF 8
