REMARK  Name = ZINC21887253
REMARK  3 active torsions:
REMARK  status: ('A' for Active; 'I' for Inactive)
REMARK    1  A    between atoms: N_4  and  C_6
REMARK    2  A    between atoms: C_7  and  C_15
REMARK    3  A    between atoms: N_17  and  C_18
REMARK                            x       y       z     vdW  Elec       q    Type
REMARK                         _______ _______ _______ _____ _____    ______ ____
ROOT
ATOM      1  C   UNL     1      -1.279   1.562   3.610  0.00  0.00    +0.097 A 
ATOM      2  C   UNL     1      -0.557   1.000   2.568  0.00  0.00    +0.072 A 
ATOM      3  C   UNL     1      -0.729   1.570   1.246  0.00  0.00    -0.023 A 
ATOM      4  C   UNL     1      -1.597   2.607   1.174  0.00  0.00    -0.004 A 
ATOM      5  S   UNL     1      -2.173   2.827   2.834  0.00  0.00    -0.075 S 
ATOM      6  C   UNL     1      -1.973   3.388  -0.046  0.00  0.00    +0.043 C 
ATOM      7  C   UNL     1      -0.950   3.083  -1.150  0.00  0.00    +0.005 C 
ATOM      8  C   UNL     1      -0.756   1.566  -1.238  0.00  0.00    +0.005 C 
ATOM      9  C   UNL     1      -0.011   1.065   0.001  0.00  0.00    +0.037 C 
ENDROOT
BRANCH   1  13
ATOM     10  C   UNL     1      -0.827   0.142   6.827  0.00  0.00    +0.019 A 
ATOM     11  C   UNL     1      -1.760   1.163   7.099  0.00  0.00    +0.019 A 
ATOM     12  C   UNL     1      -2.023   1.794   5.937  0.00  0.00    +0.092 A 
ATOM     13  N   UNL     1      -1.285   1.198   4.952  0.00  0.00    -0.317 N 
ATOM     14  C   UNL     1      -0.558   0.181   5.506  0.00  0.00    +0.092 A 
ENDBRANCH   1  13
BRANCH   2  15
ATOM     15  C   UNL     1       0.351  -0.130   2.795  0.00  0.00    +0.251 C 
ATOM     16  O   UNL     1      -0.063  -1.271   2.703  0.00  0.00    -0.270 OA
ATOM     17  N   UNL     1       1.643   0.095   3.105  0.00  0.00    -0.281 N 
ATOM     18  H   UNL     1       2.035   1.123   3.113  0.00  0.00    +0.155 HD
BRANCH  17  19
ATOM     19  C   UNL     1       2.486  -0.979   3.415  0.00  0.00    +0.037 A 
ATOM     20  C   UNL     1       3.485  -0.825   4.368  0.00  0.00    +0.027 A 
ATOM     21  C   UNL     1       4.314  -1.885   4.679  0.00  0.00    +0.051 A 
ATOM     22  C   UNL     1       4.159  -3.102   4.035  0.00  0.00    +0.166 A 
ATOM     23  C   UNL     1       3.162  -3.258   3.075  0.00  0.00    +0.168 A 
ATOM     24  C   UNL     1       2.328  -2.196   2.767  0.00  0.00    +0.072 A 
ATOM     25  O   UNL     1       3.215  -4.534   2.594  0.00  0.00    -0.453 OA
ATOM     26  C   UNL     1       4.512  -5.034   2.971  0.00  0.00    +0.466 C 
ATOM     27  O   UNL     1       4.837  -4.282   4.155  0.00  0.00    -0.453 OA
ENDBRANCH  17  19
ENDBRANCH   2  15
TORSDOF 3
