REMARK  Name = ZINC20701733
REMARK  7 active torsions:
REMARK  status: ('A' for Active; 'I' for Inactive)
REMARK    1  A    between atoms: C_1  and  C_2
REMARK    2  A    between atoms: C_2  and  C_3
REMARK    3  A    between atoms: C_2  and  C_4
REMARK    4  A    between atoms: C_4  and  O_5
REMARK    5  A    between atoms: O_5  and  C_6
REMARK    6  A    between atoms: C_13  and  C_22
REMARK    7  A    between atoms: C_27  and  O_28
REMARK                            x       y       z     vdW  Elec       q    Type
REMARK                         _______ _______ _______ _____ _____    ______ ____
ROOT
ATOM      1  C   UNL     1       2.396   1.381  -0.063  0.00  0.00    +0.142 A 
ATOM      2  C   UNL     1       2.403  -0.002  -0.073  0.00  0.00    +0.047 A 
ATOM      3  C   UNL     1       1.205  -0.693  -0.041  0.00  0.00    +0.004 A 
ATOM      4  C   UNL     1       0.011  -0.004  -0.000  0.00  0.00    +0.006 A 
ATOM      5  C   UNL     1      -0.008   1.385   0.009  0.00  0.00    -0.016 A 
ATOM      6  C   UNL     1       1.186   2.080  -0.021  0.00  0.00    +0.074 A 
ATOM      7  N   UNL     1       1.236   3.476  -0.005  0.00  0.00    -0.334 N 
ATOM      8  C   UNL     1       0.021   4.079  -0.554  0.00  0.00    +0.109 C 
ATOM      9  C   UNL     1      -1.192   3.594   0.243  0.00  0.00    +0.029 C 
ATOM     10  C   UNL     1      -1.343   2.070   0.045  0.00  0.00    +0.049 C 
ATOM     11  C   UNL     1      -2.046   1.937  -1.286  0.00  0.00    -0.023 C 
ATOM     12  C   UNL     1      -2.666   3.050  -1.590  0.00  0.00    -0.030 C 
ATOM     13  C   UNL     1      -2.471   4.083  -0.494  0.00  0.00    +0.033 C 
ATOM     14  H   UNL     1       2.053   4.118   0.358  0.00  0.00    +0.147 HD
ENDROOT
BRANCH   8  15
ATOM     15  C   UNL     1       0.117   5.580  -0.459  0.00  0.00    +0.017 A 
ATOM     16  C   UNL     1      -0.224   6.365  -1.544  0.00  0.00    +0.029 A 
ATOM     17  C   UNL     1      -0.137   7.742  -1.458  0.00  0.00    +0.043 A 
ATOM     18  C   UNL     1       0.293   8.338  -0.285  0.00  0.00    +0.043 A 
ATOM     19  C   UNL     1       0.636   7.557   0.802  0.00  0.00    +0.084 A 
ATOM     20  C   UNL     1       0.543   6.174   0.719  0.00  0.00    +0.140 A 
ATOM     21 CL   UNL     1       1.175   8.305   2.274  0.00  0.00    -0.080 Cl
ATOM     22 CL   UNL     1      -0.567   8.726  -2.822  0.00  0.00    -0.083 Cl
BRANCH  20  23
ATOM     23  O   UNL     1       0.874   5.404   1.789  0.00  0.00    -0.505 OA
ATOM     24  H   UNL     1       1.212   5.877   2.723  0.00  0.00    +0.292 HD
ENDBRANCH  20  23
ENDBRANCH   8  15
BRANCH   1  25
ATOM     25  O   UNL     1       3.572   2.063  -0.094  0.00  0.00    -0.490 OA
BRANCH  25  26
ATOM     26  C   UNL     1       4.772   1.288  -0.137  0.00  0.00    +0.232 C 
BRANCH  26  28
ATOM     27  C   UNL     1       7.268   1.395  -0.087  0.00  0.00    +0.010 C 
ATOM     28  C   UNL     1       5.983   2.223  -0.168  0.00  0.00    +0.020 C 
ATOM     29  C   UNL     1       5.974   3.026  -1.469  0.00  0.00    +0.010 C 
ENDBRANCH  26  28
ENDBRANCH  25  26
ENDBRANCH   1  25
TORSDOF 5
