REMARK  Name = ZINC37054548
REMARK  7 active torsions:
REMARK  status: ('A' for Active; 'I' for Inactive)
REMARK    1  A    between atoms: C_1  and  C_2
REMARK    2  A    between atoms: C_2  and  C_3
REMARK    3  A    between atoms: C_3  and  C_5
REMARK    4  A    between atoms: C_3  and  N_6
REMARK    5  A    between atoms: N_6  and  S_7
REMARK    6  A    between atoms: S_7  and  C_10
REMARK    7  A    between atoms: C_11  and  N_18
REMARK                            x       y       z     vdW  Elec       q    Type
REMARK                         _______ _______ _______ _____ _____    ______ ____
ROOT
ATOM      1  C   UNL     1      -4.347   1.732  -0.274  0.00  0.00    +0.140 A 
ATOM      2  C   UNL     1      -4.228   1.583   1.102  0.00  0.00    +0.053 A 
ATOM      3  C   UNL     1      -3.936   2.686   1.894  0.00  0.00    +0.040 A 
ATOM      4  C   UNL     1      -3.764   3.928   1.312  0.00  0.00    +0.021 A 
ATOM      5  C   UNL     1      -3.884   4.072  -0.059  0.00  0.00    +0.032 A 
ATOM      6  C   UNL     1      -4.169   2.974  -0.851  0.00  0.00    +0.047 A 
ATOM      7 BR   UNL     1      -4.323   3.176  -2.725  0.00  0.00    -0.048 Br
ATOM      8 BR   UNL     1      -3.366   5.430   2.389  0.00  0.00    -0.050 Br
ENDROOT
BRANCH   1   9
ATOM      9  S   UNL     1      -4.717   0.335  -1.283  0.00  0.00    +0.061 S 
ATOM     10  O   UNL     1      -5.407   0.829  -2.423  0.00  0.00    -0.153 OA
ATOM     11  O   UNL     1      -5.274  -0.650  -0.424  0.00  0.00    -0.153 OA
BRANCH   9  12
ATOM     12  N   UNL     1      -3.275  -0.271  -1.827  0.00  0.00    -0.187 NA
ATOM     13  H   UNL     1      -3.067  -0.251  -2.775  0.00  0.00    +0.148 HD
BRANCH  12  14
ATOM     14  C   UNL     1      -2.314  -0.838  -0.878  0.00  0.00    +0.073 C 
ATOM     15  C   UNL     1      -2.505  -2.354  -0.804  0.00  0.00    +0.025 C 
BRANCH  14  17
ATOM     16  C   UNL     1      -0.660   0.985  -1.302  0.00  0.00    +0.005 C 
ATOM     17  C   UNL     1      -0.891  -0.526  -1.346  0.00  0.00    +0.017 C 
ENDBRANCH  14  17
ENDBRANCH  12  14
ENDBRANCH   9  12
ENDBRANCH   1   9
BRANCH   2  18
ATOM     18  N   UNL     1      -4.403   0.327   1.688  0.00  0.00    -0.356 N 
ATOM     19  H   UNL     1      -4.229  -0.476   1.174  0.00  0.00    +0.142 HD
ATOM     20  H   UNL     1      -4.698   0.259   2.610  0.00  0.00    +0.142 HD
ENDBRANCH   2  18
TORSDOF 5
