REMARK  Name = ZINC18191620
REMARK  14 active torsions:
REMARK  status: ('A' for Active; 'I' for Inactive)
REMARK    1  A    between atoms: C_1  and  C_2
REMARK    2  A    between atoms: C_2  and  C_3
REMARK    3  A    between atoms: C_2  and  C_4
REMARK    4  A    between atoms: C_4  and  N_5
REMARK    5  A    between atoms: N_5  and  C_6
REMARK    6  A    between atoms: C_7  and  N_22
REMARK    7  A    between atoms: N_8  and  C_15
REMARK    8  A    between atoms: C_15  and  C_16
REMARK    9  A    between atoms: C_23  and  C_25
REMARK   10  A    between atoms: C_25  and  O_26
REMARK   11  A    between atoms: O_26  and  C_27
REMARK   12  A    between atoms: C_27  and  C_29
REMARK   13  A    between atoms: C_29  and  O_30
REMARK   14  A    between atoms: O_30  and  C_31
REMARK                            x       y       z     vdW  Elec       q    Type
REMARK                         _______ _______ _______ _____ _____    ______ ____
ROOT
ATOM      1  N   UNL     1      -1.936  -0.082  -1.194  0.00  0.00    -0.261 N 
ATOM      2  C   UNL     1      -2.347   1.197  -1.318  0.00  0.00    +0.258 C 
ATOM      3  O   UNL     1      -2.855   1.573  -2.354  0.00  0.00    -0.272 OA
ENDROOT
BRANCH   1   4
ATOM      4  C   UNL     1      -2.012  -0.958  -2.298  0.00  0.00    +0.140 A 
ATOM      5  C   UNL     1      -3.235  -1.304  -2.837  0.00  0.00    +0.128 A 
ATOM      6  N   UNL     1      -3.277  -2.159  -3.913  0.00  0.00    -0.276 N 
ATOM      7  C   UNL     1      -2.139  -2.654  -4.434  0.00  0.00    +0.331 A 
ATOM      8  O   UNL     1      -2.198  -3.409  -5.385  0.00  0.00    -0.246 OA
ATOM      9  N   UNL     1      -0.939  -2.328  -3.923  0.00  0.00    -0.273 N 
ATOM     10  H   UNL     1      -0.134  -2.698  -4.317  0.00  0.00    +0.173 HD
ATOM     11  C   UNL     1      -0.842  -1.489  -2.873  0.00  0.00    +0.277 A 
ATOM     12  O   UNL     1       0.252  -1.196  -2.420  0.00  0.00    -0.266 OA
BRANCH   5  13
ATOM     13  N   UNL     1      -4.397  -0.799  -2.304  0.00  0.00    -0.343 N 
ATOM     14  H   UNL     1      -4.359  -0.148  -1.585  0.00  0.00    +0.144 HD
ATOM     15  H   UNL     1      -5.255  -1.094  -2.646  0.00  0.00    +0.144 HD
ENDBRANCH   5  13
BRANCH   6  16
ATOM     16  C   UNL     1      -4.568  -2.535  -4.494  0.00  0.00    +0.163 C 
BRANCH  16  17
ATOM     17  C   UNL     1      -4.935  -1.555  -5.579  0.00  0.00    -0.028 A 
ATOM     18  C   UNL     1      -5.660  -0.420  -5.268  0.00  0.00    +0.005 A 
ATOM     19  C   UNL     1      -5.996   0.479  -6.263  0.00  0.00    +0.000 A 
ATOM     20  C   UNL     1      -5.607   0.244  -7.568  0.00  0.00    +0.000 A 
ATOM     21  C   UNL     1      -4.880  -0.891  -7.878  0.00  0.00    +0.000 A 
ATOM     22  C   UNL     1      -4.541  -1.788  -6.883  0.00  0.00    +0.005 A 
ENDBRANCH  16  17
ENDBRANCH   6  16
ENDBRANCH   1   4
BRANCH   1  23
ATOM     23  C   UNL     1      -1.411  -0.562   0.086  0.00  0.00    +0.117 C 
BRANCH  23  25
ATOM     24  C   UNL     1      -3.122  -2.374   0.260  0.00  0.00    +0.009 C 
ATOM     25  C   UNL     1      -2.558  -1.120   0.931  0.00  0.00    +0.001 C 
ATOM     26  C   UNL     1      -2.038  -1.478   2.325  0.00  0.00    +0.009 C 
ENDBRANCH  23  25
ENDBRANCH   1  23
BRANCH   2  27
ATOM     27  C   UNL     1      -2.173   2.159  -0.171  0.00  0.00    +0.328 C 
BRANCH  27  28
ATOM     28  O   UNL     1      -2.784   3.408  -0.500  0.00  0.00    -0.453 OA
BRANCH  28  29
ATOM     29  C   UNL     1      -2.718   4.380   0.423  0.00  0.00    +0.346 C 
ATOM     30  O   UNL     1      -2.160   4.178   1.475  0.00  0.00    -0.247 OA
BRANCH  29  31
ATOM     31  C   UNL     1      -3.340   5.725   0.146  0.00  0.00    +0.349 C 
BRANCH  31  32
ATOM     32  O   UNL     1      -3.139   6.583   1.271  0.00  0.00    -0.481 OA
BRANCH  32  33
ATOM     33  C   UNL     1      -3.642   7.842   1.184  0.00  0.00    +0.121 A 
ATOM     34  C   UNL     1      -4.321   8.242   0.042  0.00  0.00    +0.045 A 
ATOM     35  C   UNL     1      -4.832   9.523  -0.043  0.00  0.00    +0.004 A 
ATOM     36  C   UNL     1      -4.667  10.406   1.008  0.00  0.00    +0.000 A 
ATOM     37  C   UNL     1      -3.991  10.010   2.147  0.00  0.00    +0.004 A 
ATOM     38  C   UNL     1      -3.483   8.729   2.240  0.00  0.00    +0.045 A 
ENDBRANCH  32  33
ENDBRANCH  31  32
ENDBRANCH  29  31
ENDBRANCH  28  29
ENDBRANCH  27  28
ENDBRANCH   2  27
TORSDOF 12
