REMARK  Name = ZINC33812518
REMARK  10 active torsions:
REMARK  status: ('A' for Active; 'I' for Inactive)
REMARK    1  A    between atoms: C_1  and  C_2
REMARK    2  A    between atoms: C_2  and  N_3
REMARK    3  A    between atoms: C_4  and  N_26
REMARK    4  A    between atoms: C_5  and  C_13
REMARK    5  A    between atoms: C_6  and  C_12
REMARK    6  A    between atoms: C_7  and  C_10
REMARK    7  A    between atoms: N_17  and  C_21
REMARK    8  A    between atoms: C_21  and  C_22
REMARK    9  A    between atoms: C_22  and  C_23
REMARK   10  A    between atoms: N_29  and  C_32
REMARK                            x       y       z     vdW  Elec       q    Type
REMARK                         _______ _______ _______ _____ _____    ______ ____
ROOT
ATOM      1  N   UNL     1      -1.740  -0.577  -0.407  0.00  0.00    -0.295 N 
ATOM      2  C   UNL     1      -2.196  -0.759   0.859  0.00  0.00    +0.112 A 
ATOM      3  C   UNL     1      -3.331  -1.550   1.101  0.00  0.00    +0.019 A 
ATOM      4  C   UNL     1      -3.995  -2.155   0.020  0.00  0.00    -0.017 A 
ATOM      5  C   UNL     1      -3.507  -1.953  -1.268  0.00  0.00    +0.120 A 
ATOM      6  C   UNL     1      -2.360  -1.140  -1.459  0.00  0.00    +0.270 A 
ATOM      7  O   UNL     1      -1.932  -0.955  -2.584  0.00  0.00    -0.266 OA
ATOM      8  C   UNL     1      -5.214  -3.010   0.252  0.00  0.00    +0.046 C 
ENDROOT
BRANCH   3   9
ATOM      9  C   UNL     1      -3.818  -1.744   2.468  0.00  0.00    +0.032 C 
ATOM     10  C   UNL     1      -5.027  -1.240   2.837  0.00  0.00    +0.077 C 
ATOM     11  C   UNL     1      -5.929  -0.412   2.103  0.00  0.00    +0.258 C 
ATOM     12  O   UNL     1      -5.667  -0.050   0.970  0.00  0.00    -0.269 OA
ATOM     13  N   UNL     1      -7.057  -0.051   2.689  0.00  0.00    -0.255 N 
ATOM     14  C   UNL     1      -7.348  -0.453   3.946  0.00  0.00    +0.121 C 
ATOM     15  S   UNL     1      -8.734  -0.108   4.889  0.00  0.00    -0.027 S 
ATOM     16  S   UNL     1      -5.922  -1.441   4.372  0.00  0.00    -0.061 S 
BRANCH  13  17
ATOM     17  C   UNL     1      -8.007   0.798   1.965  0.00  0.00    +0.126 C 
BRANCH  17  18
ATOM     18  C   UNL     1      -8.987  -0.082   1.187  0.00  0.00    +0.144 C 
BRANCH  18  19
ATOM     19  C   UNL     1      -9.964   0.792   0.443  0.00  0.00    +0.358 C 
ATOM     20  O   UNL     1      -9.883   2.006   0.527  0.00  0.00    -0.246 OA
ATOM     21  O   UNL     1     -10.835   0.285  -0.244  0.00  0.00    -0.246 OA
ENDBRANCH  18  19
ENDBRANCH  17  18
ENDBRANCH  13  17
ENDBRANCH   3   9
BRANCH   2  22
ATOM     22  N   UNL     1      -1.547  -0.169   1.904  0.00  0.00    -0.320 N 
ATOM     23  C   UNL     1      -1.992   1.129   2.435  0.00  0.00    +0.088 C 
ATOM     24  C   UNL     1      -2.137   1.008   3.955  0.00  0.00    -0.060 C 
ATOM     25  N   UNL     1      -0.877   0.519   4.529  0.00  0.00    +0.380 N 
ATOM     26  C   UNL     1      -0.604  -0.842   4.048  0.00  0.00    -0.060 C 
ATOM     27  C   UNL     1      -0.387  -0.815   2.536  0.00  0.00    +0.088 C 
ATOM     28  C   UNL     1      -0.979   0.507   5.994  0.00  0.00    -0.096 C 
ATOM     29  H   UNL     1      -0.123   1.129   4.251  0.00  0.00    -0.082 HD
ENDBRANCH   2  22
BRANCH   1  31
ATOM     30  C   UNL     1      -0.987   1.683  -0.963  0.00  0.00    +0.027 C 
ATOM     31  C   UNL     1      -0.554   0.254  -0.631  0.00  0.00    +0.123 C 
ENDBRANCH   1  31
BRANCH   5  32
ATOM     32  C   UNL     1      -4.160  -2.555  -2.390  0.00  0.00    +0.105 C 
ATOM     33  N   UNL     1      -4.678  -3.034  -3.281  0.00  0.00    -0.191 NA
ENDBRANCH   5  32
TORSDOF 7
