REMARK  Name = ZINC39527350
REMARK  5 active torsions:
REMARK  status: ('A' for Active; 'I' for Inactive)
REMARK    1  A    between atoms: C_1  and  C_2
REMARK    2  A    between atoms: C_2  and  C_3
REMARK    3  A    between atoms: C_13  and  C_15
REMARK    4  A    between atoms: N_20  and  C_22
REMARK    5  A    between atoms: C_25  and  C_28
REMARK                            x       y       z     vdW  Elec       q    Type
REMARK                         _______ _______ _______ _____ _____    ______ ____
ROOT
ATOM      1  C   UNL     1       0.737  -0.512  -1.266  0.00  0.00    +0.107 C 
ATOM      2  C   UNL     1       0.841  -2.035  -1.234  0.00  0.00    -0.017 A 
ATOM      3  C   UNL     1       1.725  -2.724  -0.405  0.00  0.00    +0.013 A 
ATOM      4  C   UNL     1       1.760  -4.076  -0.427  0.00  0.00    +0.046 A 
ATOM      5  S   UNL     1       0.514  -4.456  -1.650  0.00  0.00    -0.101 S 
ATOM      6  C   UNL     1       0.046  -2.791  -2.040  0.00  0.00    -0.004 A 
ATOM      7  C   UNL     1      -0.975  -2.320  -3.024  0.00  0.00    +0.061 C 
ATOM      8  C   UNL     1      -1.306  -0.850  -2.725  0.00  0.00    +0.113 C 
ATOM      9  N   UNL     1      -0.048  -0.139  -2.450  0.00  0.00    -0.294 N 
ATOM     10  C   UNL     1       0.380   0.840  -3.273  0.00  0.00    +0.221 C 
ATOM     11  O   UNL     1       1.419   1.419  -3.037  0.00  0.00    -0.275 OA
ENDROOT
BRANCH  10  12
ATOM     12  C   UNL     1      -0.434   1.214  -4.485  0.00  0.00    +0.102 C 
ATOM     13  C   UNL     1      -0.504   0.040  -5.489  0.00  0.00    +0.110 C 
ATOM     14  C   UNL     1      -0.446   0.708  -6.845  0.00  0.00    +0.221 C 
ATOM     15  O   UNL     1      -0.751   0.179  -7.893  0.00  0.00    -0.275 OA
ATOM     16  N   UNL     1      -0.008   1.973  -6.719  0.00  0.00    -0.271 N 
ATOM     17  C   UNL     1       0.282   2.300  -5.318  0.00  0.00    +0.127 C 
BRANCH  16  18
ATOM     18  C   UNL     1       0.151   2.863  -7.787  0.00  0.00    +0.036 A 
ATOM     19  C   UNL     1      -0.043   2.427  -9.091  0.00  0.00    +0.024 A 
ATOM     20  C   UNL     1       0.115   3.308 -10.143  0.00  0.00    +0.005 A 
ATOM     21  C   UNL     1       0.465   4.623  -9.898  0.00  0.00    -0.050 A 
ATOM     22  C   UNL     1       0.659   5.061  -8.601  0.00  0.00    +0.005 A 
ATOM     23  C   UNL     1       0.497   4.186  -7.544  0.00  0.00    +0.024 A 
ATOM     24  C   UNL     1       0.636   5.582 -11.048  0.00  0.00    +0.044 C 
ENDBRANCH  16  18
ENDBRANCH  10  12
BRANCH   1  26
ATOM     25  C   UNL     1       0.029   1.516   0.010  0.00  0.00    +0.006 C 
ATOM     26  C   UNL     1       0.035  -0.013  -0.001  0.00  0.00    +0.024 C 
ENDBRANCH   1  26
TORSDOF 3
