REMARK  Name = ZINC05288180
REMARK  6 active torsions:
REMARK  status: ('A' for Active; 'I' for Inactive)
REMARK    1  A    between atoms: C_1  and  C_2
REMARK    2  A    between atoms: C_5  and  N_9
REMARK    3  A    between atoms: C_10  and  C_11
REMARK    4  A    between atoms: C_15  and  O_18
REMARK    5  A    between atoms: C_16  and  O_17
REMARK    6  A    between atoms: O_18  and  C_19
REMARK                            x       y       z     vdW  Elec       q    Type
REMARK                         _______ _______ _______ _____ _____    ______ ____
ROOT
ATOM      1  N   UNL     1      -2.539   5.166   0.053  0.00  0.00    -0.254 NA
ATOM      2  C   UNL     1      -2.522   3.862   0.045  0.00  0.00    +0.123 C 
ENDROOT
BRANCH   1   7
ATOM      3  C   UNL     1      -7.465   7.923   0.113  0.00  0.00    +0.044 C 
ATOM      4  C   UNL     1      -6.150   7.188   0.097  0.00  0.00    -0.049 A 
ATOM      5  C   UNL     1      -5.991   6.045   0.861  0.00  0.00    +0.005 A 
ATOM      6  C   UNL     1      -4.791   5.366   0.851  0.00  0.00    +0.029 A 
ATOM      7  C   UNL     1      -3.733   5.835   0.067  0.00  0.00    +0.078 A 
ATOM      8  C   UNL     1      -3.899   6.992  -0.697  0.00  0.00    +0.043 A 
ATOM      9  C   UNL     1      -5.108   7.659  -0.682  0.00  0.00    +0.020 A 
ATOM     10 BR   UNL     1      -2.473   7.641  -1.756  0.00  0.00    -0.048 Br
ENDBRANCH   1   7
BRANCH   2  11
ATOM     11  C   UNL     1      -1.240   3.144   0.030  0.00  0.00    +0.038 A 
ATOM     12  C   UNL     1      -1.217   1.745   0.017  0.00  0.00    +0.013 A 
ATOM     13  C   UNL     1      -0.013   1.076   0.008  0.00  0.00    +0.004 A 
ATOM     14  C   UNL     1       1.180   1.781   0.000  0.00  0.00    +0.049 A 
ATOM     15  C   UNL     1       1.174   3.166   0.008  0.00  0.00    +0.162 A 
ATOM     16  C   UNL     1      -0.033   3.857   0.023  0.00  0.00    +0.167 A 
BRANCH  16  17
ATOM     17  O   UNL     1      -0.042   5.215   0.030  0.00  0.00    -0.503 OA
ATOM     18  H   UNL     1      -0.053   5.613  -0.851  0.00  0.00    +0.292 HD
ENDBRANCH  16  17
BRANCH  15  19
ATOM     19  O   UNL     1       2.349   3.851   0.000  0.00  0.00    -0.491 OA
ATOM     20  C   UNL     1       3.551   3.077  -0.015  0.00  0.00    +0.277 C 
ENDBRANCH  15  19
ENDBRANCH   2  11
TORSDOF 4
