REMARK  Name = ZINC51998598
REMARK  6 active torsions:
REMARK  status: ('A' for Active; 'I' for Inactive)
REMARK    1  A    between atoms: C_1  and  O_2
REMARK    2  A    between atoms: O_2  and  C_3
REMARK    3  A    between atoms: C_4  and  C_11
REMARK    4  A    between atoms: C_11  and  N_12
REMARK    5  A    between atoms: N_12  and  C_13
REMARK    6  A    between atoms: C_19  and  O_21
REMARK                            x       y       z     vdW  Elec       q    Type
REMARK                         _______ _______ _______ _____ _____    ______ ____
ROOT
ATOM      1  C   UNL     1      -1.357  -0.595   2.407  0.00  0.00    -0.043 C 
ENDROOT
BRANCH   1   3
ATOM      2  C   UNL     1      -0.855  -0.399  -0.042  0.00  0.00    +0.135 A 
ATOM      3  C   UNL     1      -1.688  -0.870   0.962  0.00  0.00    -0.021 A 
ATOM      4  C   UNL     1      -2.820  -1.591   0.637  0.00  0.00    +0.020 A 
ATOM      5  C   UNL     1      -3.125  -1.844  -0.688  0.00  0.00    +0.019 A 
ATOM      6  C   UNL     1      -2.295  -1.376  -1.692  0.00  0.00    +0.034 A 
ATOM      7  C   UNL     1      -1.164  -0.649  -1.372  0.00  0.00    +0.061 A 
ATOM      8 BR   UNL     1      -0.035  -0.003  -2.744  0.00  0.00    -0.046 Br
ATOM      9 BR   UNL     1      -4.676  -2.831  -1.129  0.00  0.00    -0.050 Br
BRANCH   2  11
ATOM     10  C   UNL     1       1.472  -0.427   0.448  0.00  0.00    +0.277 C 
ATOM     11  O   UNL     1       0.260   0.311   0.276  0.00  0.00    -0.494 OA
ENDBRANCH   2  11
ENDBRANCH   1   3
BRANCH   1  12
ATOM     12  N   UNL     1      -1.714   0.791   2.736  0.00  0.00    +0.385 N 
ATOM     13  H   UNL     1      -1.260   1.418   2.089  0.00  0.00    -0.085 HD
ATOM     14  H   UNL     1      -2.714   0.906   2.669  0.00  0.00    -0.085 HD
BRANCH  12  15
ATOM     15  C   UNL     1      -1.277   1.098   4.104  0.00  0.00    -0.042 C 
ATOM     16  C   UNL     1      -2.058   0.233   5.095  0.00  0.00    -0.013 C 
ATOM     17  C   UNL     1      -1.602   0.552   6.520  0.00  0.00    -0.001 C 
ATOM     18  C   UNL     1      -1.861   2.030   6.819  0.00  0.00    +0.002 C 
ATOM     19  C   UNL     1      -1.080   2.895   5.828  0.00  0.00    +0.030 C 
ATOM     20  C   UNL     1      -1.536   2.576   4.403  0.00  0.00    +0.101 C 
BRANCH  20  21
ATOM     21  O   UNL     1      -0.806   3.384   3.478  0.00  0.00    -0.393 OA
ATOM     22  H   UNL     1      -0.923   4.335   3.608  0.00  0.00    +0.210 HD
ENDBRANCH  20  21
ENDBRANCH  12  15
ENDBRANCH   1  12
TORSDOF 5
