REMARK  Name = ZINC39768244
REMARK  10 active torsions:
REMARK  status: ('A' for Active; 'I' for Inactive)
REMARK    1  A    between atoms: C_1  and  C_2
REMARK    2  A    between atoms: C_5  and  N_9
REMARK    3  A    between atoms: C_6  and  C_8
REMARK    4  A    between atoms: C_10  and  C_12
REMARK    5  A    between atoms: C_12  and  C_13
REMARK    6  A    between atoms: C_16  and  S_19
REMARK    7  A    between atoms: N_17  and  C_18
REMARK    8  A    between atoms: S_19  and  C_20
REMARK    9  A    between atoms: C_20  and  C_21
REMARK   10  A    between atoms: N_23  and  C_24
REMARK                            x       y       z     vdW  Elec       q    Type
REMARK                         _______ _______ _______ _____ _____    ______ ____
ROOT
ATOM      1  C   UNL     1      -0.239  -6.888  -2.589  0.00  0.00    +0.143 A 
ATOM      2  N   UNL     1      -1.337  -7.073  -3.267  0.00  0.00    -0.133 NA
ATOM      3  N   UNL     1      -1.059  -7.493  -4.449  0.00  0.00    -0.122 NA
ATOM      4  C   UNL     1       0.241  -7.601  -4.591  0.00  0.00    +0.192 A 
ATOM      5  N   UNL     1       0.806  -7.213  -3.410  0.00  0.00    -0.309 N 
ATOM      6  C   UNL     1       2.234  -7.159  -3.087  0.00  0.00    +0.152 C 
ENDROOT
BRANCH   1   7
ATOM      7  C   UNL     1      -0.139  -6.401  -1.167  0.00  0.00    +0.172 C 
BRANCH   7   9
ATOM      8  N   UNL     1       0.044  -4.236   0.015  0.00  0.00    -0.285 N 
ATOM      9  C   UNL     1      -0.053  -4.897  -1.156  0.00  0.00    +0.225 C 
ATOM     10  O   UNL     1      -0.071  -4.281  -2.200  0.00  0.00    -0.275 OA
ATOM     11  H   UNL     1       0.128  -4.730   0.845  0.00  0.00    +0.155 HD
BRANCH   8  16
ATOM     12  C   UNL     1      -0.040   1.436   0.084  0.00  0.00    +0.044 C 
ATOM     13  C   UNL     1      -0.018  -0.070   0.066  0.00  0.00    -0.050 A 
ATOM     14  C   UNL     1       0.586  -0.739  -0.984  0.00  0.00    +0.005 A 
ATOM     15  C   UNL     1       0.608  -2.119  -1.004  0.00  0.00    +0.024 A 
ATOM     16  C   UNL     1       0.024  -2.837   0.032  0.00  0.00    +0.036 A 
ATOM     17  C   UNL     1      -0.580  -2.163   1.085  0.00  0.00    -0.029 A 
ATOM     18  C   UNL     1      -0.595  -0.782   1.101  0.00  0.00    +0.008 A 
ATOM     19  C   UNL     1      -1.215  -2.937   2.211  0.00  0.00    +0.045 C 
ENDBRANCH   8  16
ENDBRANCH   7   9
ENDBRANCH   1   7
BRANCH   4  20
ATOM     20  S   UNL     1       1.097  -8.137  -6.035  0.00  0.00    -0.077 S 
BRANCH  20  21
ATOM     21  C   UNL     1      -0.226  -8.488  -7.225  0.00  0.00    +0.173 C 
BRANCH  21  22
ATOM     22  C   UNL     1       0.377  -8.962  -8.522  0.00  0.00    +0.228 C 
ATOM     23  O   UNL     1       1.581  -9.055  -8.633  0.00  0.00    -0.275 OA
ATOM     24  N   UNL     1      -0.422  -9.283  -9.559  0.00  0.00    -0.284 N 
ATOM     25  H   UNL     1      -1.378  -9.133  -9.499  0.00  0.00    +0.155 HD
BRANCH  24  26
ATOM     26  C   UNL     1       0.129  -9.834 -10.722  0.00  0.00    +0.053 A 
ATOM     27  C   UNL     1       1.336 -10.518 -10.664  0.00  0.00    +0.046 A 
ATOM     28  C   UNL     1       1.877 -11.060 -11.814  0.00  0.00    +0.061 A 
ATOM     29  C   UNL     1       1.217 -10.922 -13.024  0.00  0.00    +0.061 A 
ATOM     30  C   UNL     1       0.015 -10.242 -13.085  0.00  0.00    +0.043 A 
ATOM     31  C   UNL     1      -0.534  -9.702 -11.936  0.00  0.00    +0.064 A 
ATOM     32 CL   UNL     1      -2.047  -8.854 -12.012  0.00  0.00    -0.082 Cl
ATOM     33 CL   UNL     1       1.900 -11.604 -14.467  0.00  0.00    -0.082 Cl
ATOM     34 CL   UNL     1       3.387 -11.915 -11.742  0.00  0.00    -0.082 Cl
ENDBRANCH  24  26
ENDBRANCH  21  22
ENDBRANCH  20  21
ENDBRANCH   4  20
TORSDOF 7
