REMARK  Name = ZINC35761300
REMARK  14 active torsions:
REMARK  status: ('A' for Active; 'I' for Inactive)
REMARK    1  A    between atoms: C_1  and  C_2
REMARK    2  A    between atoms: C_5  and  C_8
REMARK    3  A    between atoms: C_8  and  N_9
REMARK    4  A    between atoms: N_9  and  C_10
REMARK    5  A    between atoms: C_10  and  C_11
REMARK    6  A    between atoms: C_11  and  C_12
REMARK    7  A    between atoms: C_22  and  C_24
REMARK    8  A    between atoms: C_24  and  N_25
REMARK    9  A    between atoms: N_25  and  C_26
REMARK   10  A    between atoms: C_29  and  C_31
REMARK   11  A    between atoms: C_33  and  O_39
REMARK   12  A    between atoms: C_35  and  O_37
REMARK   13  A    between atoms: O_37  and  C_38
REMARK   14  A    between atoms: O_39  and  C_40
REMARK                            x       y       z     vdW  Elec       q    Type
REMARK                         _______ _______ _______ _____ _____    ______ ____
ROOT
ATOM      1  N   UNL     1       0.168  -4.837  -0.889  0.00  0.00    -0.296 N 
ATOM      2  C   UNL     1       1.164  -5.030  -1.776  0.00  0.00    +0.233 C 
ATOM      3  O   UNL     1       1.952  -5.938  -1.616  0.00  0.00    -0.274 OA
ENDROOT
BRANCH   1   4
ATOM      4  C   UNL     1      -0.850  -3.815  -1.141  0.00  0.00    +0.143 C 
BRANCH   4   9
ATOM      5  C   UNL     1      -5.438  -6.246  -3.679  0.00  0.00    +0.044 C 
ATOM      6  C   UNL     1      -4.241  -5.612  -3.017  0.00  0.00    -0.050 A 
ATOM      7  C   UNL     1      -4.144  -5.593  -1.638  0.00  0.00    +0.003 A 
ATOM      8  C   UNL     1      -3.046  -5.011  -1.031  0.00  0.00    +0.005 A 
ATOM      9  C   UNL     1      -2.046  -4.450  -1.803  0.00  0.00    -0.030 A 
ATOM     10  C   UNL     1      -2.143  -4.470  -3.182  0.00  0.00    +0.005 A 
ATOM     11  C   UNL     1      -3.239  -5.056  -3.789  0.00  0.00    +0.003 A 
ENDBRANCH   4   9
ENDBRANCH   1   4
BRANCH   1  12
ATOM     12  C   UNL     1       0.104  -5.650   0.328  0.00  0.00    +0.113 C 
BRANCH  12  13
ATOM     13  C   UNL     1      -0.725  -6.907   0.059  0.00  0.00    +0.056 C 
BRANCH  13  14
ATOM     14  C   UNL     1      -0.791  -7.743   1.312  0.00  0.00    -0.021 A 
ATOM     15  C   UNL     1       0.016  -8.768   1.631  0.00  0.00    +0.087 A 
ATOM     16  N   UNL     1      -0.346  -9.285   2.845  0.00  0.00    -0.360 N 
ATOM     17  H   UNL     1       0.090 -10.031   3.285  0.00  0.00    +0.165 HD
ATOM     18  C   UNL     1      -1.420  -8.588   3.350  0.00  0.00    +0.047 A 
ATOM     19  C   UNL     1      -1.742  -7.587   2.414  0.00  0.00    +0.003 A 
ATOM     20  C   UNL     1      -2.801  -6.713   2.666  0.00  0.00    +0.010 A 
ATOM     21  C   UNL     1      -3.518  -6.831   3.823  0.00  0.00    +0.001 A 
ATOM     22  C   UNL     1      -3.202  -7.814   4.751  0.00  0.00    +0.002 A 
ATOM     23  C   UNL     1      -2.167  -8.693   4.519  0.00  0.00    +0.026 A 
ENDBRANCH  13  14
ENDBRANCH  12  13
ENDBRANCH   1  12
BRANCH   2  24
ATOM     24  C   UNL     1       1.298  -4.118  -2.968  0.00  0.00    +0.204 C 
BRANCH  24  25
ATOM     25  N   UNL     1       2.511  -4.464  -3.714  0.00  0.00    -0.286 N 
ATOM     26  C   UNL     1       3.585  -3.651  -3.668  0.00  0.00    +0.248 C 
ATOM     27  O   UNL     1       4.557  -3.889  -4.358  0.00  0.00    -0.270 OA
BRANCH  26  28
ATOM     28  C   UNL     1       3.581  -2.470  -2.778  0.00  0.00    +0.044 A 
ATOM     29  C   UNL     1       2.780  -2.458  -1.636  0.00  0.00    +0.059 A 
ATOM     30  C   UNL     1       2.780  -1.350  -0.804  0.00  0.00    +0.124 A 
ATOM     31  C   UNL     1       3.575  -0.254  -1.106  0.00  0.00    +0.091 A 
ATOM     32  C   UNL     1       4.373  -0.262  -2.241  0.00  0.00    +0.124 A 
ATOM     33  C   UNL     1       4.383  -1.368  -3.075  0.00  0.00    +0.059 A 
BRANCH  32  34
ATOM     34  O   UNL     1       5.150   0.815  -2.532  0.00  0.00    -0.495 OA
ATOM     35  C   UNL     1       5.094   1.919  -1.627  0.00  0.00    +0.277 C 
ENDBRANCH  32  34
BRANCH  30  36
ATOM     36  O   UNL     1       2.000  -1.337   0.308  0.00  0.00    -0.495 OA
ATOM     37  C   UNL     1       2.048  -0.162   1.121  0.00  0.00    +0.277 C 
ENDBRANCH  30  36
ENDBRANCH  26  28
BRANCH  25  38
ATOM     38  C   UNL     1       2.556  -5.693  -4.509  0.00  0.00    +0.077 C 
ATOM     39  C   UNL     1       3.931  -6.200  -4.950  0.00  0.00    +0.024 C 
ATOM     40  C   UNL     1       2.983  -5.572  -5.974  0.00  0.00    +0.024 C 
ENDBRANCH  25  38
ENDBRANCH  24  25
ENDBRANCH   2  24
TORSDOF 11
