REMARK  Name = ZINC12602271
REMARK  6 active torsions:
REMARK  status: ('A' for Active; 'I' for Inactive)
REMARK    1  A    between atoms: C_1  and  C_2
REMARK    2  A    between atoms: C_4  and  C_15
REMARK    3  A    between atoms: C_5  and  C_14
REMARK    4  A    between atoms: N_6  and  C_7
REMARK    5  A    between atoms: N_17  and  N_18
REMARK    6  A    between atoms: C_24  and  C_26
REMARK                            x       y       z     vdW  Elec       q    Type
REMARK                         _______ _______ _______ _____ _____    ______ ____
ROOT
ATOM      1  C   UNL     1      -0.070   3.463  -4.164  0.00  0.00    +0.265 C 
ATOM      2  O   UNL     1       1.147   3.473  -4.142  0.00  0.00    -0.268 OA
ATOM      3  N   UNL     1      -0.757   2.877  -3.164  0.00  0.00    -0.203 N 
ATOM      4  H   UNL     1      -1.727   2.870  -3.181  0.00  0.00    +0.178 HD
ENDROOT
BRANCH   1   8
ATOM      5  C   UNL     1      -3.796   5.147  -7.216  0.00  0.00    +0.064 C 
ATOM      6  C   UNL     1      -2.450   4.827  -6.617  0.00  0.00    +0.022 A 
ATOM      7  C   UNL     1      -2.245   4.169  -5.462  0.00  0.00    +0.036 A 
ATOM      8  C   UNL     1      -0.790   4.092  -5.283  0.00  0.00    +0.059 A 
ATOM      9  C   UNL     1      -0.240   4.727  -6.362  0.00  0.00    +0.033 A 
ATOM     10  N   UNL     1      -1.240   5.159  -7.158  0.00  0.00    -0.317 N 
ATOM     11  C   UNL     1       1.234   4.910  -6.621  0.00  0.00    +0.064 C 
BRANCH  10  12
ATOM     12  C   UNL     1      -1.063   5.853  -8.363  0.00  0.00    +0.047 A 
ATOM     13  C   UNL     1      -0.450   5.230  -9.441  0.00  0.00    +0.029 A 
ATOM     14  C   UNL     1      -0.281   5.914 -10.629  0.00  0.00    +0.040 A 
ATOM     15  C   UNL     1      -0.714   7.225 -10.742  0.00  0.00    +0.124 A 
ATOM     16  C   UNL     1      -1.321   7.850  -9.665  0.00  0.00    +0.040 A 
ATOM     17  C   UNL     1      -1.496   7.167  -8.478  0.00  0.00    +0.029 A 
ATOM     18  F   UNL     1      -0.544   7.894 -11.903  0.00  0.00    -0.205 F 
ENDBRANCH  10  12
ENDBRANCH   1   8
BRANCH   3  19
ATOM     19  N   UNL     1      -0.071   2.279  -2.099  0.00  0.00    -0.189 NA
ATOM     20  C   UNL     1      -0.724   1.757  -1.130  0.00  0.00    +0.040 C 
ATOM     21  C   UNL     1      -2.228   1.892  -1.046  0.00  0.00    +0.053 C 
ATOM     22  C   UNL     1      -2.593   2.413   0.348  0.00  0.00    +0.006 C 
ATOM     23  C   UNL     1      -1.982   1.496   1.409  0.00  0.00    +0.001 C 
ATOM     24  C   UNL     1      -0.452   1.540   1.320  0.00  0.00    +0.010 C 
ATOM     25  C   UNL     1      -0.011   0.988  -0.039  0.00  0.00    +0.038 C 
BRANCH  25  26
ATOM     26  C   UNL     1       1.502   1.157  -0.196  0.00  0.00    -0.002 C 
ATOM     27  C   UNL     1       1.960   0.478  -1.488  0.00  0.00    +0.004 C 
ATOM     28  C   UNL     1       3.472   0.647  -1.645  0.00  0.00    +0.000 C 
ATOM     29  C   UNL     1       4.184   0.005  -0.453  0.00  0.00    +0.000 C 
ATOM     30  C   UNL     1       3.726   0.684   0.840  0.00  0.00    +0.000 C 
ATOM     31  C   UNL     1       2.213   0.515   0.997  0.00  0.00    +0.004 C 
ENDBRANCH  25  26
ENDBRANCH   3  19
TORSDOF 4
