REMARK  Name = ZINC08733073
REMARK  4 active torsions:
REMARK  status: ('A' for Active; 'I' for Inactive)
REMARK    1  A    between atoms: C_1  and  C_2
REMARK    2  A    between atoms: C_16  and  O_17
REMARK    3  A    between atoms: C_24  and  O_25
REMARK    4  A    between atoms: N_26  and  C_27
REMARK                            x       y       z     vdW  Elec       q    Type
REMARK                         _______ _______ _______ _____ _____    ______ ____
ROOT
ATOM      1  C   UNL     1       1.221  -2.188  -0.087  0.00  0.00    +0.044 C 
ATOM      2  C   UNL     1       1.207  -0.681  -0.062  0.00  0.00    -0.047 A 
ATOM      3  C   UNL     1       0.002  -0.004  -0.032  0.00  0.00    +0.005 A 
ATOM      4  C   UNL     1      -0.017   1.379  -0.008  0.00  0.00    +0.032 A 
ATOM      5  C   UNL     1       1.176   2.086  -0.015  0.00  0.00    +0.107 A 
ATOM      6  C   UNL     1       2.391   1.404  -0.046  0.00  0.00    +0.154 A 
ATOM      7  C   UNL     1       2.400   0.018  -0.069  0.00  0.00    +0.051 A 
ATOM      8  O   UNL     1       3.563   2.090  -0.053  0.00  0.00    -0.452 OA
ATOM      9  C   UNL     1       3.580   3.446  -0.030  0.00  0.00    +0.156 A 
ATOM     10  C   UNL     1       4.787   4.116  -0.037  0.00  0.00    +0.074 A 
ATOM     11  C   UNL     1       4.824   5.510  -0.015  0.00  0.00    +0.051 A 
ATOM     12  C   UNL     1       3.630   6.244   0.016  0.00  0.00    +0.053 A 
ATOM     13  C   UNL     1       2.391   5.562   0.024  0.00  0.00    +0.059 A 
ATOM     14  C   UNL     1       2.372   4.167   0.002  0.00  0.00    +0.118 A 
ATOM     15  N   UNL     1       1.165   3.485   0.009  0.00  0.00    -0.240 NA
ATOM     16  C   UNL     1       1.133   6.320   0.056  0.00  0.00    +0.135 A 
ATOM     17  C   UNL     1       1.166   7.797   0.080  0.00  0.00    +0.028 A 
ATOM     18  C   UNL     1      -0.021   8.525   0.109  0.00  0.00    +0.012 A 
ATOM     19  C   UNL     1       0.019   9.907   0.131  0.00  0.00    +0.001 A 
ATOM     20  C   UNL     1       1.232  10.573   0.122  0.00  0.00    +0.001 A 
ATOM     21  C   UNL     1       2.420   9.866   0.093  0.00  0.00    +0.012 A 
ATOM     22  C   UNL     1       2.398   8.474   0.071  0.00  0.00    +0.028 A 
ATOM     23  C   UNL     1       3.662   7.710   0.039  0.00  0.00    +0.134 A 
ATOM     24  N   UNL     1       6.042   6.170  -0.024  0.00  0.00    -0.381 N 
ATOM     25  H   UNL     1       6.073   7.267  -0.102  0.00  0.00    +0.160 HD
ENDROOT
BRANCH  24  26
ATOM     26  C   UNL     1       7.289   5.408   0.072  0.00  0.00    +0.079 C 
ATOM     27  C   UNL     1       7.611   5.139   1.543  0.00  0.00    +0.024 C 
ATOM     28  C   UNL     1       8.914   4.342   1.642  0.00  0.00    +0.002 C 
ATOM     29  C   UNL     1      10.052   5.145   1.010  0.00  0.00    +0.000 C 
ATOM     30  C   UNL     1       9.730   5.414  -0.462  0.00  0.00    +0.002 C 
ATOM     31  C   UNL     1       8.428   6.211  -0.561  0.00  0.00    +0.024 C 
ENDBRANCH  24  26
BRANCH  16  32
ATOM     32  O   UNL     1       0.067   5.734   0.063  0.00  0.00    -0.505 OA
ATOM     33  H   UNL     1      -0.874   6.303   0.087  0.00  0.00    +0.292 HD
ENDBRANCH  16  32
BRANCH  23  34
ATOM     34  O   UNL     1       4.729   8.296   0.032  0.00  0.00    -0.505 OA
ATOM     35  H   UNL     1       4.752   9.396   0.050  0.00  0.00    +0.292 HD
ENDBRANCH  23  34
TORSDOF 3
