REMARK  Name = ZINC37844797
REMARK  4 active torsions:
REMARK  status: ('A' for Active; 'I' for Inactive)
REMARK    1  A    between atoms: C_3  and  N_12
REMARK    2  A    between atoms: C_6  and  S_7
REMARK    3  A    between atoms: S_7  and  N_10
REMARK    4  A    between atoms: C_13  and  C_15
REMARK                            x       y       z     vdW  Elec       q    Type
REMARK                         _______ _______ _______ _____ _____    ______ ____
ROOT
ATOM      1  C   UNL     1      -0.019   1.391  -0.018  0.00  0.00    +0.030 A 
ATOM      2  C   UNL     1       1.169   2.095  -0.015  0.00  0.00    +0.026 A 
ATOM      3  C   UNL     1       2.379   1.414  -0.023  0.00  0.00    +0.048 A 
ATOM      4  C   UNL     1       2.390   0.024  -0.033  0.00  0.00    +0.041 A 
ATOM      5  C   UNL     1       1.198  -0.674  -0.036  0.00  0.00    +0.045 A 
ATOM      6  C   UNL     1      -0.005   0.008  -0.028  0.00  0.00    +0.106 A 
ATOM      7 BR   UNL     1       4.034  -0.909  -0.045  0.00  0.00    -0.048 Br
ENDROOT
BRANCH   3   8
ATOM      8  N   UNL     1       3.583   2.125  -0.021  0.00  0.00    -0.279 N 
ATOM      9  C   UNL     1       3.627   3.376   0.478  0.00  0.00    +0.265 C 
ATOM     10  O   UNL     1       2.645   3.850   1.018  0.00  0.00    -0.268 OA
ATOM     11  H   UNL     1       4.388   1.717  -0.379  0.00  0.00    +0.155 HD
BRANCH   9  12
ATOM     12  C   UNL     1       4.858   4.166   0.371  0.00  0.00    +0.103 A 
ATOM     13  C   UNL     1       5.046   5.449   0.839  0.00  0.00    +0.047 A 
ATOM     14  C   UNL     1       6.360   5.812   0.525  0.00  0.00    +0.036 A 
ATOM     15  C   UNL     1       6.938   4.768  -0.115  0.00  0.00    +0.098 A 
ATOM     16  N   UNL     1       6.037   3.759  -0.211  0.00  0.00    -0.356 N 
ATOM     17  H   UNL     1       6.197   2.895  -0.622  0.00  0.00    +0.165 HD
ATOM     18 BR   UNL     1       7.182   7.468   0.923  0.00  0.00    -0.049 Br
ENDBRANCH   9  12
ENDBRANCH   3   8
BRANCH   6  19
ATOM     19  S   UNL     1      -1.523  -0.886  -0.031  0.00  0.00    +0.056 S 
ATOM     20  O   UNL     1      -1.240  -2.170   0.510  0.00  0.00    -0.153 OA
ATOM     21  O   UNL     1      -2.504  -0.024   0.529  0.00  0.00    -0.153 OA
BRANCH  19  22
ATOM     22  N   UNL     1      -1.949  -1.123  -1.613  0.00  0.00    -0.204 NA
ATOM     23  H   UNL     1      -1.383  -0.783  -2.324  0.00  0.00    +0.144 HD
ATOM     24  H   UNL     1      -2.764  -1.602  -1.830  0.00  0.00    +0.144 HD
ENDBRANCH  19  22
ENDBRANCH   6  19
TORSDOF 4
