REMARK  Name = ZINC38492424
REMARK  12 active torsions:
REMARK  status: ('A' for Active; 'I' for Inactive)
REMARK    1  A    between atoms: C_1  and  C_2
REMARK    2  A    between atoms: C_5  and  N_8
REMARK    3  A    between atoms: C_10  and  C_15
REMARK    4  A    between atoms: N_17  and  C_18
REMARK    5  A    between atoms: C_20  and  C_26
REMARK    6  A    between atoms: N_22  and  C_25
REMARK    7  A    between atoms: N_28  and  C_29
REMARK    8  A    between atoms: N_28  and  C_32
REMARK    9  A    between atoms: C_29  and  C_30
REMARK   10  A    between atoms: C_29  and  C_31
REMARK   11  A    between atoms: C_32  and  C_33
REMARK   12  A    between atoms: C_32  and  C_34
REMARK                            x       y       z     vdW  Elec       q    Type
REMARK                         _______ _______ _______ _____ _____    ______ ____
ROOT
ATOM      1  C   UNL     1       0.014  -9.633  -2.926  0.00  0.00    +0.222 C 
ATOM      2  O   UNL     1      -0.390  -8.557  -3.315  0.00  0.00    -0.275 OA
ATOM      3  N   UNL     1      -0.200 -10.011  -1.651  0.00  0.00    -0.281 N 
ATOM      4  H   UNL     1       0.181 -10.840  -1.320  0.00  0.00    +0.155 HD
ENDROOT
BRANCH   3   5
ATOM      5  C   UNL     1      -0.975  -9.209  -0.802  0.00  0.00    +0.099 A 
ATOM      6  C   UNL     1      -2.077  -9.723  -0.184  0.00  0.00    +0.043 A 
ATOM      7  C   UNL     1      -2.839  -8.887   0.668  0.00  0.00    +0.055 A 
ATOM      8  C   UNL     1      -2.454  -7.576   0.857  0.00  0.00    +0.102 A 
ATOM      9  N   UNL     1      -1.362  -7.086   0.238  0.00  0.00    -0.316 N 
ATOM     10  C   UNL     1      -0.617  -7.860  -0.573  0.00  0.00    +0.272 A 
ATOM     11  O   UNL     1       0.369  -7.394  -1.117  0.00  0.00    -0.266 OA
ATOM     12  C   UNL     1      -0.976  -5.690   0.456  0.00  0.00    +0.152 C 
BRANCH   7  13
ATOM     13  C   UNL     1      -4.036  -9.414   1.349  0.00  0.00    +0.249 C 
ATOM     14  O   UNL     1      -4.309  -9.043   2.474  0.00  0.00    -0.270 OA
ATOM     15  N   UNL     1      -4.828 -10.308   0.724  0.00  0.00    -0.292 N 
BRANCH  15  16
ATOM     16  C   UNL     1      -4.240 -11.308  -0.171  0.00  0.00    +0.070 C 
ATOM     17  C   UNL     1      -3.678 -10.613  -1.413  0.00  0.00    +0.028 C 
ATOM     18  C   UNL     1      -3.112 -12.043   0.556  0.00  0.00    +0.028 C 
ENDBRANCH  15  16
BRANCH  15  19
ATOM     19  C   UNL     1      -6.277 -10.280   0.939  0.00  0.00    +0.070 C 
ATOM     20  C   UNL     1      -6.991 -10.162  -0.409  0.00  0.00    +0.028 C 
ATOM     21  C   UNL     1      -6.714 -11.569   1.637  0.00  0.00    +0.028 C 
ENDBRANCH  15  19
ENDBRANCH   7  13
ENDBRANCH   3   5
BRANCH   1  24
ATOM     22  N   UNL     1      -0.272 -10.398  -6.030  0.00  0.00    -0.271 N 
ATOM     23  C   UNL     1       0.884  -9.907  -5.270  0.00  0.00    +0.127 C 
ATOM     24  C   UNL     1       0.757 -10.545  -3.868  0.00  0.00    +0.102 C 
ATOM     25  C   UNL     1      -0.069 -11.816  -4.174  0.00  0.00    +0.110 C 
ATOM     26  C   UNL     1      -0.826 -11.469  -5.437  0.00  0.00    +0.221 C 
ATOM     27  O   UNL     1      -1.792 -12.072  -5.856  0.00  0.00    -0.275 OA
BRANCH  22  32
ATOM     28  C   UNL     1      -2.170  -8.058 -10.836  0.00  0.00    +0.044 C 
ATOM     29  C   UNL     1      -1.666  -8.679  -9.560  0.00  0.00    -0.050 A 
ATOM     30  C   UNL     1      -2.228  -9.854  -9.095  0.00  0.00    +0.005 A 
ATOM     31  C   UNL     1      -1.768 -10.427  -7.926  0.00  0.00    +0.024 A 
ATOM     32  C   UNL     1      -0.740  -9.821  -7.215  0.00  0.00    +0.036 A 
ATOM     33  C   UNL     1      -0.177  -8.641  -7.684  0.00  0.00    +0.024 A 
ATOM     34  C   UNL     1      -0.638  -8.076  -8.858  0.00  0.00    +0.005 A 
ENDBRANCH  22  32
ENDBRANCH   1  24
TORSDOF 6
