REMARK  Name = ZINC01930744
REMARK  11 active torsions:
REMARK  status: ('A' for Active; 'I' for Inactive)
REMARK    1  A    between atoms: C_1  and  C_2
REMARK    2  A    between atoms: C_2  and  O_3
REMARK    3  A    between atoms: O_3  and  C_4
REMARK    4  A    between atoms: C_4  and  C_6
REMARK    5  A    between atoms: C_10  and  N_11
REMARK    6  A    between atoms: C_12  and  C_14
REMARK    7  A    between atoms: C_14  and  N_15
REMARK    8  A    between atoms: N_15  and  C_16
REMARK    9  A    between atoms: N_15  and  C_23
REMARK   10  A    between atoms: C_16  and  C_17
REMARK   11  A    between atoms: C_23  and  C_24
REMARK                            x       y       z     vdW  Elec       q    Type
REMARK                         _______ _______ _______ _____ _____    ______ ____
ROOT
ATOM      1  N   UNL     1      -0.172   2.130  -1.372  0.00  0.00    -0.281 N 
ATOM      2  C   UNL     1       1.030   2.578  -0.961  0.00  0.00    +0.201 C 
ATOM      3  O   UNL     1       1.977   1.821  -0.915  0.00  0.00    -0.278 OA
ATOM      4  H   UNL     1      -1.030   2.817  -1.413  0.00  0.00    +0.155 HD
ENDROOT
BRANCH   1   9
ATOM      5  C   UNL     1      -1.477   0.161  -2.185  0.00  0.00    +0.091 A 
ATOM      6  C   UNL     1      -1.370  -1.250  -2.519  0.00  0.00    -0.021 A 
ATOM      7  C   UNL     1      -0.144  -1.790  -2.349  0.00  0.00    -0.004 A 
ATOM      8  S   UNL     1       0.862  -0.455  -1.763  0.00  0.00    -0.077 S 
ATOM      9  C   UNL     1      -0.328   0.804  -1.744  0.00  0.00    +0.086 A 
ATOM     10  C   UNL     1       0.262  -3.209  -2.603  0.00  0.00    +0.043 C 
ATOM     11  C   UNL     1      -1.010  -4.059  -2.732  0.00  0.00    +0.005 C 
ATOM     12  C   UNL     1      -1.981  -3.355  -3.684  0.00  0.00    +0.005 C 
ATOM     13  C   UNL     1      -2.535  -2.092  -3.021  0.00  0.00    +0.037 C 
BRANCH   5  14
ATOM     14  C   UNL     1      -2.747   0.877  -2.313  0.00  0.00    +0.342 C 
ATOM     15  O   UNL     1      -3.034   1.425  -3.361  0.00  0.00    -0.245 OA
BRANCH  14  16
ATOM     16  O   UNL     1      -3.600   0.930  -1.269  0.00  0.00    -0.461 OA
BRANCH  16  18
ATOM     17  C   UNL     1      -5.672   1.609  -0.184  0.00  0.00    +0.048 C 
ATOM     18  C   UNL     1      -4.841   1.658  -1.468  0.00  0.00    +0.229 C 
ENDBRANCH  16  18
ENDBRANCH  14  16
ENDBRANCH   5  14
ENDBRANCH   1   9
BRANCH   2  19
ATOM     19  C   UNL     1       1.200   4.020  -0.556  0.00  0.00    +0.020 C 
BRANCH  19  20
ATOM     20  N   UNL     1       2.592   4.255  -0.151  0.00  0.00    +0.391 N 
ATOM     21  H   UNL     1       3.245   3.886  -0.956  0.00  0.00    -0.080 HD
BRANCH  20  22
ATOM     22  C   UNL     1       2.855   5.690   0.022  0.00  0.00    -0.042 C 
BRANCH  22  23
ATOM     23  C   UNL     1       4.343   5.929   0.038  0.00  0.00    -0.064 A 
ATOM     24  C   UNL     1       5.017   6.009   1.242  0.00  0.00    +0.002 A 
ATOM     25  C   UNL     1       6.383   6.224   1.257  0.00  0.00    +0.000 A 
ATOM     26  C   UNL     1       7.072   6.369   0.068  0.00  0.00    +0.000 A 
ATOM     27  C   UNL     1       6.397   6.295  -1.136  0.00  0.00    +0.000 A 
ATOM     28  C   UNL     1       5.033   6.075  -1.151  0.00  0.00    +0.002 A 
ENDBRANCH  22  23
ENDBRANCH  20  22
BRANCH  20  29
ATOM     29  C   UNL     1       2.918   3.509   1.071  0.00  0.00    -0.042 C 
BRANCH  29  30
ATOM     30  C   UNL     1       1.911   3.838   2.144  0.00  0.00    -0.064 A 
ATOM     31  C   UNL     1       2.087   4.958   2.936  0.00  0.00    +0.002 A 
ATOM     32  C   UNL     1       1.161   5.263   3.916  0.00  0.00    +0.000 A 
ATOM     33  C   UNL     1       0.065   4.443   4.111  0.00  0.00    +0.000 A 
ATOM     34  C   UNL     1      -0.107   3.320   3.323  0.00  0.00    +0.000 A 
ATOM     35  C   UNL     1       0.816   3.018   2.339  0.00  0.00    +0.002 A 
ENDBRANCH  29  30
ENDBRANCH  20  29
ENDBRANCH  19  20
ENDBRANCH   2  19
TORSDOF 10
