REMARK  Name = ZINC59169011
REMARK  14 active torsions:
REMARK  status: ('A' for Active; 'I' for Inactive)
REMARK    1  A    between atoms: C_1  and  C_2
REMARK    2  A    between atoms: C_2  and  C_32
REMARK    3  A    between atoms: C_4  and  N_10
REMARK    4  A    between atoms: C_6  and  C_8
REMARK    5  A    between atoms: C_6  and  C_9
REMARK    6  A    between atoms: N_10  and  C_11
REMARK    7  A    between atoms: N_10  and  C_19
REMARK    8  A    between atoms: C_11  and  C_12
REMARK    9  A    between atoms: C_19  and  N_21
REMARK   10  A    between atoms: N_21  and  C_22
REMARK   11  A    between atoms: C_25  and  O_30
REMARK   12  A    between atoms: C_27  and  O_28
REMARK   13  A    between atoms: O_28  and  C_29
REMARK   14  A    between atoms: O_30  and  C_31
REMARK                            x       y       z     vdW  Elec       q    Type
REMARK                         _______ _______ _______ _____ _____    ______ ____
ROOT
ATOM      1  N   UNL     1       2.831  -0.680  -2.665  0.00  0.00    -0.305 N 
ENDROOT
BRANCH   1   5
ATOM      2  C   UNL     1       1.289   2.405   0.074  0.00  0.00    -0.010 C 
ATOM      3  C   UNL     1       1.043   0.907   0.282  0.00  0.00    -0.072 C 
ATOM      4  C   UNL     1       1.213   0.168  -1.041  0.00  0.00    +0.009 C 
ATOM      5  C   UNL     1       2.694   0.061  -1.405  0.00  0.00    +0.073 C 
ATOM      6  C   UNL     1       3.405  -0.705  -0.289  0.00  0.00    +0.009 C 
ATOM      7  C   UNL     1       3.251   0.026   1.040  0.00  0.00    -0.072 C 
ATOM      8  N   UNL     1       1.876   0.378   1.347  0.00  0.00    +0.386 N 
ATOM      9  C   UNL     1       3.753  -0.924   2.151  0.00  0.00    -0.010 C 
ATOM     10  C   UNL     1       4.159   1.260   1.060  0.00  0.00    -0.010 C 
ATOM     11  C   UNL     1      -0.433   0.746   0.714  0.00  0.00    -0.010 C 
ATOM     12  H   UNL     1       1.882   1.055   2.117  0.00  0.00    -0.084 HD
ATOM     13  H   UNL     1       1.413  -0.451   1.734  0.00  0.00    -0.084 HD
ENDBRANCH   1   5
BRANCH   1  14
ATOM     14  C   UNL     1       2.394  -1.952  -2.749  0.00  0.00    +0.138 C 
ATOM     15  S   UNL     1       1.603  -2.675  -1.415  0.00  0.00    -0.018 S 
BRANCH  14  16
ATOM     16  N   UNL     1       2.580  -2.654  -3.885  0.00  0.00    -0.294 N 
ATOM     17  H   UNL     1       3.236  -3.369  -3.911  0.00  0.00    +0.154 HD
BRANCH  16  18
ATOM     18  C   UNL     1       1.826  -2.352  -5.028  0.00  0.00    +0.075 A 
ATOM     19  C   UNL     1       0.903  -1.317  -4.998  0.00  0.00    +0.030 A 
ATOM     20  C   UNL     1       0.160  -1.020  -6.124  0.00  0.00    +0.047 A 
ATOM     21  C   UNL     1       0.335  -1.755  -7.287  0.00  0.00    +0.124 A 
ATOM     22  C   UNL     1       1.256  -2.791  -7.323  0.00  0.00    +0.093 A 
ATOM     23  C   UNL     1       2.007  -3.088  -6.197  0.00  0.00    +0.145 A 
BRANCH  23  24
ATOM     24  O   UNL     1       2.915  -4.099  -6.232  0.00  0.00    -0.493 OA
ATOM     25  C   UNL     1       3.048  -4.810  -7.464  0.00  0.00    +0.277 C 
ENDBRANCH  23  24
BRANCH  21  26
ATOM     26  O   UNL     1      -0.399  -1.461  -8.394  0.00  0.00    -0.495 OA
ATOM     27  C   UNL     1      -1.330  -0.382  -8.287  0.00  0.00    +0.277 C 
ENDBRANCH  21  26
ENDBRANCH  16  18
ENDBRANCH  14  16
ENDBRANCH   1  14
BRANCH   1  28
ATOM     28  C   UNL     1       3.443  -0.036  -3.830  0.00  0.00    +0.145 C 
BRANCH  28  29
ATOM     29  C   UNL     1       4.943  -0.118  -3.719  0.00  0.00    +0.005 A 
ATOM     30  C   UNL     1       5.659   0.955  -3.221  0.00  0.00    +0.008 A 
ATOM     31  C   UNL     1       7.036   0.880  -3.119  0.00  0.00    +0.000 A 
ATOM     32  C   UNL     1       7.698  -0.267  -3.515  0.00  0.00    +0.003 A 
ATOM     33  C   UNL     1       6.985  -1.341  -4.013  0.00  0.00    +0.038 A 
ATOM     34  C   UNL     1       5.605  -1.269  -4.111  0.00  0.00    +0.128 A 
ATOM     35  F   UNL     1       4.906  -2.320  -4.593  0.00  0.00    -0.205 F 
ENDBRANCH  28  29
ENDBRANCH   1  28
TORSDOF 8
