REMARK  Name = ZINC42691801
REMARK  11 active torsions:
REMARK  status: ('A' for Active; 'I' for Inactive)
REMARK    1  A    between atoms: C_1  and  C_2
REMARK    2  A    between atoms: C_2  and  N_3
REMARK    3  A    between atoms: N_3  and  C_4
REMARK    4  A    between atoms: C_4  and  C_5
REMARK    5  A    between atoms: C_10  and  N_11
REMARK    6  A    between atoms: N_11  and  C_12
REMARK    7  A    between atoms: N_11  and  C_16
REMARK    8  A    between atoms: C_12  and  C_13
REMARK    9  A    between atoms: C_13  and  C_14
REMARK   10  A    between atoms: C_13  and  C_15
REMARK   11  A    between atoms: C_16  and  C_17
REMARK                            x       y       z     vdW  Elec       q    Type
REMARK                         _______ _______ _______ _____ _____    ______ ____
ROOT
ATOM      1  C   UNL     1       0.882  -2.883   1.951  0.00  0.00    -0.043 A 
ATOM      2  C   UNL     1       2.094  -3.364   1.498  0.00  0.00    +0.004 A 
ATOM      3  C   UNL     1       3.089  -3.697   2.398  0.00  0.00    +0.015 A 
ATOM      4  C   UNL     1       2.873  -3.550   3.757  0.00  0.00    +0.020 A 
ATOM      5  C   UNL     1       1.662  -3.070   4.218  0.00  0.00    +0.038 A 
ATOM      6  C   UNL     1       0.664  -2.728   3.314  0.00  0.00    +0.033 A 
ATOM      7 BR   UNL     1       4.236  -4.008   4.985  0.00  0.00    -0.050 Br
ENDROOT
BRANCH   1   8
ATOM      8  C   UNL     1      -0.201  -2.520   0.968  0.00  0.00    -0.045 C 
BRANCH   8   9
ATOM      9  N   UNL     1      -0.095  -1.095   0.627  0.00  0.00    +0.382 N 
ATOM     10  H   UNL     1       0.809  -0.914   0.217  0.00  0.00    -0.085 HD
ATOM     11  H   UNL     1      -0.202  -0.540   1.463  0.00  0.00    -0.085 HD
BRANCH   9  13
ATOM     12  C   UNL     1      -0.968   0.712  -0.776  0.00  0.00    -0.017 C 
ATOM     13  C   UNL     1      -1.148  -0.742  -0.334  0.00  0.00    -0.086 C 
ENDBRANCH   9  13
ENDBRANCH   8   9
ENDBRANCH   1   8
BRANCH   6  14
ATOM     14  N   UNL     1      -0.560  -2.237   3.776  0.00  0.00    -0.321 N 
BRANCH  14  15
ATOM     15  C   UNL     1      -0.611  -0.967   4.505  0.00  0.00    +0.108 C 
BRANCH  15  16
ATOM     16  C   UNL     1      -0.740   0.188   3.510  0.00  0.00    +0.000 C 
ATOM     17  C   UNL     1      -2.046   0.041   2.726  0.00  0.00    +0.009 C 
ATOM     18  C   UNL     1      -0.748   1.516   4.269  0.00  0.00    +0.009 C 
ENDBRANCH  15  16
ENDBRANCH  14  15
BRANCH  14  19
ATOM     19  C   UNL     1      -1.792  -2.991   3.531  0.00  0.00    +0.200 C 
BRANCH  19  20
ATOM     20  C   UNL     1      -2.108  -3.841   4.735  0.00  0.00    +0.228 C 
ATOM     21  O   UNL     1      -1.376  -3.819   5.702  0.00  0.00    -0.274 OA
ATOM     22  N   UNL     1      -3.204  -4.625   4.736  0.00  0.00    -0.328 N 
ATOM     23  H   UNL     1      -3.789  -4.643   3.963  0.00  0.00    +0.145 HD
ATOM     24  H   UNL     1      -3.407  -5.173   5.511  0.00  0.00    +0.145 HD
ENDBRANCH  19  20
ENDBRANCH  14  19
ENDBRANCH   6  14
TORSDOF 8
