REMARK  Name = ZINC50129920
REMARK  3 active torsions:
REMARK  status: ('A' for Active; 'I' for Inactive)
REMARK    1  A    between atoms: N_8  and  C_13
REMARK    2  A    between atoms: C_13  and  C_14
REMARK    3  A    between atoms: C_14  and  C_16
REMARK                            x       y       z     vdW  Elec       q    Type
REMARK                         _______ _______ _______ _____ _____    ______ ____
ROOT
ATOM      1  C   UNL     1      -0.017   1.379   0.010  0.00  0.00    +0.019 A 
ATOM      2  C   UNL     1       1.169   2.092   0.002  0.00  0.00    +0.048 A 
ATOM      3  C   UNL     1       2.378   1.419  -0.013  0.00  0.00    +0.143 A 
ATOM      4  C   UNL     1       2.397   0.025  -0.021  0.00  0.00    +0.080 A 
ATOM      5  C   UNL     1       1.208  -0.683  -0.013  0.00  0.00    +0.042 A 
ATOM      6  C   UNL     1       0.002  -0.004   0.002  0.00  0.00    +0.020 A 
ATOM      7 BR   UNL     1      -1.624  -0.969   0.013  0.00  0.00    -0.050 Br
ATOM      8  N   UNL     1       3.630  -0.643  -0.037  0.00  0.00    -0.258 N 
ATOM      9  C   UNL     1       4.751   0.044   0.270  0.00  0.00    +0.258 C 
ATOM     10  O   UNL     1       5.832  -0.505   0.233  0.00  0.00    -0.271 OA
ATOM     11  C   UNL     1       4.655   1.497   0.660  0.00  0.00    +0.325 C 
ATOM     12  O   UNL     1       3.553   2.105  -0.019  0.00  0.00    -0.481 OA
ENDROOT
BRANCH   8  13
ATOM     13  C   UNL     1       3.700  -2.065  -0.383  0.00  0.00    +0.194 C 
BRANCH  13  14
ATOM     14  C   UNL     1       3.890  -2.212  -1.870  0.00  0.00    +0.187 C 
ATOM     15  O   UNL     1       3.961  -1.225  -2.574  0.00  0.00    -0.290 OA
BRANCH  14  16
ATOM     16  C   UNL     1       3.987  -3.497  -2.445  0.00  0.00    +0.057 A 
ATOM     17  C   UNL     1       4.168  -3.850  -3.780  0.00  0.00    +0.020 A 
ATOM     18  C   UNL     1       4.225  -5.195  -4.037  0.00  0.00    +0.023 A 
ATOM     19  C   UNL     1       4.105  -6.071  -3.004  0.00  0.00    +0.056 A 
ATOM     20  S   UNL     1       3.918  -5.092  -1.652  0.00  0.00    -0.078 S 
ATOM     21 BR   UNL     1       4.146  -7.960  -3.073  0.00  0.00    -0.043 Br
ENDBRANCH  14  16
ENDBRANCH  13  14
ENDBRANCH   8  13
TORSDOF 3
