REMARK  Name = ZINC01216248
REMARK  5 active torsions:
REMARK  status: ('A' for Active; 'I' for Inactive)
REMARK    1  A    between atoms: C_1  and  C_2
REMARK    2  A    between atoms: C_5  and  C_8
REMARK    3  A    between atoms: N_12  and  N_16
REMARK    4  A    between atoms: C_17  and  C_19
REMARK    5  A    between atoms: C_24  and  O_25
REMARK                            x       y       z     vdW  Elec       q    Type
REMARK                         _______ _______ _______ _____ _____    ______ ____
ROOT
ATOM      1  C   UNL     1      -2.561   1.521   0.022  0.00  0.00    +0.028 C 
ATOM      2  C   UNL     1      -1.306   1.954   0.295  0.00  0.00    +0.079 C 
ATOM      3  C   UNL     1      -0.103   1.182   0.672  0.00  0.00    +0.275 C 
ATOM      4  O   UNL     1      -0.130  -0.029   0.785  0.00  0.00    -0.267 OA
ATOM      5  N   UNL     1       1.005   1.875   0.877  0.00  0.00    -0.169 N 
ATOM      6  C   UNL     1       1.030   3.217   0.751  0.00  0.00    +0.138 C 
ATOM      7  S   UNL     1       2.354   4.280   0.971  0.00  0.00    -0.026 S 
ATOM      8  S   UNL     1      -0.650   3.618   0.299  0.00  0.00    -0.059 S 
ENDROOT
BRANCH   1  13
ATOM      9  C   UNL     1      -3.622  -4.109  -0.439  0.00  0.00    +0.044 C 
ATOM     10  C   UNL     1      -3.344  -2.633  -0.318  0.00  0.00    -0.050 A 
ATOM     11  C   UNL     1      -4.269  -1.806   0.296  0.00  0.00    +0.004 A 
ATOM     12  C   UNL     1      -4.022  -0.454   0.411  0.00  0.00    +0.008 A 
ATOM     13  C   UNL     1      -2.833   0.081  -0.096  0.00  0.00    -0.024 A 
ATOM     14  C   UNL     1      -1.905  -0.761  -0.720  0.00  0.00    +0.008 A 
ATOM     15  C   UNL     1      -2.165  -2.111  -0.821  0.00  0.00    +0.004 A 
ENDBRANCH   1  13
BRANCH   5  16
ATOM     16  N   UNL     1       2.179   1.198   1.232  0.00  0.00    -0.222 N 
ATOM     17  C   UNL     1       3.160   1.028   0.324  0.00  0.00    +0.264 C 
ATOM     18  O   UNL     1       3.026   1.462  -0.804  0.00  0.00    -0.269 OA
ATOM     19  H   UNL     1       2.286   0.852   2.132  0.00  0.00    +0.174 HD
BRANCH  17  20
ATOM     20  C   UNL     1       4.397   0.316   0.698  0.00  0.00    +0.079 A 
ATOM     21  C   UNL     1       4.558  -0.179   1.994  0.00  0.00    +0.017 A 
ATOM     22  C   UNL     1       5.712  -0.849   2.336  0.00  0.00    +0.001 A 
ATOM     23  C   UNL     1       6.721  -1.024   1.403  0.00  0.00    +0.004 A 
ATOM     24  C   UNL     1       6.578  -0.534   0.120  0.00  0.00    +0.046 A 
ATOM     25  C   UNL     1       5.420   0.137  -0.243  0.00  0.00    +0.129 A 
BRANCH  25  26
ATOM     26  O   UNL     1       5.278   0.619  -1.503  0.00  0.00    -0.506 OA
ATOM     27  H   UNL     1       5.601   1.522  -1.618  0.00  0.00    +0.292 HD
ENDBRANCH  25  26
ENDBRANCH  17  20
ENDBRANCH   5  16
TORSDOF 4
