REMARK  Name = ZINC36595397
REMARK  10 active torsions:
REMARK  status: ('A' for Active; 'I' for Inactive)
REMARK    1  A    between atoms: C_1  and  C_2
REMARK    2  A    between atoms: C_5  and  C_7
REMARK    3  A    between atoms: C_7  and  N_8
REMARK    4  A    between atoms: N_8  and  C_9
REMARK    5  A    between atoms: C_9  and  C_11
REMARK    6  A    between atoms: C_9  and  C_20
REMARK    7  A    between atoms: C_14  and  N_17
REMARK    8  A    between atoms: N_22  and  C_23
REMARK    9  A    between atoms: C_29  and  C_31
REMARK   10  A    between atoms: C_36  and  O_37
REMARK                            x       y       z     vdW  Elec       q    Type
REMARK                         _______ _______ _______ _____ _____    ______ ____
ROOT
ATOM      1  C   UNL     1       2.966  -2.262  -2.048  0.00  0.00    +0.193 C 
ENDROOT
BRANCH   1   2
ATOM      2  C   UNL     1       4.173  -2.970  -2.608  0.00  0.00    -0.018 A 
ATOM      3  C   UNL     1       4.009  -4.076  -3.422  0.00  0.00    +0.008 A 
ATOM      4  C   UNL     1       5.115  -4.726  -3.936  0.00  0.00    +0.033 A 
ATOM      5  C   UNL     1       6.386  -4.271  -3.636  0.00  0.00    +0.126 A 
ATOM      6  C   UNL     1       6.549  -3.165  -2.823  0.00  0.00    +0.033 A 
ATOM      7  C   UNL     1       5.443  -2.512  -2.313  0.00  0.00    +0.008 A 
BRANCH   5   8
ATOM      8  N   UNL     1       7.570  -4.967  -4.186  0.00  0.00    +0.056 N 
ATOM      9  O   UNL     1       7.427  -5.935  -4.897  0.00  0.00    -0.126 OA
ATOM     10  O   UNL     1       8.681  -4.569  -3.924  0.00  0.00    -0.126 OA
ENDBRANCH   5   8
ENDBRANCH   1   2
BRANCH   1  11
ATOM     11  C   UNL     1       2.693  -1.020  -2.857  0.00  0.00    +0.238 C 
ATOM     12  O   UNL     1       1.579  -0.811  -3.289  0.00  0.00    -0.273 OA
ATOM     13  N   UNL     1       3.686  -0.141  -3.099  0.00  0.00    -0.311 N 
ATOM     14  H   UNL     1       4.577  -0.309  -2.753  0.00  0.00    +0.149 HD
BRANCH  13  15
ATOM     15  C   UNL     1       3.420   1.066  -3.885  0.00  0.00    +0.073 C 
ATOM     16  C   UNL     1       3.542   0.741  -5.376  0.00  0.00    +0.022 C 
ATOM     17  C   UNL     1       3.264   2.002  -6.197  0.00  0.00    +0.002 C 
ATOM     18  C   UNL     1       4.279   3.086  -5.826  0.00  0.00    +0.000 C 
ATOM     19  C   UNL     1       4.158   3.410  -4.336  0.00  0.00    +0.002 C 
ATOM     20  C   UNL     1       4.435   2.149  -3.515  0.00  0.00    +0.022 C 
ENDBRANCH  13  15
ENDBRANCH   1  11
BRANCH   1  21
ATOM     21  N   UNL     1       1.804  -3.151  -2.112  0.00  0.00    -0.275 N 
ATOM     22  C   UNL     1       1.566  -4.021  -1.110  0.00  0.00    +0.251 C 
ATOM     23  O   UNL     1       0.512  -4.627  -1.069  0.00  0.00    -0.270 OA
BRANCH  22  24
ATOM     24  C   UNL     1       2.583  -4.238  -0.064  0.00  0.00    +0.078 A 
ATOM     25  C   UNL     1       3.833  -3.622  -0.161  0.00  0.00    +0.017 A 
ATOM     26  C   UNL     1       4.779  -3.829   0.820  0.00  0.00    +0.001 A 
ATOM     27  C   UNL     1       4.496  -4.645   1.903  0.00  0.00    +0.004 A 
ATOM     28  C   UNL     1       3.265  -5.260   2.011  0.00  0.00    +0.046 A 
ATOM     29  C   UNL     1       2.299  -5.059   1.036  0.00  0.00    +0.129 A 
BRANCH  29  30
ATOM     30  O   UNL     1       1.087  -5.659   1.144  0.00  0.00    -0.506 OA
ATOM     31  H   UNL     1       1.042  -6.532   0.732  0.00  0.00    +0.292 HD
ENDBRANCH  29  30
ENDBRANCH  22  24
BRANCH  21  32
ATOM     32  C   UNL     1       0.901  -3.095  -3.264  0.00  0.00    +0.183 C 
BRANCH  32  37
ATOM     33  C   UNL     1       3.659  -3.078  -7.487  0.00  0.00    +0.086 C 
ATOM     34  C   UNL     1       2.825  -3.568  -6.331  0.00  0.00    +0.102 A 
ATOM     35  C   UNL     1       2.469  -4.845  -6.103  0.00  0.00    +0.045 A 
ATOM     36  C   UNL     1       1.696  -4.850  -4.919  0.00  0.00    +0.046 A 
ATOM     37  C   UNL     1       1.626  -3.575  -4.494  0.00  0.00    +0.122 A 
ATOM     38  O   UNL     1       2.317  -2.804  -5.350  0.00  0.00    -0.463 OA
ENDBRANCH  32  37
ENDBRANCH  21  32
ENDBRANCH   1  21
TORSDOF 9
