REMARK  Name = ZINC38847406
REMARK  11 active torsions:
REMARK  status: ('A' for Active; 'I' for Inactive)
REMARK    1  A    between atoms: C_1  and  C_2
REMARK    2  A    between atoms: C_5  and  S_8
REMARK    3  A    between atoms: S_8  and  N_11
REMARK    4  A    between atoms: C_14  and  C_17
REMARK    5  A    between atoms: N_19  and  C_20
REMARK    6  A    between atoms: C_20  and  C_21
REMARK    7  A    between atoms: C_21  and  C_22
REMARK    8  A    between atoms: C_22  and  N_23
REMARK    9  A    between atoms: N_23  and  C_24
REMARK   10  A    between atoms: N_23  and  C_25
REMARK   11  A    between atoms: C_29  and  C_35
REMARK                            x       y       z     vdW  Elec       q    Type
REMARK                         _______ _______ _______ _____ _____    ______ ____
ROOT
ATOM      1  C   UNL     1       4.534  -8.240   0.050  0.00  0.00    +0.224 C 
ATOM      2  O   UNL     1       4.096  -7.110   0.063  0.00  0.00    -0.275 OA
ATOM      3  N   UNL     1       5.276  -8.687   1.083  0.00  0.00    -0.250 N 
ATOM      4  C   UNL     1       5.867  -9.939   1.021  0.00  0.00    +0.168 A 
ATOM      5  N   UNL     1       5.740 -10.864   0.099  0.00  0.00    -0.224 NA
ATOM      6  C   UNL     1       6.382 -12.050   0.168  0.00  0.00    +0.083 A 
ATOM      7  C   UNL     1       6.333 -13.125  -0.750  0.00  0.00    -0.024 A 
ATOM      8  C   UNL     1       7.052 -14.270  -0.528  0.00  0.00    +0.005 A 
ATOM      9  C   UNL     1       7.851 -14.417   0.598  0.00  0.00    +0.001 A 
ATOM     10  C   UNL     1       7.923 -13.386   1.516  0.00  0.00    +0.017 A 
ATOM     11  C   UNL     1       7.205 -12.236   1.302  0.00  0.00    +0.041 A 
ATOM     12  S   UNL     1       7.001 -10.701   2.173  0.00  0.00    -0.052 S 
ATOM     13  C   UNL     1       5.479 -13.010  -1.987  0.00  0.00    +0.046 C 
ENDROOT
BRANCH   1  17
ATOM     14  N   UNL     1       3.833  -9.690  -3.865  0.00  0.00    -0.177 NA
ATOM     15  C   UNL     1       2.659  -9.636  -2.983  0.00  0.00    +0.110 C 
ATOM     16  C   UNL     1       2.963  -8.694  -1.815  0.00  0.00    +0.030 C 
ATOM     17  C   UNL     1       4.250  -9.146  -1.121  0.00  0.00    +0.078 C 
ATOM     18  C   UNL     1       5.416  -9.079  -2.111  0.00  0.00    +0.030 C 
ATOM     19  C   UNL     1       5.139 -10.032  -3.284  0.00  0.00    +0.110 C 
BRANCH  14  20
ATOM     20  S   UNL     1       3.687  -9.378  -5.485  0.00  0.00    +0.061 S 
ATOM     21  O   UNL     1       4.969  -8.965  -5.937  0.00  0.00    -0.153 OA
ATOM     22  O   UNL     1       2.528  -8.570  -5.639  0.00  0.00    -0.153 OA
BRANCH  20  27
ATOM     23  C   UNL     1       2.504 -14.626  -8.216  0.00  0.00    +0.044 C 
ATOM     24  C   UNL     1       2.799 -13.316  -7.534  0.00  0.00    -0.050 A 
ATOM     25  C   UNL     1       1.762 -12.525  -7.077  0.00  0.00    +0.005 A 
ATOM     26  C   UNL     1       2.033 -11.322  -6.451  0.00  0.00    +0.029 A 
ATOM     27  C   UNL     1       3.341 -10.911  -6.282  0.00  0.00    +0.105 A 
ATOM     28  C   UNL     1       4.379 -11.702  -6.737  0.00  0.00    +0.029 A 
ATOM     29  C   UNL     1       4.108 -12.907  -7.360  0.00  0.00    +0.005 A 
ENDBRANCH  20  27
ENDBRANCH  14  20
ENDBRANCH   1  17
BRANCH   3  30
ATOM     30  C   UNL     1       5.457  -7.850   2.271  0.00  0.00    +0.114 C 
BRANCH  30  31
ATOM     31  C   UNL     1       4.412  -8.225   3.324  0.00  0.00    +0.001 C 
BRANCH  31  32
ATOM     32  C   UNL     1       4.521  -7.269   4.514  0.00  0.00    -0.078 C 
BRANCH  32  33
ATOM     33  N   UNL     1       3.517  -7.630   5.524  0.00  0.00    +0.376 N 
ATOM     34  C   UNL     1       3.823  -8.961   6.065  0.00  0.00    -0.097 C 
ATOM     35  C   UNL     1       3.541  -6.642   6.612  0.00  0.00    -0.097 C 
ATOM     36  H   UNL     1       2.602  -7.641   5.100  0.00  0.00    -0.083 HD
ENDBRANCH  32  33
ENDBRANCH  31  32
ENDBRANCH  30  31
ENDBRANCH   3  30
TORSDOF 7
