REMARK  Name = ZINC17095641
REMARK  8 active torsions:
REMARK  status: ('A' for Active; 'I' for Inactive)
REMARK    1  A    between atoms: C_6  and  N_7
REMARK    2  A    between atoms: N_7  and  C_8
REMARK    3  A    between atoms: C_8  and  N_10
REMARK    4  A    between atoms: N_10  and  N_11
REMARK    5  A    between atoms: C_12  and  C_14
REMARK    6  A    between atoms: C_14  and  S_15
REMARK    7  A    between atoms: S_15  and  C_16
REMARK    8  A    between atoms: C_16  and  C_17
REMARK                            x       y       z     vdW  Elec       q    Type
REMARK                         _______ _______ _______ _____ _____    ______ ____
ROOT
ATOM      1  N   UNL     1       6.586  -1.845   3.470  0.00  0.00    -0.246 N 
ATOM      2  H   UNL     1       6.860  -2.661   3.916  0.00  0.00    +0.172 HD
ENDROOT
BRANCH   1   3
ATOM      3  N   UNL     1       7.435  -0.730   3.466  0.00  0.00    -0.234 N 
ATOM      4  C   UNL     1       8.631  -0.791   4.085  0.00  0.00    +0.239 C 
ATOM      5  O   UNL     1       8.973  -1.812   4.643  0.00  0.00    -0.273 OA
ATOM      6  H   UNL     1       7.161   0.087   3.020  0.00  0.00    +0.173 HD
BRANCH   4   7
ATOM      7  C   UNL     1       9.543   0.408   4.082  0.00  0.00    +0.166 C 
BRANCH   7   8
ATOM      8  S   UNL     1      11.064   0.013   4.988  0.00  0.00    -0.147 S 
BRANCH   8   9
ATOM      9  C   UNL     1      12.041   1.539   4.892  0.00  0.00    +0.106 C 
BRANCH   9  10
ATOM     10  C   UNL     1      13.348   1.345   5.616  0.00  0.00    -0.019 A 
ATOM     11  C   UNL     1      14.452   0.869   4.933  0.00  0.00    +0.008 A 
ATOM     12  C   UNL     1      15.652   0.691   5.596  0.00  0.00    +0.039 A 
ATOM     13  C   UNL     1      15.749   0.990   6.944  0.00  0.00    +0.125 A 
ATOM     14  C   UNL     1      14.643   1.465   7.628  0.00  0.00    +0.058 A 
ATOM     15  C   UNL     1      13.445   1.648   6.963  0.00  0.00    +0.048 A 
ATOM     16 CL   UNL     1      12.060   2.252   7.818  0.00  0.00    -0.083 Cl
ATOM     17  F   UNL     1      16.921   0.816   7.593  0.00  0.00    -0.205 F 
ENDBRANCH   9  10
ENDBRANCH   8   9
ENDBRANCH   7   8
ENDBRANCH   4   7
ENDBRANCH   1   3
BRANCH   1  18
ATOM     18  C   UNL     1       5.390  -1.783   2.851  0.00  0.00    +0.151 C 
ATOM     19  S   UNL     1       4.354  -3.145   2.855  0.00  0.00    -0.017 S 
BRANCH  18  20
ATOM     20  N   UNL     1       5.010  -0.649   2.231  0.00  0.00    -0.296 N 
ATOM     21  H   UNL     1       5.622   0.102   2.175  0.00  0.00    +0.154 HD
BRANCH  20  27
ATOM     22  C   UNL     1       2.962   0.582   1.878  0.00  0.00    +0.027 A 
ATOM     23  C   UNL     1       1.701   0.677   1.320  0.00  0.00    +0.051 A 
ATOM     24  C   UNL     1       1.201  -0.360   0.550  0.00  0.00    +0.166 A 
ATOM     25  C   UNL     1       1.971  -1.501   0.336  0.00  0.00    +0.168 A 
ATOM     26  C   UNL     1       3.235  -1.595   0.894  0.00  0.00    +0.072 A 
ATOM     27  C   UNL     1       3.732  -0.554   1.666  0.00  0.00    +0.036 A 
ATOM     28  O   UNL     1       1.262  -2.365  -0.448  0.00  0.00    -0.453 OA
ATOM     29  C   UNL     1       0.220  -1.574  -1.048  0.00  0.00    +0.466 C 
ATOM     30  O   UNL     1       0.009  -0.510  -0.100  0.00  0.00    -0.453 OA
ENDBRANCH  20  27
ENDBRANCH  18  20
ENDBRANCH   1  18
TORSDOF 8
