REMARK  Name = ZINC44262008
REMARK  4 active torsions:
REMARK  status: ('A' for Active; 'I' for Inactive)
REMARK    1  A    between atoms: C_5  and  N_8
REMARK    2  A    between atoms: N_8  and  N_9
REMARK    3  A    between atoms: C_10  and  C_12
REMARK    4  A    between atoms: C_15  and  N_17
REMARK                            x       y       z     vdW  Elec       q    Type
REMARK                         _______ _______ _______ _____ _____    ______ ____
ROOT
ATOM      1  N   UNL     1       1.238  -2.080  -0.021  0.00  0.00    -0.262 N 
ATOM      2  H   UNL     1       2.029  -2.550  -0.327  0.00  0.00    +0.170 HD
ENDROOT
BRANCH   1   7
ATOM      3  C   UNL     1       1.855   1.420  -0.970  0.00  0.00    +0.042 A 
ATOM      4  C   UNL     1       1.186   2.087   0.041  0.00  0.00    +0.044 A 
ATOM      5  C   UNL     1       0.535   1.374   1.032  0.00  0.00    +0.042 A 
ATOM      6  C   UNL     1       0.550  -0.008   1.014  0.00  0.00    +0.066 A 
ATOM      7  C   UNL     1       1.220  -0.681   0.000  0.00  0.00    +0.081 A 
ATOM      8  C   UNL     1       1.874   0.038  -0.993  0.00  0.00    +0.066 A 
ATOM      9 CL   UNL     1       2.712  -0.798  -2.262  0.00  0.00    -0.081 Cl
ATOM     10 CL   UNL     1      -0.267  -0.902   2.258  0.00  0.00    -0.081 Cl
ATOM     11 CL   UNL     1       1.165   3.823   0.068  0.00  0.00    -0.083 Cl
ENDBRANCH   1   7
BRANCH   1  12
ATOM     12  N   UNL     1       0.113  -2.800   0.401  0.00  0.00    -0.236 N 
ATOM     13  C   UNL     1       0.168  -4.144   0.490  0.00  0.00    +0.234 C 
ATOM     14  O   UNL     1       1.191  -4.729   0.204  0.00  0.00    -0.274 OA
ATOM     15  H   UNL     1      -0.706  -2.333   0.629  0.00  0.00    +0.173 HD
BRANCH  13  16
ATOM     16  C   UNL     1      -1.042  -4.920   0.944  0.00  0.00    +0.108 C 
ATOM     17  C   UNL     1      -0.969  -5.608   2.308  0.00  0.00    +0.047 C 
ATOM     18  C   UNL     1      -0.915  -6.442   1.025  0.00  0.00    +0.182 C 
BRANCH  18  19
ATOM     19  N   UNL     1      -2.098  -7.238   0.687  0.00  0.00    +0.026 N 
ATOM     20  O   UNL     1      -2.052  -8.031  -0.225  0.00  0.00    -0.131 OA
ATOM     21  O   UNL     1      -3.119  -7.103   1.319  0.00  0.00    -0.131 OA
ENDBRANCH  18  19
ENDBRANCH  13  16
ENDBRANCH   1  12
TORSDOF 4
