REMARK  Name = ZINC27325815
REMARK  10 active torsions:
REMARK  status: ('A' for Active; 'I' for Inactive)
REMARK    1  A    between atoms: C_1  and  C_2
REMARK    2  A    between atoms: C_2  and  C_41
REMARK    3  A    between atoms: C_7  and  C_23
REMARK    4  A    between atoms: C_8  and  N_11
REMARK    5  A    between atoms: C_12  and  C_14
REMARK    6  A    between atoms: C_14  and  C_15
REMARK    7  A    between atoms: C_14  and  C_16
REMARK    8  A    between atoms: C_14  and  C_17
REMARK    9  A    between atoms: C_23  and  S_24
REMARK   10  A    between atoms: S_24  and  N_27
REMARK                            x       y       z     vdW  Elec       q    Type
REMARK                         _______ _______ _______ _____ _____    ______ ____
ROOT
ATOM      1  C   UNL     1      -3.076   2.236   1.799  0.00  0.00    +0.012 C 
ATOM      2  C   UNL     1      -2.174   1.544   0.775  0.00  0.00    -0.023 C 
ATOM      3  C   UNL     1      -0.675   1.496   1.247  0.00  0.00    -0.003 C 
ATOM      4  C   UNL     1      -0.343   3.019   1.306  0.00  0.00    +0.005 C 
ATOM      5  C   UNL     1      -1.171   3.644   0.156  0.00  0.00    +0.011 C 
ATOM      6  C   UNL     1      -1.923   2.440  -0.489  0.00  0.00    +0.015 C 
ATOM      7  C   UNL     1      -0.806   1.621  -1.206  0.00  0.00    +0.081 C 
ATOM      8  C   UNL     1       0.018   0.996  -0.057  0.00  0.00    +0.027 C 
ATOM      9  C   UNL     1      -2.703   0.158   0.400  0.00  0.00    +0.012 C 
ENDROOT
BRANCH   7  10
ATOM     10  N   UNL     1       0.036   2.502  -2.018  0.00  0.00    -0.311 N 
ATOM     11  C   UNL     1       0.922   1.976  -2.887  0.00  0.00    +0.225 C 
ATOM     12  O   UNL     1       1.022   0.772  -2.996  0.00  0.00    -0.275 OA
ATOM     13  H   UNL     1      -0.055   3.594  -1.919  0.00  0.00    +0.149 HD
BRANCH  11  14
ATOM     14  C   UNL     1       1.788   2.883  -3.722  0.00  0.00    +0.085 C 
ATOM     15  C   UNL     1       0.901   3.774  -4.594  0.00  0.00    +0.027 C 
ATOM     16  C   UNL     1       2.645   3.757  -2.805  0.00  0.00    +0.027 C 
BRANCH  14  17
ATOM     17  C   UNL     1       2.683   2.051  -4.603  0.00  0.00    +0.073 A 
ATOM     18  C   UNL     1       3.377   2.493  -5.669  0.00  0.00    +0.108 A 
ATOM     19  N   UNL     1       4.054   1.416  -6.176  0.00  0.00    -0.351 N 
ATOM     20  H   UNL     1       4.697   1.537  -7.060  0.00  0.00    +0.166 HD
ATOM     21  C   UNL     1       3.750   0.353  -5.401  0.00  0.00    +0.196 A 
ATOM     22  N   UNL     1       2.934   0.741  -4.459  0.00  0.00    -0.240 NA
ENDBRANCH  14  17
ENDBRANCH  11  14
ENDBRANCH   7  10
BRANCH   6  23
ATOM     23  C   UNL     1      -3.153   2.776  -1.335  0.00  0.00    +0.194 C 
BRANCH  23  24
ATOM     24  S   UNL     1      -2.652   3.787  -2.756  0.00  0.00    +0.032 S 
ATOM     25  O   UNL     1      -2.214   5.065  -2.317  0.00  0.00    -0.158 OA
ATOM     26  O   UNL     1      -1.859   3.017  -3.648  0.00  0.00    -0.158 OA
BRANCH  24  27
ATOM     27  N   UNL     1      -4.055   4.082  -3.584  0.00  0.00    -0.181 NA
ATOM     28  C   UNL     1      -4.504   3.169  -4.644  0.00  0.00    +0.110 C 
ATOM     29  C   UNL     1      -5.942   2.728  -4.331  0.00  0.00    +0.028 C 
ATOM     30  C   UNL     1      -6.818   3.962  -4.136  0.00  0.00    -0.001 C 
ATOM     31  C   UNL     1      -6.843   4.798  -5.429  0.00  0.00    +0.016 C 
ATOM     32  C   UNL     1      -8.285   5.350  -5.438  0.00  0.00    +0.036 C 
ATOM     33  C   UNL     1      -9.097   4.351  -4.642  0.00  0.00    -0.044 A 
ATOM     34  C   UNL     1      -8.252   3.554  -3.891  0.00  0.00    -0.038 A 
ATOM     35  C   UNL     1      -8.780   2.566  -3.077  0.00  0.00    +0.004 A 
ATOM     36  C   UNL     1     -10.146   2.373  -3.014  0.00  0.00    +0.000 A 
ATOM     37  C   UNL     1     -10.990   3.168  -3.766  0.00  0.00    +0.000 A 
ATOM     38  C   UNL     1     -10.466   4.155  -4.578  0.00  0.00    +0.004 A 
ATOM     39  C   UNL     1      -6.303   4.811  -2.977  0.00  0.00    +0.028 C 
ATOM     40  C   UNL     1      -4.870   5.265  -3.276  0.00  0.00    +0.110 C 
ENDBRANCH  24  27
ENDBRANCH  23  24
ENDBRANCH   6  23
TORSDOF 6
