REMARK  Name = ZINC63835817
REMARK  8 active torsions:
REMARK  status: ('A' for Active; 'I' for Inactive)
REMARK    1  A    between atoms: C_1  and  C_2
REMARK    2  A    between atoms: C_6  and  S_8
REMARK    3  A    between atoms: S_8  and  N_11
REMARK    4  A    between atoms: N_11  and  C_12
REMARK    5  A    between atoms: C_12  and  C_14
REMARK    6  A    between atoms: C_12  and  C_24
REMARK    7  A    between atoms: C_14  and  C_15
REMARK    8  A    between atoms: N_26  and  C_27
REMARK                            x       y       z     vdW  Elec       q    Type
REMARK                         _______ _______ _______ _____ _____    ______ ____
ROOT
ATOM      1  C   UNL     1       2.651  -1.702   3.439  0.00  0.00    +0.166 C 
ENDROOT
BRANCH   1   2
ATOM      2  C   UNL     1       3.582  -2.342   4.437  0.00  0.00    +0.236 C 
ATOM      3  O   UNL     1       3.392  -3.484   4.798  0.00  0.00    -0.274 OA
ATOM      4  N   UNL     1       4.625  -1.645   4.928  0.00  0.00    -0.284 N 
ATOM      5  H   UNL     1       4.735  -0.709   4.697  0.00  0.00    +0.155 HD
BRANCH   4   6
ATOM      6  C   UNL     1       5.551  -2.271   5.772  0.00  0.00    +0.037 A 
ATOM      7  C   UNL     1       6.141  -1.558   6.807  0.00  0.00    +0.027 A 
ATOM      8  C   UNL     1       7.054  -2.175   7.641  0.00  0.00    +0.051 A 
ATOM      9  C   UNL     1       7.384  -3.506   7.447  0.00  0.00    +0.166 A 
ATOM     10  C   UNL     1       6.794  -4.225   6.410  0.00  0.00    +0.168 A 
ATOM     11  C   UNL     1       5.875  -3.607   5.578  0.00  0.00    +0.072 A 
ATOM     12  O   UNL     1       7.281  -5.500   6.430  0.00  0.00    -0.453 OA
ATOM     13  C   UNL     1       8.476  -5.443   7.231  0.00  0.00    +0.466 C 
ATOM     14  O   UNL     1       8.241  -4.333   8.117  0.00  0.00    -0.453 OA
ENDBRANCH   4   6
ENDBRANCH   1   2
BRANCH   1  15
ATOM     15  N   UNL     1       1.607  -2.658   3.062  0.00  0.00    -0.178 NA
ATOM     16  H   UNL     1       1.766  -3.293   2.347  0.00  0.00    +0.149 HD
BRANCH  15  17
ATOM     17  S   UNL     1       0.155  -2.655   3.859  0.00  0.00    +0.059 S 
ATOM     18  O   UNL     1       0.454  -2.627   5.248  0.00  0.00    -0.153 OA
ATOM     19  O   UNL     1      -0.634  -3.680   3.269  0.00  0.00    -0.153 OA
BRANCH  17  25
ATOM     20  C   UNL     1      -0.665   2.431   4.742  0.00  0.00    +0.044 C 
ATOM     21  C   UNL     1      -0.979   1.199   3.933  0.00  0.00    -0.049 A 
ATOM     22  C   UNL     1      -1.891   1.267   2.896  0.00  0.00    +0.003 A 
ATOM     23  C   UNL     1      -2.179   0.137   2.154  0.00  0.00    +0.002 A 
ATOM     24  C   UNL     1      -1.554  -1.061   2.448  0.00  0.00    +0.028 A 
ATOM     25  C   UNL     1      -0.641  -1.128   3.484  0.00  0.00    +0.106 A 
ATOM     26  C   UNL     1      -0.350   0.003   4.223  0.00  0.00    +0.032 A 
ENDBRANCH  17  25
ENDBRANCH  15  17
ENDBRANCH   1  15
BRANCH   1  27
ATOM     27  C   UNL     1       3.441  -1.293   2.194  0.00  0.00    +0.063 C 
BRANCH  27  28
ATOM     28  C   UNL     1       2.523  -0.598   1.223  0.00  0.00    -0.040 C 
ATOM     29  C   UNL     1       2.330   0.735   1.098  0.00  0.00    -0.001 A 
ATOM     30  C   UNL     1       2.896   1.892   1.803  0.00  0.00    +0.010 A 
ATOM     31  C   UNL     1       2.499   3.135   1.446  0.00  0.00    +0.001 A 
ATOM     32  C   UNL     1       1.564   3.346   0.424  0.00  0.00    +0.002 A 
ATOM     33  C   UNL     1       1.001   2.334  -0.269  0.00  0.00    +0.026 A 
ATOM     34  C   UNL     1       1.345   0.985   0.021  0.00  0.00    +0.043 A 
ATOM     35  N   UNL     1       0.945  -0.150  -0.499  0.00  0.00    -0.380 N 
ATOM     36  C   UNL     1       1.635  -1.248   0.185  0.00  0.00    +0.144 C 
ATOM     37  H   UNL     1       0.301  -0.247  -1.219  0.00  0.00    +0.160 HD
ENDBRANCH  27  28
ENDBRANCH   1  27
TORSDOF 7
