REMARK  Name = ZINC06010000
REMARK  6 active torsions:
REMARK  status: ('A' for Active; 'I' for Inactive)
REMARK    1  A    between atoms: C_1  and  C_2
REMARK    2  A    between atoms: C_2  and  N_51
REMARK    3  A    between atoms: C_5  and  C_6
REMARK    4  A    between atoms: C_16  and  C_24
REMARK    5  A    between atoms: C_18  and  C_22
REMARK    6  A    between atoms: C_19  and  N_21
REMARK                            x       y       z     vdW  Elec       q    Type
REMARK                         _______ _______ _______ _____ _____    ______ ____
ROOT
ATOM      1  C   UNL     1       1.071   2.149   0.215  0.00  0.00    -0.039 C 
ATOM      2  C   UNL     1       1.897   1.613   1.365  0.00  0.00    -0.021 C 
ATOM      3  C   UNL     1       2.804   2.385   1.990  0.00  0.00    +0.013 C 
ATOM      4  C   UNL     1       1.669   0.212   1.776  0.00  0.00    +0.130 C 
ATOM      5  C   UNL     1       0.625  -0.458   1.287  0.00  0.00    -0.031 C 
ATOM      6  C   UNL     1      -0.324   0.177   0.303  0.00  0.00    -0.042 C 
ATOM      7  C   UNL     1       0.366  -1.883   1.712  0.00  0.00    +0.092 C 
ATOM      8  C   UNL     1       1.605  -2.483   2.315  0.00  0.00    +0.098 C 
ATOM      9  C   UNL     1       2.616  -1.691   2.750  0.00  0.00    +0.199 C 
ATOM     10  O   UNL     1       2.535  -0.353   2.653  0.00  0.00    -0.441 OA
ATOM     11  N   UNL     1      -0.305   1.644   0.421  0.00  0.00    +0.385 N 
ATOM     12  H   UNL     1      -0.620   1.907   1.362  0.00  0.00    -0.081 HD
ENDROOT
BRANCH   3  13
ATOM     13  C   UNL     1       3.130   3.718   1.457  0.00  0.00    -0.025 A 
ATOM     14  C   UNL     1       3.099   3.950   0.079  0.00  0.00    +0.009 A 
ATOM     15  C   UNL     1       3.400   5.202  -0.414  0.00  0.00    +0.020 A 
ATOM     16  C   UNL     1       3.744   6.226   0.453  0.00  0.00    +0.041 A 
ATOM     17  C   UNL     1       3.782   6.002   1.819  0.00  0.00    +0.020 A 
ATOM     18  C   UNL     1       3.478   4.757   2.326  0.00  0.00    +0.009 A 
ATOM     19 CL   UNL     1       4.129   7.798  -0.176  0.00  0.00    -0.084 Cl
ENDBRANCH   3  13
BRANCH   7  20
ATOM     20  C   UNL     1      -0.742  -1.905   2.734  0.00  0.00    -0.035 A 
ATOM     21  C   UNL     1      -0.594  -1.224   3.928  0.00  0.00    +0.006 A 
ATOM     22  C   UNL     1      -1.611  -1.239   4.863  0.00  0.00    +0.020 A 
ATOM     23  C   UNL     1      -2.774  -1.945   4.609  0.00  0.00    +0.041 A 
ATOM     24  C   UNL     1      -2.919  -2.631   3.416  0.00  0.00    +0.020 A 
ATOM     25  C   UNL     1      -1.903  -2.611   2.479  0.00  0.00    +0.006 A 
ATOM     26 CL   UNL     1      -4.049  -1.971   5.786  0.00  0.00    -0.084 Cl
ENDBRANCH   7  20
BRANCH   9  27
ATOM     27  N   UNL     1       3.738  -2.264   3.296  0.00  0.00    -0.328 N 
ATOM     28  H   UNL     1       3.803  -3.229   3.369  0.00  0.00    +0.145 HD
ATOM     29  H   UNL     1       4.465  -1.703   3.609  0.00  0.00    +0.145 HD
ENDBRANCH   9  27
BRANCH  11  31
ATOM     30  C   UNL     1      -1.357   3.738  -0.289  0.00  0.00    -0.017 C 
ATOM     31  C   UNL     1      -1.220   2.242  -0.578  0.00  0.00    -0.081 C 
ENDBRANCH  11  31
BRANCH   8  32
ATOM     32  C   UNL     1       1.718  -3.906   2.430  0.00  0.00    +0.101 C 
ATOM     33  N   UNL     1       1.809  -5.034   2.522  0.00  0.00    -0.191 NA
ENDBRANCH   8  32
TORSDOF 5
