REMARK  Name = ZINC00709478
REMARK  8 active torsions:
REMARK  status: ('A' for Active; 'I' for Inactive)
REMARK    1  A    between atoms: C_1  and  C_2
REMARK    2  A    between atoms: C_2  and  C_33
REMARK    3  A    between atoms: C_6  and  C_19
REMARK    4  A    between atoms: C_21  and  O_28
REMARK    5  A    between atoms: C_22  and  O_27
REMARK    6  A    between atoms: C_23  and  O_25
REMARK    7  A    between atoms: O_25  and  C_26
REMARK    8  A    between atoms: O_28  and  C_29
REMARK                            x       y       z     vdW  Elec       q    Type
REMARK                         _______ _______ _______ _____ _____    ______ ____
ROOT
ATOM      1  C   UNL     1      -0.019   1.530   0.011  0.00  0.00    +0.011 C 
ATOM      2  C   UNL     1       0.002  -0.004   0.002  0.00  0.00    -0.024 C 
ATOM      3  C   UNL     1      -1.432  -0.527   0.028  0.00  0.00    +0.043 C 
ATOM      4  C   UNL     1      -1.500  -2.014   0.253  0.00  0.00    -0.029 C 
ATOM      5  C   UNL     1      -0.437  -2.687   0.773  0.00  0.00    +0.023 C 
ATOM      6  C   UNL     1      -0.443  -4.193   0.885  0.00  0.00    +0.135 C 
ATOM      7  N   UNL     1      -1.821  -4.664   1.041  0.00  0.00    -0.332 N 
ATOM      8  C   UNL     1      -2.808  -4.072   0.266  0.00  0.00    +0.036 A 
ATOM      9  C   UNL     1      -2.692  -2.713  -0.071  0.00  0.00    +0.009 A 
ATOM     10  C   UNL     1      -3.842  -2.081  -0.715  0.00  0.00    +0.010 A 
ATOM     11  C   UNL     1      -4.041  -0.697  -0.775  0.00  0.00    +0.012 A 
ATOM     12  C   UNL     1      -5.096  -0.211  -1.501  0.00  0.00    +0.020 A 
ATOM     13  C   UNL     1      -5.974  -1.091  -2.126  0.00  0.00    +0.111 A 
ATOM     14  N   UNL     1      -5.836  -2.386  -1.995  0.00  0.00    -0.255 NA
ATOM     15  C   UNL     1      -4.860  -2.913  -1.252  0.00  0.00    +0.072 A 
ATOM     16  C   UNL     1      -4.860  -4.292  -0.959  0.00  0.00    +0.030 A 
ATOM     17  C   UNL     1      -3.878  -4.838  -0.201  0.00  0.00    +0.025 A 
ATOM     18  C   UNL     1       0.697  -2.007   1.252  0.00  0.00    +0.162 C 
ATOM     19  O   UNL     1       1.643  -2.636   1.681  0.00  0.00    -0.292 OA
ATOM     20  C   UNL     1       0.744  -0.503   1.245  0.00  0.00    +0.086 C 
ATOM     21  C   UNL     1       0.714  -0.490  -1.261  0.00  0.00    +0.011 C 
ATOM     22  H   UNL     1      -2.040  -5.369   1.672  0.00  0.00    +0.147 HD
ENDROOT
BRANCH   6  23
ATOM     23  C   UNL     1       0.153  -4.793  -0.363  0.00  0.00    -0.016 A 
ATOM     24  C   UNL     1      -0.613  -4.903  -1.508  0.00  0.00    +0.055 A 
ATOM     25  C   UNL     1      -0.068  -5.454  -2.658  0.00  0.00    +0.165 A 
ATOM     26  C   UNL     1       1.250  -5.896  -2.658  0.00  0.00    +0.201 A 
ATOM     27  C   UNL     1       2.016  -5.782  -1.505  0.00  0.00    +0.165 A 
ATOM     28  C   UNL     1       1.466  -5.225  -0.360  0.00  0.00    +0.055 A 
BRANCH  27  29
ATOM     29  O   UNL     1       3.306  -6.213  -1.500  0.00  0.00    -0.491 OA
ATOM     30  C   UNL     1       4.035  -6.066  -0.279  0.00  0.00    +0.277 C 
ENDBRANCH  27  29
BRANCH  26  31
ATOM     31  O   UNL     1       1.788  -6.438  -3.785  0.00  0.00    -0.501 OA
ATOM     32  H   UNL     1       2.211  -5.793  -4.368  0.00  0.00    +0.292 HD
ENDBRANCH  26  31
BRANCH  25  33
ATOM     33  O   UNL     1      -0.823  -5.563  -3.784  0.00  0.00    -0.491 OA
ATOM     34  C   UNL     1      -2.169  -5.089  -3.712  0.00  0.00    +0.277 C 
ENDBRANCH  25  33
ENDBRANCH   6  23
TORSDOF 4
