REMARK  Name = ZINC40988783
REMARK  6 active torsions:
REMARK  status: ('A' for Active; 'I' for Inactive)
REMARK    1  A    between atoms: C_5  and  C_7
REMARK    2  A    between atoms: C_7  and  C_9
REMARK    3  A    between atoms: C_7  and  N_30
REMARK    4  A    between atoms: C_9  and  N_10
REMARK    5  A    between atoms: C_11  and  C_13
REMARK    6  A    between atoms: N_16  and  C_18
REMARK                            x       y       z     vdW  Elec       q    Type
REMARK                         _______ _______ _______ _____ _____    ______ ____
ROOT
ATOM      1  N   UNL     1       1.009  -4.211   1.365  0.00  0.00    -0.311 N 
ATOM      2  C   UNL     1       0.922  -4.914   2.512  0.00  0.00    +0.264 C 
ATOM      3  O   UNL     1       1.094  -4.358   3.580  0.00  0.00    -0.268 OA
ATOM      4  H   UNL     1       0.873  -4.654   0.513  0.00  0.00    +0.149 HD
ENDROOT
BRANCH   2   5
ATOM      5  C   UNL     1       0.619  -6.359   2.472  0.00  0.00    +0.150 A 
ATOM      6  C   UNL     1       0.491  -7.220   3.574  0.00  0.00    +0.006 A 
ATOM      7  C   UNL     1       0.213  -8.444   3.060  0.00  0.00    +0.044 A 
ATOM      8  N   UNL     1       0.176  -8.315   1.723  0.00  0.00    -0.263 N 
ATOM      9  N   UNL     1       0.409  -7.092   1.391  0.00  0.00    -0.166 NA
ATOM     10  C   UNL     1       0.000  -9.678   3.897  0.00  0.00    +0.055 C 
ATOM     11  C   UNL     1       0.550  -9.408   5.304  0.00  0.00    +0.006 C 
ATOM     12  C   UNL     1      -0.004  -8.081   5.827  0.00  0.00    +0.005 C 
ATOM     13  C   UNL     1       0.619  -6.919   5.042  0.00  0.00    +0.039 C 
BRANCH   8  14
ATOM     14  C   UNL     1      -0.096  -9.403   0.781  0.00  0.00    +0.130 C 
ATOM     15  C   UNL     1      -1.343  -9.059  -0.051  0.00  0.00    +0.051 C 
ATOM     16  C   UNL     1      -1.425 -10.061  -1.237  0.00  0.00    +0.168 C 
ATOM     17  S   UNL     1       0.350 -10.159  -1.720  0.00  0.00    -0.029 S 
ATOM     18  O   UNL     1       0.607  -9.197  -2.735  0.00  0.00    -0.174 OA
ATOM     19  O   UNL     1       0.695 -11.519  -1.943  0.00  0.00    -0.174 OA
ATOM     20  C   UNL     1       1.124  -9.592  -0.152  0.00  0.00    +0.192 C 
ENDBRANCH   8  14
ENDBRANCH   2   5
BRANCH   1  21
ATOM     21  C   UNL     1       1.310  -2.778   1.405  0.00  0.00    +0.094 C 
BRANCH  21  22
ATOM     22  C   UNL     1       1.232  -2.200  -0.009  0.00  0.00    -0.019 C 
BRANCH  22  23
ATOM     23  N   UNL     1       2.095  -2.981  -0.906  0.00  0.00    +0.385 N 
ATOM     24  C   UNL     1       3.463  -2.996  -0.351  0.00  0.00    -0.078 C 
ATOM     25  C   UNL     1       4.172  -4.221  -0.873  0.00  0.00    -0.019 C 
ATOM     26  C   UNL     1       5.022  -3.893  -2.115  0.00  0.00    -0.002 C 
ATOM     27  C   UNL     1       4.294  -2.923  -3.067  0.00  0.00    -0.002 C 
ATOM     28  C   UNL     1       2.830  -3.253  -3.214  0.00  0.00    -0.019 C 
ATOM     29  C   UNL     1       2.023  -2.432  -2.187  0.00  0.00    -0.078 C 
ATOM     30  H   UNL     1       1.751  -3.929  -0.940  0.00  0.00    -0.081 HD
ENDBRANCH  22  23
BRANCH  22  35
ATOM     31  C   UNL     1      -1.914  -3.394  -1.720  0.00  0.00    +0.000 A 
ATOM     32  C   UNL     1      -2.803  -2.385  -1.402  0.00  0.00    +0.001 A 
ATOM     33  C   UNL     1      -2.387  -1.315  -0.632  0.00  0.00    +0.020 A 
ATOM     34  C   UNL     1      -1.080  -1.254  -0.181  0.00  0.00    +0.043 A 
ATOM     35  C   UNL     1      -0.191  -2.265  -0.500  0.00  0.00    -0.041 A 
ATOM     36  C   UNL     1      -0.609  -3.335  -1.270  0.00  0.00    +0.003 A 
ATOM     37 CL   UNL     1      -0.556   0.089   0.785  0.00  0.00    -0.083 Cl
ENDBRANCH  22  35
ENDBRANCH  21  22
ENDBRANCH   1  21
TORSDOF 6
