REMARK  Name = ZINC01748211
REMARK  9 active torsions:
REMARK  status: ('A' for Active; 'I' for Inactive)
REMARK    1  A    between atoms: C_1  and  C_2
REMARK    2  A    between atoms: C_6  and  O_8
REMARK    3  A    between atoms: O_8  and  C_9
REMARK    4  A    between atoms: C_15  and  O_32
REMARK    5  A    between atoms: C_16  and  C_24
REMARK    6  A    between atoms: C_19  and  C_20
REMARK    7  A    between atoms: C_24  and  N_59
REMARK    8  A    between atoms: C_25  and  N_59
REMARK    9  A    between atoms: C_26  and  N_59
REMARK                            x       y       z     vdW  Elec       q    Type
REMARK                         _______ _______ _______ _____ _____    ______ ____
ROOT
ATOM      1  C   UNL     1      -3.567   3.067   0.052  0.00  0.00    +0.222 A 
ATOM      2  C   UNL     1      -4.185   2.691  -1.175  0.00  0.00    +0.235 A 
ATOM      3  O   UNL     1      -3.710   3.013  -2.251  0.00  0.00    -0.283 OA
ATOM      4  C   UNL     1      -5.419   1.891  -1.089  0.00  0.00    +0.068 A 
ATOM      5  C   UNL     1      -6.095   1.471  -2.236  0.00  0.00    +0.019 A 
ATOM      6  C   UNL     1      -7.239   0.736  -2.117  0.00  0.00    +0.046 A 
ATOM      7  C   UNL     1      -7.736   0.404  -0.858  0.00  0.00    +0.122 A 
ATOM      8  C   UNL     1      -7.077   0.812   0.289  0.00  0.00    +0.020 A 
ATOM      9  C   UNL     1      -5.913   1.560   0.185  0.00  0.00    +0.144 A 
ATOM     10  O   UNL     1      -5.252   1.972   1.286  0.00  0.00    -0.447 OA
ATOM     11  C   UNL     1      -4.127   2.695   1.220  0.00  0.00    +0.254 A 
ENDROOT
BRANCH  11  12
ATOM     12  C   UNL     1      -3.458   3.109   2.506  0.00  0.00    +0.454 C 
ATOM     13  F   UNL     1      -3.963   4.348   2.916  0.00  0.00    -0.163 F 
ATOM     14  F   UNL     1      -3.712   2.152   3.493  0.00  0.00    -0.163 F 
ATOM     15  F   UNL     1      -2.078   3.213   2.301  0.00  0.00    -0.163 F 
ENDBRANCH  11  12
BRANCH   7  16
ATOM     16  O   UNL     1      -8.875  -0.327  -0.756  0.00  0.00    -0.506 OA
ATOM     17  H   UNL     1      -8.729  -1.283  -0.734  0.00  0.00    +0.292 HD
ENDBRANCH   7  16
BRANCH   1  18
ATOM     18  O   UNL     1      -2.421   3.802   0.044  0.00  0.00    -0.448 OA
BRANCH  18  24
ATOM     19  C   UNL     1       2.458   3.933  -0.002  0.00  0.00    +0.044 C 
ATOM     20  C   UNL     1       1.160   3.166   0.007  0.00  0.00    -0.047 A 
ATOM     21  C   UNL     1       1.176   1.783   0.000  0.00  0.00    +0.003 A 
ATOM     22  C   UNL     1      -0.013   1.076   0.008  0.00  0.00    +0.004 A 
ATOM     23  C   UNL     1      -1.219   1.750   0.017  0.00  0.00    +0.046 A 
ATOM     24  C   UNL     1      -1.237   3.137   0.030  0.00  0.00    +0.129 A 
ATOM     25  C   UNL     1      -0.043   3.844   0.022  0.00  0.00    +0.049 A 
ENDBRANCH  18  24
ENDBRANCH   1  18
BRANCH   8  26
ATOM     26  C   UNL     1      -7.623   0.447   1.645  0.00  0.00    -0.036 C 
BRANCH  26  28
ATOM     27  C   UNL     1      -9.742   1.548   1.244  0.00  0.00    -0.095 C 
ATOM     28  N   UNL     1      -8.535   1.520   2.097  0.00  0.00    +0.383 N 
ATOM     29  H   UNL     1      -8.051   2.422   2.021  0.00  0.00    -0.081 HD
BRANCH  28  30
ATOM     30  C   UNL     1      -8.917   1.297   3.507  0.00  0.00    -0.069 C 
ATOM     31  C   UNL     1      -9.708  -0.005   3.650  0.00  0.00    -0.015 C 
ATOM     32  C   UNL     1     -10.092  -0.210   5.116  0.00  0.00    -0.002 C 
ATOM     33  C   UNL     1     -10.953   0.964   5.587  0.00  0.00    -0.000 C 
ATOM     34  C   UNL     1     -10.163   2.266   5.444  0.00  0.00    -0.002 C 
ATOM     35  C   UNL     1      -9.778   2.471   3.978  0.00  0.00    -0.015 C 
ENDBRANCH  28  30
ENDBRANCH  26  28
ENDBRANCH   8  26
TORSDOF 7
