REMARK  Name = ZINC37936380
REMARK  3 active torsions:
REMARK  status: ('A' for Active; 'I' for Inactive)
REMARK    1  A    between atoms: C_10  and  C_11
REMARK    2  A    between atoms: C_10  and  N_13
REMARK    3  A    between atoms: N_13  and  C_14
REMARK                            x       y       z     vdW  Elec       q    Type
REMARK                         _______ _______ _______ _____ _____    ______ ____
ROOT
ATOM      1  C   UNL     1      -0.119   1.143   0.004  0.00  0.00    +0.000 A 
ATOM      2  C   UNL     1       1.063   1.838   0.180  0.00  0.00    +0.000 A 
ATOM      3  C   UNL     1       2.267   1.165   0.140  0.00  0.00    +0.007 A 
ATOM      4  C   UNL     1       2.301  -0.207  -0.075  0.00  0.00    -0.007 A 
ATOM      5  C   UNL     1       1.124  -0.900  -0.245  0.00  0.00    -0.041 A 
ATOM      6  C   UNL     1      -0.087  -0.220  -0.208  0.00  0.00    +0.004 A 
ATOM      7  C   UNL     1       1.085  -2.390  -0.466  0.00  0.00    +0.035 C 
ATOM      8  C   UNL     1       2.454  -2.904  -0.906  0.00  0.00    +0.008 C 
ATOM      9  C   UNL     1       3.506  -2.385   0.081  0.00  0.00    +0.046 C 
ATOM     10  C   UNL     1       3.649  -0.877  -0.116  0.00  0.00    +0.145 C 
ENDROOT
BRANCH  10  11
ATOM     11  C   UNL     1       4.497  -0.327   0.954  0.00  0.00    +0.093 C 
ATOM     12  N   UNL     1       5.152   0.099   1.780  0.00  0.00    -0.194 NA
ENDBRANCH  10  11
BRANCH  10  13
ATOM     13  N   UNL     1       4.279  -0.617  -1.413  0.00  0.00    -0.323 N 
ATOM     14  H   UNL     1       3.802  -0.116  -2.092  0.00  0.00    +0.148 HD
BRANCH  13  15
ATOM     15  C   UNL     1       5.568  -1.092  -1.671  0.00  0.00    +0.029 A 
ATOM     16  C   UNL     1       6.293  -1.718  -0.665  0.00  0.00    +0.024 A 
ATOM     17  C   UNL     1       7.567  -2.186  -0.924  0.00  0.00    +0.017 A 
ATOM     18  C   UNL     1       8.120  -2.032  -2.183  0.00  0.00    +0.018 A 
ATOM     19  C   UNL     1       7.399  -1.409  -3.186  0.00  0.00    +0.017 A 
ATOM     20  C   UNL     1       6.123  -0.944  -2.935  0.00  0.00    +0.024 A 
ATOM     21 BR   UNL     1       9.864  -2.673  -2.532  0.00  0.00    -0.050 Br
ENDBRANCH  13  15
ENDBRANCH  10  13
TORSDOF 3
