REMARK  Name = ZINC24272835
REMARK  14 active torsions:
REMARK  status: ('A' for Active; 'I' for Inactive)
REMARK    1  A    between atoms: C_1  and  C_2
REMARK    2  A    between atoms: C_6  and  C_36
REMARK    3  A    between atoms: C_7  and  O_8
REMARK    4  A    between atoms: O_8  and  C_9
REMARK    5  A    between atoms: C_9  and  C_10
REMARK    6  A    between atoms: C_13  and  S_16
REMARK    7  A    between atoms: N_14  and  N_15
REMARK    8  A    between atoms: S_16  and  C_17
REMARK    9  A    between atoms: C_17  and  C_18
REMARK   10  A    between atoms: N_20  and  C_21
REMARK   11  A    between atoms: C_21  and  C_23
REMARK   12  A    between atoms: C_21  and  C_33
REMARK   13  A    between atoms: C_33  and  C_34
REMARK   14  A    between atoms: C_33  and  C_35
REMARK                            x       y       z     vdW  Elec       q    Type
REMARK                         _______ _______ _______ _____ _____    ______ ____
ROOT
ATOM      1  S   UNL     1      -7.866  -1.365  -2.910  0.00  0.00    -0.075 S 
ENDROOT
BRANCH   1   5
ATOM      2  C   UNL     1     -10.423   0.435  -5.243  0.00  0.00    +0.189 A 
ATOM      3  N   UNL     1      -9.624   1.405  -4.899  0.00  0.00    -0.128 NA
ATOM      4  N   UNL     1      -8.710   0.965  -4.110  0.00  0.00    -0.121 NA
ATOM      5  C   UNL     1      -8.873  -0.323  -3.913  0.00  0.00    +0.209 A 
ATOM      6  N   UNL     1      -9.974  -0.701  -4.627  0.00  0.00    -0.225 N 
BRANCH   6   7
ATOM      7  N   UNL     1     -10.514  -1.953  -4.710  0.00  0.00    -0.295 N 
ATOM      8  H   UNL     1     -10.053  -2.788  -4.161  0.00  0.00    +0.163 HD
ATOM      9  H   UNL     1     -11.409  -2.126  -5.324  0.00  0.00    +0.163 HD
ENDBRANCH   6   7
BRANCH   2  10
ATOM     10  C   UNL     1     -11.621   0.544  -6.151  0.00  0.00    +0.306 C 
BRANCH  10  11
ATOM     11  O   UNL     1     -12.782   0.845  -5.374  0.00  0.00    -0.484 OA
BRANCH  11  18
ATOM     12  C   UNL     1     -13.470   3.425  -6.296  0.00  0.00    +0.047 C 
ATOM     13  C   UNL     1     -14.347   2.221  -6.522  0.00  0.00    -0.009 A 
ATOM     14  C   UNL     1     -15.539   2.352  -7.208  0.00  0.00    +0.007 A 
ATOM     15  C   UNL     1     -16.346   1.249  -7.411  0.00  0.00    +0.001 A 
ATOM     16  C   UNL     1     -15.962   0.010  -6.931  0.00  0.00    +0.007 A 
ATOM     17  C   UNL     1     -14.769  -0.128  -6.249  0.00  0.00    -0.009 A 
ATOM     18  C   UNL     1     -13.956   0.978  -6.045  0.00  0.00    +0.127 A 
ATOM     19  C   UNL     1     -14.350  -1.478  -5.727  0.00  0.00    +0.047 C 
ENDBRANCH  11  18
ENDBRANCH  10  11
ENDBRANCH   2  10
ENDBRANCH   1   5
BRANCH   1  20
ATOM     20  C   UNL     1      -6.653  -0.158  -2.322  0.00  0.00    +0.173 C 
BRANCH  20  21
ATOM     21  C   UNL     1      -5.660  -0.844  -1.419  0.00  0.00    +0.224 C 
ATOM     22  O   UNL     1      -5.762  -2.031  -1.195  0.00  0.00    -0.275 OA
ATOM     23  N   UNL     1      -4.657  -0.137  -0.860  0.00  0.00    -0.308 N 
ATOM     24  H   UNL     1      -4.564   0.940  -1.063  0.00  0.00    +0.149 HD
BRANCH  23  25
ATOM     25  C   UNL     1      -3.692  -0.803   0.018  0.00  0.00    +0.106 C 
BRANCH  25  26
ATOM     26  C   UNL     1      -2.397  -0.033   0.016  0.00  0.00    -0.023 A 
ATOM     27  C   UNL     1      -2.415   1.349   0.025  0.00  0.00    +0.009 A 
ATOM     28  C   UNL     1      -1.229   2.059   0.019  0.00  0.00    +0.050 A 
ATOM     29  C   UNL     1      -0.017   1.385   0.010  0.00  0.00    +0.162 A 
ATOM     30  C   UNL     1       0.002  -0.004   0.002  0.00  0.00    +0.162 A 
ATOM     31  C   UNL     1      -1.192  -0.710   0.004  0.00  0.00    +0.055 A 
ATOM     32  O   UNL     1       1.181  -0.685  -0.007  0.00  0.00    -0.485 OA
ATOM     33  C   UNL     1       2.347   0.053  -0.387  0.00  0.00    +0.270 C 
ATOM     34  C   UNL     1       2.334   1.392   0.364  0.00  0.00    +0.270 C 
ATOM     35  O   UNL     1       1.143   2.098   0.002  0.00  0.00    -0.485 OA
ENDBRANCH  25  26
BRANCH  25  36
ATOM     36  C   UNL     1      -4.250  -0.858   1.441  0.00  0.00    +0.008 C 
ATOM     37  C   UNL     1      -5.566  -1.640   1.443  0.00  0.00    +0.009 C 
ATOM     38  C   UNL     1      -3.242  -1.554   2.358  0.00  0.00    +0.009 C 
ENDBRANCH  25  36
ENDBRANCH  23  25
ENDBRANCH  20  21
ENDBRANCH   1  20
TORSDOF 10
