REMARK  Name = ZINC07716331
REMARK  5 active torsions:
REMARK  status: ('A' for Active; 'I' for Inactive)
REMARK    1  A    between atoms: C_1  and  C_2
REMARK    2  A    between atoms: C_4  and  C_29
REMARK    3  A    between atoms: C_11  and  C_12
REMARK    4  A    between atoms: C_11  and  O_28
REMARK    5  A    between atoms: C_13  and  C_18
REMARK                            x       y       z     vdW  Elec       q    Type
REMARK                         _______ _______ _______ _____ _____    ______ ____
ROOT
ATOM      1  C   UNL     1      -1.277   6.566  -0.682  0.00  0.00    +0.064 A 
ATOM      2  C   UNL     1      -0.845   6.290   0.584  0.00  0.00    +0.087 A 
ATOM      3  N   UNL     1      -0.080   7.175   1.219  0.00  0.00    -0.225 NA
ATOM      4  C   UNL     1       0.275   8.308   0.641  0.00  0.00    +0.156 A 
ATOM      5  S   UNL     1      -0.530   8.168  -0.948  0.00  0.00    -0.053 S 
ATOM      6  N   UNL     1       1.060   9.336   1.139  0.00  0.00    -0.337 N 
ATOM      7  H   UNL     1       1.235  10.120   0.594  0.00  0.00    +0.144 HD
ATOM      8  H   UNL     1       1.435   9.272   2.031  0.00  0.00    +0.144 HD
ENDROOT
BRANCH   1  19
ATOM      9  C   UNL     1      -4.317   8.621  -6.080  0.00  0.00    +0.044 C 
ATOM     10  C   UNL     1      -3.794   7.918  -4.854  0.00  0.00    -0.048 A 
ATOM     11  C   UNL     1      -4.222   8.313  -3.599  0.00  0.00    +0.007 A 
ATOM     12  C   UNL     1      -3.743   7.667  -2.473  0.00  0.00    -0.042 A 
ATOM     13  C   UNL     1      -2.842   6.634  -2.605  0.00  0.00    +0.022 A 
ATOM     14  C   UNL     1      -2.404   6.228  -3.859  0.00  0.00    +0.041 A 
ATOM     15  C   UNL     1      -2.891   6.883  -4.989  0.00  0.00    +0.027 A 
ATOM     16  N   UNL     1      -1.501   5.172  -3.736  0.00  0.00    -0.282 N 
ATOM     17  C   UNL     1      -1.292   4.825  -2.452  0.00  0.00    +0.259 C 
ATOM     18  O   UNL     1      -0.562   3.944  -2.050  0.00  0.00    -0.272 OA
ATOM     19  C   UNL     1      -2.143   5.745  -1.603  0.00  0.00    +0.203 C 
ATOM     20  C   UNL     1      -4.205   8.094  -1.104  0.00  0.00    +0.044 C 
ATOM     21  H   UNL     1      -1.073   4.736  -4.490  0.00  0.00    +0.155 HD
BRANCH  19  22
ATOM     22  O   UNL     1      -3.098   4.993  -0.851  0.00  0.00    -0.371 OA
ATOM     23  H   UNL     1      -2.709   4.286  -0.317  0.00  0.00    +0.212 HD
ENDBRANCH  19  22
ENDBRANCH   1  19
BRANCH   2  24
ATOM     24  C   UNL     1      -1.230   5.020   1.246  0.00  0.00    +0.005 A 
ATOM     25  C   UNL     1      -0.936   3.799   0.641  0.00  0.00    +0.014 A 
ATOM     26  C   UNL     1      -1.301   2.619   1.256  0.00  0.00    +0.050 A 
ATOM     27  C   UNL     1      -1.951   2.642   2.482  0.00  0.00    +0.162 A 
ATOM     28  C   UNL     1      -2.244   3.857   3.092  0.00  0.00    +0.163 A 
ATOM     29  C   UNL     1      -1.885   5.044   2.475  0.00  0.00    +0.059 A 
ATOM     30  O   UNL     1      -2.881   3.897   4.295  0.00  0.00    -0.485 OA
ATOM     31  C   UNL     1      -3.558   2.704   4.705  0.00  0.00    +0.270 C 
ATOM     32  C   UNL     1      -2.618   1.514   4.467  0.00  0.00    +0.270 C 
ATOM     33  O   UNL     1      -2.300   1.465   3.072  0.00  0.00    -0.485 OA
ENDBRANCH   2  24
TORSDOF 3
