REMARK  Name = ZINC24984648
REMARK  8 active torsions:
REMARK  status: ('A' for Active; 'I' for Inactive)
REMARK    1  A    between atoms: C_3  and  N_15
REMARK    2  A    between atoms: C_6  and  C_7
REMARK    3  A    between atoms: N_11  and  C_12
REMARK    4  A    between atoms: N_15  and  C_16
REMARK    5  A    between atoms: C_16  and  C_17
REMARK    6  A    between atoms: N_19  and  C_20
REMARK    7  A    between atoms: C_20  and  C_21
REMARK    8  A    between atoms: C_24  and  C_26
REMARK                            x       y       z     vdW  Elec       q    Type
REMARK                         _______ _______ _______ _____ _____    ______ ____
ROOT
ATOM      1  C   UNL     1       2.758   1.448   1.587  0.00  0.00    +0.197 C 
ENDROOT
BRANCH   1   2
ATOM      2  C   UNL     1       1.530   2.274   1.868  0.00  0.00    +0.230 C 
ATOM      3  O   UNL     1       1.595   3.485   1.840  0.00  0.00    -0.274 OA
ATOM      4  N   UNL     1       0.360   1.668   2.150  0.00  0.00    -0.307 N 
ATOM      5  H   UNL     1       0.302   0.570   2.179  0.00  0.00    +0.149 HD
BRANCH   4   6
ATOM      6  C   UNL     1      -0.836   2.472   2.417  0.00  0.00    +0.178 C 
BRANCH   6   7
ATOM      7  C   UNL     1      -2.002   1.560   2.695  0.00  0.00    +0.123 A 
ATOM      8  C   UNL     1      -2.365   1.095   3.907  0.00  0.00    +0.047 A 
ATOM      9  C   UNL     1      -3.500   0.282   3.715  0.00  0.00    +0.050 A 
ATOM     10  C   UNL     1      -3.770   0.295   2.383  0.00  0.00    +0.135 A 
ATOM     11  O   UNL     1      -2.857   1.079   1.778  0.00  0.00    -0.458 OA
BRANCH  10  12
ATOM     12  C   UNL     1      -4.878  -0.421   1.716  0.00  0.00    +0.017 A 
ATOM     13  C   UNL     1      -5.758  -1.203   2.465  0.00  0.00    +0.013 A 
ATOM     14  C   UNL     1      -6.793  -1.865   1.837  0.00  0.00    +0.021 A 
ATOM     15  C   UNL     1      -6.953  -1.763   0.466  0.00  0.00    +0.041 A 
ATOM     16  C   UNL     1      -6.079  -0.993  -0.283  0.00  0.00    +0.021 A 
ATOM     17  C   UNL     1      -5.044  -0.322   0.334  0.00  0.00    +0.013 A 
ATOM     18 CL   UNL     1      -8.253  -2.605  -0.318  0.00  0.00    -0.084 Cl
ENDBRANCH  10  12
ENDBRANCH   6   7
ENDBRANCH   4   6
ENDBRANCH   1   2
BRANCH   1  19
ATOM     19  N   UNL     1       3.891   2.334   1.311  0.00  0.00    -0.335 N 
ATOM     20  H   UNL     1       3.753   3.425   1.332  0.00  0.00    +0.147 HD
BRANCH  19  23
ATOM     21  C   UNL     1       7.458   2.108   0.473  0.00  0.00    +0.013 A 
ATOM     22  C   UNL     1       6.219   2.639   0.759  0.00  0.00    +0.023 A 
ATOM     23  C   UNL     1       5.144   1.795   1.021  0.00  0.00    +0.028 A 
ATOM     24  C   UNL     1       5.318   0.416   1.000  0.00  0.00    +0.023 A 
ATOM     25  C   UNL     1       6.554  -0.120   0.710  0.00  0.00    +0.013 A 
ATOM     26  C   UNL     1       7.634   0.724   0.446  0.00  0.00    +0.021 A 
BRANCH  26  27
ATOM     27  C   UNL     1       8.963   0.152   0.140  0.00  0.00    +0.182 A 
ATOM     28  N   UNL     1       9.368  -1.073   0.404  0.00  0.00    -0.108 NA
ATOM     29  N   UNL     1      10.576  -1.243   0.002  0.00  0.00    -0.023 NA
ATOM     30  N   UNL     1      11.030  -0.160  -0.528  0.00  0.00    -0.043 NA
ATOM     31  N   UNL     1       9.998   0.792  -0.460  0.00  0.00    -0.222 N 
BRANCH  31  32
ATOM     32  C   UNL     1      10.032   2.178  -0.934  0.00  0.00    +0.111 C 
ATOM     33  C   UNL     1      11.319   2.664  -1.603  0.00  0.00    +0.029 C 
ATOM     34  C   UNL     1      10.955   3.153  -0.199  0.00  0.00    +0.029 C 
ENDBRANCH  31  32
ENDBRANCH  26  27
ENDBRANCH  19  23
ENDBRANCH   1  19
TORSDOF 8
