REMARK  Name = ZINC23694820
REMARK  9 active torsions:
REMARK  status: ('A' for Active; 'I' for Inactive)
REMARK    1  A    between atoms: C_1  and  C_2
REMARK    2  A    between atoms: C_2  and  C_3
REMARK    3  A    between atoms: N_9  and  C_10
REMARK    4  A    between atoms: C_10  and  C_11
REMARK    5  A    between atoms: N_13  and  C_14
REMARK    6  A    between atoms: C_16  and  S_22
REMARK    7  A    between atoms: C_18  and  C_21
REMARK    8  A    between atoms: C_19  and  C_20
REMARK    9  A    between atoms: S_22  and  N_25
REMARK                            x       y       z     vdW  Elec       q    Type
REMARK                         _______ _______ _______ _____ _____    ______ ____
ROOT
ATOM      1  C   UNL     1       0.425   1.110   0.562  0.00  0.00    +0.201 C 
ATOM      2  O   UNL     1       0.392  -0.076   0.814  0.00  0.00    -0.278 OA
ATOM      3  N   UNL     1       1.599   1.772   0.590  0.00  0.00    -0.287 N 
ATOM      4  H   UNL     1       1.641   2.828   0.284  0.00  0.00    +0.155 HD
ENDROOT
BRANCH   3   5
ATOM      5  C   UNL     1       2.762   1.116   1.007  0.00  0.00    +0.038 A 
ATOM      6  C   UNL     1       2.674  -0.042   1.768  0.00  0.00    +0.052 A 
ATOM      7  C   UNL     1       3.824  -0.687   2.178  0.00  0.00    +0.107 A 
ATOM      8  C   UNL     1       5.063  -0.180   1.831  0.00  0.00    +0.032 A 
ATOM      9  C   UNL     1       5.155   0.973   1.074  0.00  0.00    -0.044 A 
ATOM     10  C   UNL     1       4.008   1.619   0.655  0.00  0.00    -0.026 A 
ATOM     11  C   UNL     1       4.109   2.872  -0.176  0.00  0.00    +0.046 C 
ATOM     12  C   UNL     1       6.507   1.521   0.699  0.00  0.00    +0.044 C 
BRANCH   7  13
ATOM     13  S   UNL     1       3.712  -2.156   3.144  0.00  0.00    +0.056 S 
ATOM     14  O   UNL     1       4.935  -2.265   3.860  0.00  0.00    -0.153 OA
ATOM     15  O   UNL     1       2.449  -2.120   3.794  0.00  0.00    -0.153 OA
BRANCH  13  16
ATOM     16  N   UNL     1       3.666  -3.433   2.091  0.00  0.00    -0.204 NA
ATOM     17  H   UNL     1       3.596  -4.373   2.657  0.00  0.00    +0.144 HD
ATOM     18  H   UNL     1       4.582  -3.439   1.481  0.00  0.00    +0.144 HD
ENDBRANCH  13  16
ENDBRANCH   7  13
ENDBRANCH   3   5
BRANCH   1  19
ATOM     19  C   UNL     1      -0.845   1.841   0.211  0.00  0.00    +0.019 C 
BRANCH  19  25
ATOM     20  C   UNL     1      -3.255   1.623   0.275  0.00  0.00    -0.068 C 
ATOM     21  C   UNL     1      -4.400   0.623   0.455  0.00  0.00    -0.015 C 
ATOM     22  C   UNL     1      -4.383  -0.378  -0.704  0.00  0.00    -0.003 C 
ATOM     23  C   UNL     1      -3.022  -1.079  -0.743  0.00  0.00    -0.019 C 
ATOM     24  C   UNL     1      -1.918  -0.030  -0.888  0.00  0.00    -0.078 C 
ATOM     25  N   UNL     1      -1.975   0.904   0.244  0.00  0.00    +0.387 N 
ATOM     26  H   UNL     1      -1.900   0.313   1.169  0.00  0.00    -0.081 HD
BRANCH  20  28
ATOM     27  C   UNL     1      -2.966   1.867   2.744  0.00  0.00    +0.002 C 
ATOM     28  C   UNL     1      -3.256   2.614   1.441  0.00  0.00    -0.019 C 
ENDBRANCH  20  28
ENDBRANCH  19  25
ENDBRANCH   1  19
TORSDOF 6
