REMARK  Name = ZINC34929103
REMARK  11 active torsions:
REMARK  status: ('A' for Active; 'I' for Inactive)
REMARK    1  A    between atoms: C_1  and  C_2
REMARK    2  A    between atoms: C_2  and  C_4
REMARK    3  A    between atoms: C_2  and  N_16
REMARK    4  A    between atoms: C_4  and  C_5
REMARK    5  A    between atoms: C_5  and  C_6
REMARK    6  A    between atoms: C_6  and  N_7
REMARK    7  A    between atoms: N_7  and  C_8
REMARK    8  A    between atoms: C_8  and  C_9
REMARK    9  A    between atoms: N_16  and  C_17
REMARK   10  A    between atoms: C_19  and  O_27
REMARK   11  A    between atoms: O_27  and  C_28
REMARK                            x       y       z     vdW  Elec       q    Type
REMARK                         _______ _______ _______ _____ _____    ______ ____
ROOT
ATOM      1  C   UNL     1      -0.019   1.526   0.010  0.00  0.00    +0.028 C 
ATOM      2  C   UNL     1       0.002  -0.004   0.002  0.00  0.00    +0.067 C 
ENDROOT
BRANCH   2   3
ATOM      3  N   UNL     1      -1.372  -0.511   0.012  0.00  0.00    -0.340 N 
ATOM      4  H   UNL     1      -1.794  -0.752   0.852  0.00  0.00    +0.146 HD
BRANCH   3   5
ATOM      5  C   UNL     1      -2.074  -0.647  -1.184  0.00  0.00    +0.057 A 
ATOM      6  C   UNL     1      -1.477  -0.311  -2.378  0.00  0.00    +0.070 A 
ATOM      7  C   UNL     1      -2.167  -0.442  -3.585  0.00  0.00    +0.123 A 
ATOM      8  C   UNL     1      -3.462  -0.910  -3.607  0.00  0.00    +0.055 A 
ATOM      9  C   UNL     1      -4.097  -1.261  -2.405  0.00  0.00    +0.006 A 
ATOM     10  C   UNL     1      -3.400  -1.136  -1.178  0.00  0.00    +0.092 A 
ATOM     11  N   UNL     1      -4.001  -1.474  -0.034  0.00  0.00    -0.253 NA
ATOM     12  C   UNL     1      -5.230  -1.929  -0.018  0.00  0.00    +0.111 A 
ATOM     13  C   UNL     1      -5.970  -2.082  -1.189  0.00  0.00    +0.020 A 
ATOM     14  C   UNL     1      -5.420  -1.743  -2.392  0.00  0.00    +0.011 A 
BRANCH   7  15
ATOM     15  O   UNL     1      -1.556  -0.103  -4.750  0.00  0.00    -0.495 OA
ATOM     16  C   UNL     1      -2.315  -0.259  -5.950  0.00  0.00    +0.277 C 
ENDBRANCH   7  15
ENDBRANCH   3   5
ENDBRANCH   2   3
BRANCH   2  17
ATOM     17  C   UNL     1       0.742  -0.511   1.242  0.00  0.00    +0.020 C 
BRANCH  17  18
ATOM     18  C   UNL     1       0.872  -2.034   1.171  0.00  0.00    -0.017 C 
BRANCH  18  19
ATOM     19  C   UNL     1       1.612  -2.541   2.410  0.00  0.00    -0.082 C 
BRANCH  19  20
ATOM     20  N   UNL     1       1.737  -4.003   2.342  0.00  0.00    +0.382 N 
ATOM     21  H   UNL     1       0.818  -4.417   2.307  0.00  0.00    -0.085 HD
ATOM     22  H   UNL     1       2.253  -4.258   1.514  0.00  0.00    -0.085 HD
BRANCH  20  23
ATOM     23  C   UNL     1       2.447  -4.489   3.533  0.00  0.00    -0.047 C 
BRANCH  23  24
ATOM     24  C   UNL     1       2.575  -5.989   3.463  0.00  0.00    -0.064 A 
ATOM     25  C   UNL     1       1.587  -6.793   4.002  0.00  0.00    +0.003 A 
ATOM     26  C   UNL     1       1.704  -8.168   3.938  0.00  0.00    +0.020 A 
ATOM     27  C   UNL     1       2.810  -8.741   3.335  0.00  0.00    +0.041 A 
ATOM     28  C   UNL     1       3.798  -7.937   2.796  0.00  0.00    +0.020 A 
ATOM     29  C   UNL     1       3.677  -6.561   2.855  0.00  0.00    +0.003 A 
ATOM     30 CL   UNL     1       2.957 -10.469   3.256  0.00  0.00    -0.084 Cl
ENDBRANCH  23  24
ENDBRANCH  20  23
ENDBRANCH  19  20
ENDBRANCH  18  19
ENDBRANCH  17  18
ENDBRANCH   2  17
TORSDOF 9
