REMARK  Name = ZINC07602132
REMARK  5 active torsions:
REMARK  status: ('A' for Active; 'I' for Inactive)
REMARK    1  A    between atoms: C_4  and  C_7
REMARK    2  A    between atoms: C_10  and  C_12
REMARK    3  A    between atoms: C_12  and  N_13
REMARK    4  A    between atoms: N_13  and  N_14
REMARK    5  A    between atoms: C_15  and  C_21
REMARK                            x       y       z     vdW  Elec       q    Type
REMARK                         _______ _______ _______ _____ _____    ______ ____
ROOT
ATOM      1  N   UNL     1       7.818  -0.757  -1.456  0.00  0.00    -0.274 N 
ATOM      2  H   UNL     1       7.562  -1.582  -1.979  0.00  0.00    +0.167 HD
ENDROOT
BRANCH   1   3
ATOM      3  N   UNL     1       9.167  -0.549  -1.502  0.00  0.00    -0.222 N 
ATOM      4  C   UNL     1       9.792   0.645  -1.801  0.00  0.00    +0.180 A 
ATOM      5  N   UNL     1      11.082   0.464  -1.747  0.00  0.00    -0.152 NA
ATOM      6  N   UNL     1      11.317  -0.875  -1.405  0.00  0.00    -0.253 N 
ATOM      7  H   UNL     1      12.185  -1.295  -1.294  0.00  0.00    +0.191 HD
ATOM      8  C   UNL     1      10.117  -1.473  -1.256  0.00  0.00    +0.193 A 
ATOM      9  S   UNL     1       9.850  -3.111  -0.834  0.00  0.00    -0.010 S 
BRANCH   4  10
ATOM     10  C   UNL     1       9.112   1.918  -2.128  0.00  0.00    +0.024 A 
ATOM     11  C   UNL     1       7.716   2.002  -2.153  0.00  0.00    +0.031 A 
ATOM     12  C   UNL     1       7.123   3.208  -2.463  0.00  0.00    +0.111 A 
ATOM     13  N   UNL     1       7.854   4.272  -2.735  0.00  0.00    -0.263 NA
ATOM     14  C   UNL     1       9.173   4.237  -2.723  0.00  0.00    +0.111 A 
ATOM     15  C   UNL     1       9.848   3.073  -2.417  0.00  0.00    +0.031 A 
ENDBRANCH   4  10
ENDBRANCH   1   3
BRANCH   1  16
ATOM     16  C   UNL     1       7.345  -0.845  -0.069  0.00  0.00    +0.195 C 
BRANCH  16  20
ATOM     17  C   UNL     1       3.695  -0.684  -0.038  0.00  0.00    +0.135 A 
ATOM     18  C   UNL     1       3.857  -2.034  -0.052  0.00  0.00    +0.050 A 
ATOM     19  C   UNL     1       5.246  -2.276  -0.066  0.00  0.00    +0.047 A 
ATOM     20  C   UNL     1       5.856  -1.075  -0.059  0.00  0.00    +0.124 A 
ATOM     21  O   UNL     1       4.916  -0.115  -0.048  0.00  0.00    -0.458 OA
BRANCH  17  25
ATOM     22  C   UNL     1      -0.017   1.379   0.010  0.00  0.00    +0.000 A 
ATOM     23  C   UNL     1       1.168   2.094   0.002  0.00  0.00    +0.001 A 
ATOM     24  C   UNL     1       2.377   1.429  -0.013  0.00  0.00    +0.011 A 
ATOM     25  C   UNL     1       2.404   0.034  -0.021  0.00  0.00    +0.017 A 
ATOM     26  C   UNL     1       1.204  -0.681  -0.013  0.00  0.00    +0.011 A 
ATOM     27  C   UNL     1       0.002  -0.004   0.002  0.00  0.00    +0.001 A 
ENDBRANCH  17  25
ENDBRANCH  16  20
ENDBRANCH   1  16
TORSDOF 5
