REMARK  Name = ZINC27695997
REMARK  12 active torsions:
REMARK  status: ('A' for Active; 'I' for Inactive)
REMARK    1  A    between atoms: C_1  and  C_2
REMARK    2  A    between atoms: C_2  and  C_4
REMARK    3  A    between atoms: C_2  and  C_16
REMARK    4  A    between atoms: C_9  and  O_14
REMARK    5  A    between atoms: O_14  and  C_15
REMARK    6  A    between atoms: N_24  and  C_25
REMARK    7  A    between atoms: C_25  and  C_26
REMARK    8  A    between atoms: C_26  and  C_28
REMARK    9  A    between atoms: C_26  and  O_42
REMARK   10  A    between atoms: C_28  and  N_29
REMARK   11  A    between atoms: N_29  and  C_30
REMARK   12  A    between atoms: N_29  and  C_36
REMARK                            x       y       z     vdW  Elec       q    Type
REMARK                         _______ _______ _______ _____ _____    ______ ____
ROOT
ATOM      1  C   UNL     1      -0.875  -5.209  -0.111  0.00  0.00    +0.118 A 
ATOM      2  N   UNL     1      -2.167  -5.069  -0.047  0.00  0.00    -0.232 NA
ATOM      3  C   UNL     1      -2.740  -5.607  -1.154  0.00  0.00    +0.089 A 
ATOM      4  C   UNL     1      -4.062  -5.729  -1.593  0.00  0.00    +0.030 A 
ATOM      5  C   UNL     1      -4.330  -6.343  -2.783  0.00  0.00    +0.002 A 
ATOM      6  C   UNL     1      -3.302  -6.850  -3.565  0.00  0.00    +0.002 A 
ATOM      7  C   UNL     1      -1.991  -6.741  -3.152  0.00  0.00    +0.028 A 
ATOM      8  C   UNL     1      -1.699  -6.120  -1.946  0.00  0.00    +0.069 A 
ATOM      9  N   UNL     1      -0.532  -5.853  -1.259  0.00  0.00    -0.325 N 
ENDROOT
BRANCH   1  11
ATOM     10  C   UNL     1      -0.216  -5.413   2.271  0.00  0.00    +0.020 C 
ATOM     11  C   UNL     1       0.098  -4.733   0.936  0.00  0.00    +0.082 C 
BRANCH  11  12
ATOM     12  C   UNL     1      -0.024  -3.239   1.093  0.00  0.00    -0.037 A 
ATOM     13  C   UNL     1      -1.243  -2.686   1.481  0.00  0.00    +0.005 A 
ATOM     14  C   UNL     1      -1.387  -1.341   1.631  0.00  0.00    +0.009 A 
ATOM     15  C   UNL     1      -0.291  -0.494   1.392  0.00  0.00    -0.014 A 
ATOM     16  C   UNL     1      -0.402   0.899   1.537  0.00  0.00    +0.054 A 
ATOM     17  C   UNL     1       0.684   1.691   1.296  0.00  0.00    +0.121 A 
ATOM     18  C   UNL     1       1.906   1.134   0.906  0.00  0.00    +0.046 A 
ATOM     19  C   UNL     1       2.046  -0.210   0.758  0.00  0.00    +0.012 A 
ATOM     20  C   UNL     1       0.949  -1.056   0.998  0.00  0.00    -0.017 A 
ATOM     21  C   UNL     1       1.059  -2.449   0.853  0.00  0.00    +0.012 A 
BRANCH  17  22
ATOM     22  O   UNL     1       0.575   3.038   1.435  0.00  0.00    -0.495 OA
ATOM     23  C   UNL     1       1.745   3.815   1.169  0.00  0.00    +0.277 C 
ENDBRANCH  17  22
ENDBRANCH  11  12
ENDBRANCH   1  11
BRANCH   9  24
ATOM     24  C   UNL     1       0.826  -6.198  -1.688  0.00  0.00    +0.153 C 
BRANCH  24  25
ATOM     25  C   UNL     1       1.190  -7.587  -1.158  0.00  0.00    +0.118 C 
BRANCH  25  26
ATOM     26  O   UNL     1       1.242  -7.554   0.270  0.00  0.00    -0.392 OA
ATOM     27  H   UNL     1       1.490  -8.466   0.833  0.00  0.00    +0.210 HD
ENDBRANCH  25  26
BRANCH  25  28
ATOM     28  C   UNL     1       2.557  -8.000  -1.708  0.00  0.00    -0.045 C 
BRANCH  28  29
ATOM     29  N   UNL     1       2.900  -9.339  -1.211  0.00  0.00    +0.385 N 
ATOM     30  H   UNL     1       2.391  -9.482  -0.246  0.00  0.00    -0.081 HD
BRANCH  29  31
ATOM     31  C   UNL     1       2.425 -10.380  -2.131  0.00  0.00    -0.068 C 
ATOM     32  C   UNL     1       3.164 -10.257  -3.466  0.00  0.00    -0.015 C 
ATOM     33  C   UNL     1       2.669 -11.342  -4.425  0.00  0.00    -0.002 C 
ATOM     34  C   UNL     1       1.166 -11.171  -4.656  0.00  0.00    -0.000 C 
ATOM     35  C   UNL     1       0.427 -11.294  -3.322  0.00  0.00    -0.002 C 
ATOM     36  C   UNL     1       0.922 -10.210  -2.363  0.00  0.00    -0.015 C 
ENDBRANCH  29  31
BRANCH  29  37
ATOM     37  C   UNL     1       4.346  -9.460  -0.980  0.00  0.00    -0.068 C 
ATOM     38  C   UNL     1       4.679 -10.898  -0.575  0.00  0.00    -0.015 C 
ATOM     39  C   UNL     1       6.185 -11.024  -0.335  0.00  0.00    -0.002 C 
ATOM     40  C   UNL     1       6.604 -10.069   0.784  0.00  0.00    -0.000 C 
ATOM     41  C   UNL     1       6.271  -8.631   0.380  0.00  0.00    -0.002 C 
ATOM     42  C   UNL     1       4.765  -8.505   0.139  0.00  0.00    -0.015 C 
ENDBRANCH  29  37
ENDBRANCH  28  29
ENDBRANCH  25  28
ENDBRANCH  24  25
ENDBRANCH   9  24
TORSDOF 10
