REMARK  Name = ZINC22452168
REMARK  5 active torsions:
REMARK  status: ('A' for Active; 'I' for Inactive)
REMARK    1  A    between atoms: C_1  and  C_2
REMARK    2  A    between atoms: C_3  and  C_20
REMARK    3  A    between atoms: C_12  and  C_19
REMARK    4  A    between atoms: C_15  and  C_18
REMARK    5  A    between atoms: C_20  and  C_21
REMARK                            x       y       z     vdW  Elec       q    Type
REMARK                         _______ _______ _______ _____ _____    ______ ____
ROOT
ATOM      1  C   UNL     1      -1.335   2.067  -0.171  0.00  0.00    +0.066 C 
ATOM      2  C   UNL     1      -0.016   1.344  -0.075  0.00  0.00    +0.050 A 
ATOM      3  C   UNL     1       0.009  -0.018   0.013  0.00  0.00    +0.042 A 
ATOM      4  C   UNL     1       1.252  -0.670   0.096  0.00  0.00    +0.256 A 
ATOM      5  O   UNL     1       1.312  -1.886   0.175  0.00  0.00    -0.267 OA
ATOM      6  N   UNL     1       2.378   0.075   0.085  0.00  0.00    -0.295 N 
ATOM      7  H   UNL     1       3.362  -0.414   0.149  0.00  0.00    +0.172 HD
ATOM      8  C   UNL     1       2.291   1.429  -0.004  0.00  0.00    +0.198 A 
ATOM      9  N   UNL     1       1.122   2.034  -0.081  0.00  0.00    -0.221 NA
ATOM     10  N   UNL     1       3.437   2.178  -0.013  0.00  0.00    -0.301 N 
ATOM     11  C   UNL     1       4.283   1.831  -1.163  0.00  0.00    +0.111 C 
ATOM     12  C   UNL     1       5.615   2.579  -1.062  0.00  0.00    +0.004 C 
ATOM     13  C   UNL     1       5.348   4.086  -1.037  0.00  0.00    +0.009 C 
ATOM     14  C   UNL     1       4.426   4.414   0.140  0.00  0.00    +0.004 C 
ATOM     15  C   UNL     1       3.128   3.614   0.004  0.00  0.00    +0.111 C 
ATOM     16  C   UNL     1       4.105   5.910   0.138  0.00  0.00    +0.009 C 
ATOM     17  C   UNL     1       6.487   2.234  -2.270  0.00  0.00    +0.009 C 
ENDROOT
BRANCH   3  18
ATOM     18  C   UNL     1      -1.273  -0.809   0.020  0.00  0.00    +0.077 C 
BRANCH  18  19
ATOM     19  C   UNL     1      -1.694  -1.070   1.444  0.00  0.00    -0.041 A 
ATOM     20  C   UNL     1      -1.179  -2.155   2.129  0.00  0.00    +0.004 A 
ATOM     21  C   UNL     1      -1.560  -2.392   3.436  0.00  0.00    +0.002 A 
ATOM     22  C   UNL     1      -2.466  -1.551   4.055  0.00  0.00    +0.020 A 
ATOM     23  C   UNL     1      -2.986  -0.469   3.369  0.00  0.00    +0.041 A 
ATOM     24  C   UNL     1      -2.599  -0.229   2.062  0.00  0.00    +0.024 A 
ATOM     25 CL   UNL     1      -4.123   0.588   4.146  0.00  0.00    -0.084 Cl
ENDBRANCH  18  19
ENDBRANCH   3  18
TORSDOF 2
