REMARK  Name = ZINC50205724
REMARK  7 active torsions:
REMARK  status: ('A' for Active; 'I' for Inactive)
REMARK    1  A    between atoms: C_11  and  C_14
REMARK    2  A    between atoms: C_14  and  C_15
REMARK    3  A    between atoms: C_15  and  C_16
REMARK    4  A    between atoms: C_16  and  C_17
REMARK    5  A    between atoms: C_17  and  C_19
REMARK    6  A    between atoms: C_19  and  C_21
REMARK    7  A    between atoms: C_19  and  C_23
REMARK                            x       y       z     vdW  Elec       q    Type
REMARK                         _______ _______ _______ _____ _____    ______ ____
ROOT
ATOM      1  C   UNL     1       9.814  -1.191   2.758  0.00  0.00    +0.158 C 
ATOM      2  O   UNL     1       9.048  -1.316   3.683  0.00  0.00    -0.296 OA
ENDROOT
BRANCH   1   3
ATOM      3  C   UNL     1       9.302  -1.260   1.342  0.00  0.00    +0.076 C 
BRANCH   3   4
ATOM      4  C   UNL     1       7.790  -1.494   1.357  0.00  0.00    +0.012 C 
BRANCH   4   5
ATOM      5  C   UNL     1       7.271  -1.564  -0.081  0.00  0.00    +0.035 C 
BRANCH   5  16
ATOM      6  C   UNL     1      -0.017   1.379   0.010  0.00  0.00    +0.000 A 
ATOM      7  C   UNL     1       1.171   2.089   0.002  0.00  0.00    +0.001 A 
ATOM      8  C   UNL     1       2.378   1.423  -0.013  0.00  0.00    +0.009 A 
ATOM      9  C   UNL     1       2.405   0.027  -0.021  0.00  0.00    -0.014 A 
ATOM     10  C   UNL     1       1.205  -0.678  -0.013  0.00  0.00    -0.035 A 
ATOM     11  C   UNL     1       0.002  -0.004   0.002  0.00  0.00    +0.004 A 
ATOM     12  C   UNL     1       1.542  -2.149  -0.024  0.00  0.00    +0.071 C 
ATOM     13  C   UNL     1       3.049  -2.232  -0.040  0.00  0.00    -0.035 A 
ATOM     14  C   UNL     1       3.540  -0.929  -0.037  0.00  0.00    -0.014 A 
ATOM     15  C   UNL     1       4.920  -0.717  -0.051  0.00  0.00    +0.012 A 
ATOM     16  C   UNL     1       5.781  -1.795  -0.066  0.00  0.00    -0.047 A 
ATOM     17  C   UNL     1       5.284  -3.085  -0.068  0.00  0.00    +0.004 A 
ATOM     18  C   UNL     1       3.917  -3.302  -0.054  0.00  0.00    +0.005 A 
ENDBRANCH   5  16
ENDBRANCH   4   5
ENDBRANCH   3   4
ENDBRANCH   1   3
BRANCH   1  19
ATOM     19  C   UNL     1      11.281  -0.966   3.018  0.00  0.00    +0.225 C 
BRANCH  19  20
ATOM     20  C   UNL     1      11.669  -1.634   4.312  0.00  0.00    +0.160 A 
ATOM     21  N   UNL     1      11.081  -1.278   5.441  0.00  0.00    -0.198 NA
ATOM     22  C   UNL     1      11.421  -1.865   6.585  0.00  0.00    +0.217 A 
ATOM     23  N   UNL     1      12.354  -2.811   6.593  0.00  0.00    -0.181 NA
ATOM     24  C   UNL     1      12.944  -3.166   5.457  0.00  0.00    +0.217 A 
ATOM     25  N   UNL     1      13.913  -4.148   5.459  0.00  0.00    -0.327 N 
ATOM     26  N   UNL     1      12.594  -2.578   4.315  0.00  0.00    -0.198 NA
ATOM     27  N   UNL     1      10.806  -1.492   7.763  0.00  0.00    -0.327 N 
ATOM     28  H   UNL     1      14.165  -4.579   6.291  0.00  0.00    +0.145 HD
ATOM     29  H   UNL     1      10.125  -0.801   7.757  0.00  0.00    +0.145 HD
ATOM     30  H   UNL     1      11.054  -1.921   8.597  0.00  0.00    +0.145 HD
ATOM     31  H   UNL     1      14.343  -4.407   4.629  0.00  0.00    +0.145 HD
ENDBRANCH  19  20
BRANCH  19  32
ATOM     32  C   UNL     1      11.546   0.479   3.113  0.00  0.00    +0.081 C 
ATOM     33  N   UNL     1      11.752   1.594   3.186  0.00  0.00    -0.195 NA
ENDBRANCH  19  32
ENDBRANCH   1  19
TORSDOF 7
