REMARK  Name = ZINC15184308
REMARK  8 active torsions:
REMARK  status: ('A' for Active; 'I' for Inactive)
REMARK    1  A    between atoms: C_7  and  C_11
REMARK    2  A    between atoms: C_14  and  S_23
REMARK    3  A    between atoms: N_15  and  C_16
REMARK    4  A    between atoms: C_16  and  C_17
REMARK    5  A    between atoms: S_23  and  C_24
REMARK    6  A    between atoms: C_24  and  C_25
REMARK    7  A    between atoms: N_27  and  C_28
REMARK    8  A    between atoms: C_31  and  C_35
REMARK                            x       y       z     vdW  Elec       q    Type
REMARK                         _______ _______ _______ _____ _____    ______ ____
ROOT
ATOM      1  C   UNL     1       0.666  -3.173  -0.204  0.00  0.00    +0.167 A 
ATOM      2  N   UNL     1      -0.634  -3.234  -0.024  0.00  0.00    -0.128 NA
ATOM      3  N   UNL     1      -1.053  -4.427  -0.251  0.00  0.00    -0.122 NA
ATOM      4  C   UNL     1      -0.050  -5.201  -0.592  0.00  0.00    +0.192 A 
ATOM      5  N   UNL     1       1.080  -4.430  -0.580  0.00  0.00    -0.300 N 
ENDROOT
BRANCH   1  12
ATOM      6  C   UNL     1       1.054   0.035   3.176  0.00  0.00    +0.001 A 
ATOM      7  C   UNL     1       2.013   0.998   2.892  0.00  0.00    +0.002 A 
ATOM      8  C   UNL     1       2.732   0.946   1.718  0.00  0.00    +0.026 A 
ATOM      9  C   UNL     1       2.498  -0.080   0.807  0.00  0.00    +0.047 A 
ATOM     10  C   UNL     1       1.526  -1.050   1.102  0.00  0.00    +0.010 A 
ATOM     11  C   UNL     1       0.808  -0.980   2.295  0.00  0.00    +0.011 A 
ATOM     12  C   UNL     1       1.520  -1.979  -0.042  0.00  0.00    +0.044 A 
ATOM     13  C   UNL     1       2.453  -1.524  -0.917  0.00  0.00    +0.095 A 
ATOM     14  N   UNL     1       3.039  -0.396  -0.420  0.00  0.00    -0.360 N 
ATOM     15  H   UNL     1       3.736   0.111  -0.866  0.00  0.00    +0.165 HD
ENDBRANCH   1  12
BRANCH   5  16
ATOM     16  C   UNL     1       2.446  -4.854  -0.897  0.00  0.00    +0.157 C 
BRANCH  16  17
ATOM     17  C   UNL     1       3.175  -5.234   0.393  0.00  0.00    +0.138 C 
ATOM     18  C   UNL     1       4.650  -5.567   0.082  0.00  0.00    +0.035 C 
ATOM     19  C   UNL     1       4.920  -6.775   1.020  0.00  0.00    +0.031 C 
ATOM     20  C   UNL     1       3.537  -7.474   1.005  0.00  0.00    +0.160 C 
ATOM     21  O   UNL     1       2.576  -6.404   0.963  0.00  0.00    -0.375 OA
ENDBRANCH  16  17
ENDBRANCH   5  16
BRANCH   4  22
ATOM     22  S   UNL     1      -0.142  -6.914  -0.996  0.00  0.00    -0.077 S 
BRANCH  22  23
ATOM     23  C   UNL     1      -1.904  -7.310  -0.828  0.00  0.00    +0.173 C 
BRANCH  23  24
ATOM     24  C   UNL     1      -2.124  -8.766  -1.150  0.00  0.00    +0.227 C 
ATOM     25  O   UNL     1      -1.185  -9.467  -1.462  0.00  0.00    -0.275 OA
ATOM     26  N   UNL     1      -3.365  -9.289  -1.091  0.00  0.00    -0.285 N 
ATOM     27  H   UNL     1      -4.126  -8.714  -0.915  0.00  0.00    +0.155 HD
BRANCH  26  28
ATOM     28  C   UNL     1      -3.555 -10.658  -1.284  0.00  0.00    +0.035 A 
ATOM     29  C   UNL     1      -2.575 -11.559  -0.877  0.00  0.00    +0.024 A 
ATOM     30  C   UNL     1      -2.758 -12.910  -1.066  0.00  0.00    +0.022 A 
ATOM     31  C   UNL     1      -3.931 -13.378  -1.668  0.00  0.00    +0.070 A 
ATOM     32  C   UNL     1      -4.914 -12.470  -2.075  0.00  0.00    +0.060 A 
ATOM     33  C   UNL     1      -4.725 -11.118  -1.878  0.00  0.00    +0.044 A 
ATOM     34 CL   UNL     1      -6.371 -13.044  -2.823  0.00  0.00    -0.082 Cl
BRANCH  31  35
ATOM     35  C   UNL     1      -4.124 -14.783  -1.866  0.00  0.00    +0.101 C 
ATOM     36  N   UNL     1      -4.278 -15.897  -2.024  0.00  0.00    -0.191 NA
ENDBRANCH  31  35
ENDBRANCH  26  28
ENDBRANCH  23  24
ENDBRANCH  22  23
ENDBRANCH   4  22
TORSDOF 8
