REMARK  Name = ZINC27489346
REMARK  4 active torsions:
REMARK  status: ('A' for Active; 'I' for Inactive)
REMARK    1  A    between atoms: C_1  and  O_2
REMARK    2  A    between atoms: O_2  and  C_3
REMARK    3  A    between atoms: C_7  and  N_9
REMARK    4  A    between atoms: C_10  and  C_22
REMARK                            x       y       z     vdW  Elec       q    Type
REMARK                         _______ _______ _______ _____ _____    ______ ____
ROOT
ATOM      1  N   UNL     1      -1.237   2.068   0.019  0.00  0.00    -0.244 N 
ATOM      2  C   UNL     1      -1.243   3.525   0.144  0.00  0.00    +0.204 C 
ATOM      3  N   UNL     1      -2.373   4.093  -0.605  0.00  0.00    -0.321 N 
ATOM      4  C   UNL     1      -3.617   3.478  -0.504  0.00  0.00    +0.041 A 
ATOM      5  C   UNL     1      -4.795   4.188  -0.657  0.00  0.00    +0.025 A 
ATOM      6  C   UNL     1      -6.007   3.530  -0.573  0.00  0.00    +0.017 A 
ATOM      7  C   UNL     1      -6.052   2.164  -0.337  0.00  0.00    +0.019 A 
ATOM      8  C   UNL     1      -4.886   1.443  -0.176  0.00  0.00    +0.030 A 
ATOM      9  C   UNL     1      -3.658   2.095  -0.255  0.00  0.00    +0.059 A 
ATOM     10  C   UNL     1      -2.387   1.371  -0.082  0.00  0.00    +0.254 C 
ATOM     11  O   UNL     1      -2.375   0.156  -0.030  0.00  0.00    -0.270 OA
ATOM     12 BR   UNL     1      -7.722   1.284  -0.233  0.00  0.00    -0.050 Br
ATOM     13  H   UNL     1      -2.226   4.987  -1.230  0.00  0.00    +0.148 HD
ENDROOT
BRANCH   1  18
ATOM     14  C   UNL     1       1.524  -0.137   1.047  0.00  0.00    +0.122 A 
ATOM     15  C   UNL     1       2.397   0.024  -0.021  0.00  0.00    +0.046 A 
ATOM     16  C   UNL     1       2.063   0.861  -1.068  0.00  0.00    +0.005 A 
ATOM     17  C   UNL     1       0.860   1.541  -1.056  0.00  0.00    +0.024 A 
ATOM     18  C   UNL     1      -0.017   1.384   0.010  0.00  0.00    +0.042 A 
ATOM     19  C   UNL     1       0.317   0.543   1.063  0.00  0.00    +0.069 A 
BRANCH  14  21
ATOM     20  C   UNL     1       3.114  -1.630   1.994  0.00  0.00    +0.277 C 
ATOM     21  O   UNL     1       1.854  -0.961   2.076  0.00  0.00    -0.495 OA
ENDBRANCH  14  21
ENDBRANCH   1  18
BRANCH   2  22
ATOM     22  C   UNL     1      -1.362   3.901   1.599  0.00  0.00    +0.028 A 
ATOM     23  C   UNL     1      -1.933   4.998   2.153  0.00  0.00    +0.015 A 
ATOM     24  C   UNL     1      -1.927   5.135   3.528  0.00  0.00    +0.008 A 
ATOM     25  C   UNL     1      -1.351   4.167   4.282  0.00  0.00    +0.045 A 
ATOM     26  S   UNL     1      -0.796   3.012   3.040  0.00  0.00    -0.098 S 
ENDBRANCH   2  22
TORSDOF 3
