REMARK  Name = ZINC27256903
REMARK  11 active torsions:
REMARK  status: ('A' for Active; 'I' for Inactive)
REMARK    1  A    between atoms: C_1  and  C_2
REMARK    2  A    between atoms: C_2  and  C_3
REMARK    3  A    between atoms: C_3  and  C_4
REMARK    4  A    between atoms: C_3  and  C_11
REMARK    5  A    between atoms: C_3  and  O_30
REMARK    6  A    between atoms: C_11  and  C_13
REMARK    7  A    between atoms: C_11  and  C_23
REMARK    8  A    between atoms: C_13  and  N_14
REMARK    9  A    between atoms: N_14  and  C_15
REMARK   10  A    between atoms: N_14  and  C_16
REMARK   11  A    between atoms: C_16  and  C_17
REMARK                            x       y       z     vdW  Elec       q    Type
REMARK                         _______ _______ _______ _____ _____    ______ ____
ROOT
ATOM      1  C   UNL     1       3.774   1.666   0.507  0.00  0.00    +0.069 C 
ENDROOT
BRANCH   1   2
ATOM      2  C   UNL     1       3.728   1.742   2.011  0.00  0.00    -0.040 A 
ATOM      3  C   UNL     1       3.690   0.581   2.761  0.00  0.00    +0.005 A 
ATOM      4  C   UNL     1       3.654   0.649   4.141  0.00  0.00    +0.020 A 
ATOM      5  C   UNL     1       3.643   1.881   4.771  0.00  0.00    +0.041 A 
ATOM      6  C   UNL     1       3.675   3.042   4.021  0.00  0.00    +0.020 A 
ATOM      7  C   UNL     1       3.717   2.972   2.641  0.00  0.00    +0.005 A 
ATOM      8 CL   UNL     1       3.590   1.968   6.505  0.00  0.00    -0.084 Cl
ENDBRANCH   1   2
BRANCH   1   9
ATOM      9  C   UNL     1       2.432   1.152  -0.019  0.00  0.00    +0.099 C 
BRANCH   9  10
ATOM     10  C   UNL     1       1.339   2.113   0.370  0.00  0.00    -0.015 A 
ATOM     11  C   UNL     1       0.055   1.649   0.585  0.00  0.00    +0.008 A 
ATOM     12  C   UNL     1      -0.950   2.531   0.937  0.00  0.00    +0.020 A 
ATOM     13  C   UNL     1      -0.667   3.877   1.084  0.00  0.00    +0.041 A 
ATOM     14  C   UNL     1       0.618   4.341   0.869  0.00  0.00    +0.020 A 
ATOM     15  C   UNL     1       1.620   3.459   0.512  0.00  0.00    +0.008 A 
ATOM     16 CL   UNL     1      -1.927   4.985   1.531  0.00  0.00    -0.084 Cl
ENDBRANCH   9  10
BRANCH   9  18
ATOM     17  C   UNL     1       1.114   0.645  -2.080  0.00  0.00    +0.007 C 
ATOM     18  C   UNL     1       2.492   1.038  -1.544  0.00  0.00    +0.037 C 
ENDBRANCH   9  18
BRANCH   9  19
ATOM     19  O   UNL     1       2.160  -0.133   0.544  0.00  0.00    -0.383 OA
ATOM     20  H   UNL     1       2.080  -0.249   1.635  0.00  0.00    +0.211 HD
ENDBRANCH   9  19
ENDBRANCH   1   9
BRANCH   1  21
ATOM     21  C   UNL     1       4.889   0.710   0.078  0.00  0.00    +0.095 C 
BRANCH  21  22
ATOM     22  N   UNL     1       6.190   1.264   0.479  0.00  0.00    -0.300 NA
ATOM     23  C   UNL     1       6.486   2.499  -0.258  0.00  0.00    +0.105 C 
BRANCH  22  24
ATOM     24  C   UNL     1       7.261   0.274   0.301  0.00  0.00    +0.119 C 
BRANCH  24  25
ATOM     25  C   UNL     1       8.525   0.781   0.945  0.00  0.00    -0.033 A 
ATOM     26  C   UNL     1       9.421   1.535   0.209  0.00  0.00    +0.005 A 
ATOM     27  C   UNL     1      10.579   2.004   0.801  0.00  0.00    +0.000 A 
ATOM     28  C   UNL     1      10.846   1.712   2.125  0.00  0.00    +0.000 A 
ATOM     29  C   UNL     1       9.953   0.954   2.859  0.00  0.00    +0.000 A 
ATOM     30  C   UNL     1       8.792   0.489   2.269  0.00  0.00    +0.005 A 
ENDBRANCH  24  25
ENDBRANCH  22  24
ENDBRANCH  21  22
ENDBRANCH   1  21
TORSDOF 9
