REMARK  Name = ZINC63994396
REMARK  13 active torsions:
REMARK  status: ('A' for Active; 'I' for Inactive)
REMARK    1  A    between atoms: CB_1  and  CA_2
REMARK    2  A    between atoms: CA_2  and  C_4
REMARK    3  A    between atoms: CA_2  and  N_6
REMARK    4  A    between atoms: C_4  and  O_5
REMARK    5  A    between atoms: N_6  and  C_7
REMARK    6  A    between atoms: N_13  and  C_26
REMARK    7  A    between atoms: C_14  and  C_22
REMARK    8  A    between atoms: C_16  and  N_18
REMARK    9  A    between atoms: C_19  and  C_21
REMARK   10  A    between atoms: C_22  and  O_24
REMARK   11  A    between atoms: O_24  and  C_25
REMARK   12  A    between atoms: C_26  and  C_27
REMARK   13  A    between atoms: C_27  and  C_28
REMARK                            x       y       z     vdW  Elec       q    Type
REMARK                         _______ _______ _______ _____ _____    ______ ____
ROOT
ATOM      1  C   UNK A   0       0.025  -0.639   2.401  0.00  0.00    +0.044 A 
ATOM      2  C   UNK A   0       0.688  -1.095   3.540  0.00  0.00    +0.033 A 
ATOM      3  C   UNK A   0      -0.031  -1.226   4.712  0.00  0.00    +0.015 A 
ATOM      4  C   UNK A   0      -1.382  -0.907   4.738  0.00  0.00    +0.105 A 
ATOM      5  N   UNK A   0      -1.976  -0.475   3.627  0.00  0.00    -0.348 N 
ATOM      6  C   UNK A   0      -1.323  -0.332   2.493  0.00  0.00    +0.107 A 
ATOM      7  N   UNK A   0      -1.928  -1.104   6.005  0.00  0.00    -0.301 N 
ATOM      8  C   UNK A   0      -0.901  -1.592   6.929  0.00  0.00    +0.208 C 
ATOM      9  C   UNK A   0       0.385  -1.684   6.091  0.00  0.00    +0.138 C 
ATOM     10  H   UNK A   0      -2.921  -0.255   3.655  0.00  0.00    +0.167 HD
ENDROOT
BRANCH   9  11
ATOM     11  N   UNK A   0       1.415  -0.796   6.636  0.00  0.00    -0.306 N 
ATOM     12  C   UNK A   0       2.714  -1.019   6.354  0.00  0.00    +0.210 C 
ATOM     13  O   UNK A   0       3.030  -1.954   5.649  0.00  0.00    -0.276 OA
ATOM     14  C   UNK A   0       3.774  -0.107   6.914  0.00  0.00    +0.109 C 
ATOM     15  H   UNK A   0       1.163  -0.049   7.199  0.00  0.00    +0.149 HD
ENDBRANCH   9  11
BRANCH   1  16
ATOM     16  N   ALA A   1       0.711  -0.489   1.189  0.00  0.00    -0.338 N 
ATOM     17  H   ALA A   1       1.654  -0.707   1.135  0.00  0.00    +0.146 HD
BRANCH  16  19
ATOM     18  CB  ALA A   1      -0.019   1.526   0.010  0.00  0.00    +0.030 C 
ATOM     19  CA  ALA A   1       0.002  -0.004   0.002  0.00  0.00    +0.093 C 
BRANCH  19  20
ATOM     20  C   ALA A   1       0.718  -0.497  -1.257  0.00  0.00    +0.177 C 
BRANCH  20  21
ATOM     21  O   ALA A   1       2.019   0.090  -1.326  0.00  0.00    -0.393 OA
ATOM     22  H   ALA A   1       2.531  -0.178  -2.101  0.00  0.00    +0.209 HD
ENDBRANCH  20  21
ENDBRANCH  19  20
ENDBRANCH  16  19
ENDBRANCH   1  16
BRANCH   8  23
ATOM     23  C   UNK A   0      -0.718  -0.620   8.066  0.00  0.00    +0.330 C 
ATOM     24  O   UNK A   0      -1.108   0.518   7.957  0.00  0.00    -0.249 OA
BRANCH  23  25
ATOM     25  O   UNK A   0      -0.122  -1.019   9.201  0.00  0.00    -0.467 OA
ATOM     26  C   UNK A   0       0.019  -0.046  10.237  0.00  0.00    +0.280 C 
ENDBRANCH  23  25
ENDBRANCH   8  23
BRANCH   7  27
ATOM     27  C   UNK A   0      -3.328  -0.859   6.361  0.00  0.00    +0.112 C 
BRANCH  27  28
ATOM     28  C   UNK A   0      -4.143  -2.133   6.132  0.00  0.00    +0.052 C 
BRANCH  28  29
ATOM     29  C   UNK A   0      -5.583  -1.881   6.498  0.00  0.00    -0.040 C 
ATOM     30  C   UNK A   0      -6.585  -1.528   5.662  0.00  0.00    -0.001 A 
ATOM     31  C   UNK A   0      -6.633  -1.281   4.215  0.00  0.00    +0.010 A 
ATOM     32  C   UNK A   0      -7.810  -0.933   3.647  0.00  0.00    +0.001 A 
ATOM     33  C   UNK A   0      -8.983  -0.802   4.404  0.00  0.00    +0.002 A 
ATOM     34  C   UNK A   0      -9.018  -1.012   5.737  0.00  0.00    +0.026 A 
ATOM     35  C   UNK A   0      -7.838  -1.383   6.438  0.00  0.00    +0.043 A 
ATOM     36  N   UNK A   0      -7.619  -1.637   7.705  0.00  0.00    -0.380 N 
ATOM     37  C   UNK A   0      -6.202  -1.978   7.875  0.00  0.00    +0.144 C 
ATOM     38  H   UNK A   0      -8.283  -1.608   8.411  0.00  0.00    +0.160 HD
ENDBRANCH  28  29
ENDBRANCH  27  28
ENDBRANCH   7  27
TORSDOF 10
