REMARK  Name = ZINC66049611
REMARK  6 active torsions:
REMARK  status: ('A' for Active; 'I' for Inactive)
REMARK    1  A    between atoms: C_4  and  C_26
REMARK    2  A    between atoms: C_5  and  C_7
REMARK    3  A    between atoms: C_7  and  N_8
REMARK    4  A    between atoms: C_9  and  C_11
REMARK    5  A    between atoms: C_14  and  C_16
REMARK    6  A    between atoms: C_26  and  O_27
REMARK                            x       y       z     vdW  Elec       q    Type
REMARK                         _______ _______ _______ _____ _____    ______ ____
ROOT
ATOM      1  C   UNL     1       1.814  -4.497   2.923  0.00  0.00    +0.074 A 
ATOM      2  C   UNL     1       1.922  -5.806   3.369  0.00  0.00    +0.021 A 
ATOM      3  C   UNL     1       2.172  -6.030   4.693  0.00  0.00    +0.017 A 
ATOM      4  C   UNL     1       2.307  -4.941   5.539  0.00  0.00    +0.020 A 
ATOM      5  S   UNL     1       2.081  -3.566   4.423  0.00  0.00    -0.084 S 
ENDROOT
BRANCH   4   6
ATOM      6  C   UNL     1       2.575  -4.922   6.992  0.00  0.00    -0.008 A 
ATOM      7  C   UNL     1       2.734  -6.121   7.690  0.00  0.00    +0.013 A 
ATOM      8  C   UNL     1       2.983  -6.100   9.046  0.00  0.00    +0.050 A 
ATOM      9  C   UNL     1       3.079  -4.890   9.722  0.00  0.00    +0.162 A 
ATOM     10  C   UNL     1       2.924  -3.692   9.031  0.00  0.00    +0.163 A 
ATOM     11  C   UNL     1       2.677  -3.706   7.669  0.00  0.00    +0.058 A 
ATOM     12  O   UNL     1       3.023  -2.498   9.677  0.00  0.00    -0.485 OA
ATOM     13  C   UNL     1       2.906  -2.526  11.104  0.00  0.00    +0.270 C 
ATOM     14  C   UNL     1       3.785  -3.667  11.635  0.00  0.00    +0.270 C 
ATOM     15  O   UNL     1       3.322  -4.894  11.061  0.00  0.00    -0.485 OA
ENDBRANCH   4   6
BRANCH   1  17
ATOM     16  N   UNL     1       1.490  -2.679   1.334  0.00  0.00    -0.307 N 
ATOM     17  C   UNL     1       1.553  -4.004   1.569  0.00  0.00    +0.251 C 
ATOM     18  O   UNL     1       1.394  -4.792   0.655  0.00  0.00    -0.270 OA
ATOM     19  H   UNL     1       1.617  -2.051   2.063  0.00  0.00    +0.149 HD
BRANCH  16  20
ATOM     20  C   UNL     1       1.229  -2.186  -0.020  0.00  0.00    +0.140 C 
BRANCH  20  25
ATOM     21  C   UNL     1      -0.017   1.378   0.010  0.00  0.00    +0.000 A 
ATOM     22  C   UNL     1       1.171   2.085   0.002  0.00  0.00    +0.000 A 
ATOM     23  C   UNL     1       2.377   1.411  -0.013  0.00  0.00    +0.006 A 
ATOM     24  C   UNL     1       2.396   0.028  -0.020  0.00  0.00    -0.018 A 
ATOM     25  C   UNL     1       1.209  -0.679  -0.012  0.00  0.00    -0.025 A 
ATOM     26  C   UNL     1       0.002  -0.004   0.002  0.00  0.00    +0.005 A 
BRANCH  24  27
ATOM     27  C   UNL     1       3.711  -0.707  -0.038  0.00  0.00    +0.191 C 
BRANCH  27  28
ATOM     28  O   UNL     1       4.785   0.236  -0.044  0.00  0.00    -0.390 OA
ATOM     29  H   UNL     1       5.663  -0.168  -0.055  0.00  0.00    +0.210 HD
ENDBRANCH  27  28
ENDBRANCH  24  27
ENDBRANCH  20  25
ENDBRANCH  16  20
ENDBRANCH   1  17
TORSDOF 6
