REMARK  Name = ZINC59297566
REMARK  7 active torsions:
REMARK  status: ('A' for Active; 'I' for Inactive)
REMARK    1  A    between atoms: C_7  and  C_19
REMARK    2  A    between atoms: N_9  and  C_10
REMARK    3  A    between atoms: C_10  and  C_11
REMARK    4  A    between atoms: C_20  and  C_21
REMARK    5  A    between atoms: C_20  and  C_23
REMARK    6  A    between atoms: N_25  and  C_26
REMARK    7  A    between atoms: C_26  and  C_27
REMARK                            x       y       z     vdW  Elec       q    Type
REMARK                         _______ _______ _______ _____ _____    ______ ____
ROOT
ATOM      1  C   UNL     1       0.398   1.259   1.200  0.00  0.00    +0.001 A 
ATOM      2  C   UNL     1       1.643   1.863   1.287  0.00  0.00    +0.002 A 
ATOM      3  C   UNL     1       2.791   1.146   1.026  0.00  0.00    +0.026 A 
ATOM      4  C   UNL     1       2.706  -0.196   0.671  0.00  0.00    +0.050 A 
ATOM      5  C   UNL     1       1.444  -0.805   0.583  0.00  0.00    +0.007 A 
ATOM      6  C   UNL     1       0.293  -0.070   0.849  0.00  0.00    +0.010 A 
ATOM      7  C   UNL     1       1.699  -2.206   0.191  0.00  0.00    +0.002 A 
ATOM      8  C   UNL     1       3.070  -2.330   0.076  0.00  0.00    +0.095 A 
ATOM      9  N   UNL     1       3.655  -1.149   0.358  0.00  0.00    -0.342 N 
ENDROOT
BRANCH   7  10
ATOM     10  C   UNL     1       0.734  -3.216  -0.022  0.00  0.00    +0.034 C 
ATOM     11  C   UNL     1       1.075  -4.362  -0.719  0.00  0.00    +0.114 C 
BRANCH  11  12
ATOM     12  C   UNL     1       0.124  -5.477  -0.807  0.00  0.00    +0.255 C 
ATOM     13  O   UNL     1      -0.964  -5.394  -0.268  0.00  0.00    -0.269 OA
ATOM     14  N   UNL     1       0.456  -6.594  -1.485  0.00  0.00    -0.307 N 
ATOM     15  H   UNL     1       1.323  -6.660  -1.915  0.00  0.00    +0.149 HD
BRANCH  14  16
ATOM     16  C   UNL     1      -0.493  -7.707  -1.574  0.00  0.00    +0.140 C 
BRANCH  16  17
ATOM     17  C   UNL     1       0.117  -8.824  -2.380  0.00  0.00    -0.027 A 
ATOM     18  C   UNL     1      -0.058  -8.861  -3.751  0.00  0.00    +0.009 A 
ATOM     19  C   UNL     1       0.500  -9.883  -4.495  0.00  0.00    +0.050 A 
ATOM     20  C   UNL     1       1.237 -10.875  -3.868  0.00  0.00    +0.166 A 
ATOM     21  C   UNL     1       1.414 -10.838  -2.487  0.00  0.00    +0.167 A 
ATOM     22  C   UNL     1       0.856  -9.807  -1.749  0.00  0.00    +0.054 A 
ATOM     23  O   UNL     1       2.168 -11.913  -2.115  0.00  0.00    -0.453 OA
ATOM     24  C   UNL     1       2.107 -12.828  -3.225  0.00  0.00    +0.466 C 
ATOM     25  O   UNL     1       1.880 -11.973  -4.361  0.00  0.00    -0.453 OA
ENDBRANCH  16  17
ENDBRANCH  14  16
ENDBRANCH  11  12
BRANCH  11  26
ATOM     26  C   UNL     1       2.355  -4.461  -1.353  0.00  0.00    +0.104 C 
ATOM     27  N   UNL     1       3.371  -4.539  -1.856  0.00  0.00    -0.191 NA
ENDBRANCH  11  26
ENDBRANCH   7  10
BRANCH   9  28
ATOM     28  C   UNL     1       5.100  -0.909   0.336  0.00  0.00    +0.158 C 
BRANCH  28  29
ATOM     29  C   UNL     1       5.658  -1.075   1.726  0.00  0.00    -0.009 A 
ATOM     30  C   UNL     1       5.815   0.028   2.544  0.00  0.00    +0.008 A 
ATOM     31  C   UNL     1       6.327  -0.123   3.819  0.00  0.00    +0.020 A 
ATOM     32  C   UNL     1       6.682  -1.380   4.277  0.00  0.00    +0.042 A 
ATOM     33  C   UNL     1       6.525  -2.484   3.460  0.00  0.00    +0.040 A 
ATOM     34  C   UNL     1       6.008  -2.333   2.185  0.00  0.00    +0.047 A 
ATOM     35 CL   UNL     1       5.804  -3.719   1.161  0.00  0.00    -0.083 Cl
ATOM     36 CL   UNL     1       7.326  -1.570   5.879  0.00  0.00    -0.083 Cl
ENDBRANCH  28  29
ENDBRANCH   9  28
TORSDOF 7
