REMARK  Name = ZINC06240008
REMARK  6 active torsions:
REMARK  status: ('A' for Active; 'I' for Inactive)
REMARK    1  A    between atoms: C_4  and  C_7
REMARK    2  A    between atoms: C_7  and  O_8
REMARK    3  A    between atoms: O_8  and  C_9
REMARK    4  A    between atoms: C_13  and  C_15
REMARK    5  A    between atoms: C_28  and  N_32
REMARK    6  A    between atoms: C_29  and  C_30
REMARK                            x       y       z     vdW  Elec       q    Type
REMARK                         _______ _______ _______ _____ _____    ______ ____
ROOT
ATOM      1  C   UNL     1      -0.013   1.086   0.008  0.00  0.00    +0.099 C 
ATOM      2  C   UNL     1       1.401   1.604  -0.003  0.00  0.00    +0.015 A 
ATOM      3  C   UNL     1       2.351   1.000  -0.846  0.00  0.00    -0.010 A 
ATOM      4  C   UNL     1       2.002  -0.078  -1.679  0.00  0.00    +0.009 A 
ATOM      5  C   UNL     1       2.945  -0.639  -2.483  0.00  0.00    +0.001 A 
ATOM      6  C   UNL     1       4.254  -0.163  -2.495  0.00  0.00    +0.001 A 
ATOM      7  C   UNL     1       4.629   0.878  -1.702  0.00  0.00    +0.008 A 
ATOM      8  C   UNL     1       3.683   1.484  -0.858  0.00  0.00    -0.017 A 
ATOM      9  C   UNL     1       4.031   2.561  -0.025  0.00  0.00    +0.012 A 
ATOM     10  C   UNL     1       3.090   3.123   0.777  0.00  0.00    +0.047 A 
ATOM     11  C   UNL     1       1.770   2.649   0.793  0.00  0.00    +0.135 A 
ATOM     12  O   UNL     1       0.870   3.250   1.612  0.00  0.00    -0.441 OA
ATOM     13  C   UNL     1      -0.258   2.609   1.959  0.00  0.00    +0.199 C 
ATOM     14  C   UNL     1      -0.734   1.567   1.236  0.00  0.00    +0.098 C 
ENDROOT
BRANCH   1  19
ATOM     15  C   UNL     1      -1.914   1.136  -3.257  0.00  0.00    +0.121 A 
ATOM     16  C   UNL     1      -2.060   2.500  -3.469  0.00  0.00    +0.045 A 
ATOM     17  C   UNL     1      -1.544   3.398  -2.555  0.00  0.00    +0.004 A 
ATOM     18  C   UNL     1      -0.882   2.940  -1.431  0.00  0.00    +0.005 A 
ATOM     19  C   UNL     1      -0.735   1.582  -1.218  0.00  0.00    -0.031 A 
ATOM     20  C   UNL     1      -1.245   0.679  -2.131  0.00  0.00    +0.050 A 
BRANCH  15  21
ATOM     21  O   UNL     1      -2.420   0.250  -4.155  0.00  0.00    -0.487 OA
BRANCH  21  22
ATOM     22  C   UNL     1      -3.091   0.792  -5.294  0.00  0.00    +0.264 C 
BRANCH  22  26
ATOM     23  C   UNL     1      -4.481  -2.393  -7.779  0.00  0.00    +0.000 A 
ATOM     24  C   UNL     1      -5.291  -1.895  -6.775  0.00  0.00    +0.000 A 
ATOM     25  C   UNL     1      -4.841  -0.864  -5.971  0.00  0.00    +0.007 A 
ATOM     26  C   UNL     1      -3.581  -0.331  -6.170  0.00  0.00    -0.010 A 
ATOM     27  C   UNL     1      -2.773  -0.826  -7.177  0.00  0.00    +0.007 A 
ATOM     28  C   UNL     1      -3.221  -1.860  -7.978  0.00  0.00    +0.000 A 
ENDBRANCH  22  26
ENDBRANCH  21  22
ENDBRANCH  15  21
ENDBRANCH   1  19
BRANCH  13  29
ATOM     29  N   UNL     1      -0.945   3.020   3.074  0.00  0.00    -0.328 N 
ATOM     30  H   UNL     1      -0.615   3.764   3.601  0.00  0.00    +0.145 HD
ATOM     31  H   UNL     1      -1.761   2.565   3.336  0.00  0.00    +0.145 HD
ENDBRANCH  13  29
BRANCH  14  32
ATOM     32  C   UNL     1      -1.941   0.915   1.646  0.00  0.00    +0.101 C 
ATOM     33  N   UNL     1      -2.899   0.399   1.972  0.00  0.00    -0.191 NA
ENDBRANCH  14  32
TORSDOF 6
