REMARK  Name = ZINC11790198
REMARK  8 active torsions:
REMARK  status: ('A' for Active; 'I' for Inactive)
REMARK    1  A    between atoms: C_4  and  C_7
REMARK    2  A    between atoms: C_7  and  C_8
REMARK    3  A    between atoms: C_7  and  C_31
REMARK    4  A    between atoms: C_8  and  N_72
REMARK    5  A    between atoms: C_9  and  N_72
REMARK    6  A    between atoms: N_12  and  C_15
REMARK    7  A    between atoms: C_18  and  C_21
REMARK    8  A    between atoms: C_27  and  O_30
REMARK                            x       y       z     vdW  Elec       q    Type
REMARK                         _______ _______ _______ _____ _____    ______ ____
ROOT
ATOM      1  C   UNL     1       1.569   6.832  -0.200  0.00  0.00    -0.069 C 
ATOM      2  C   UNL     1       2.676   6.655   0.843  0.00  0.00    +0.003 C 
ATOM      3  C   UNL     1       2.848   5.166   1.151  0.00  0.00    +0.103 C 
ATOM      4  N   UNL     1       1.582   4.621   1.658  0.00  0.00    -0.330 N 
ATOM      5  C   UNL     1       0.515   4.736   0.656  0.00  0.00    +0.103 C 
ATOM      6  C   UNL     1       0.274   6.213   0.333  0.00  0.00    +0.003 C 
ENDROOT
BRANCH   4   7
ATOM      7  C   UNL     1       1.737   3.303   2.072  0.00  0.00    +0.030 A 
ATOM      8  C   UNL     1       0.649   2.604   2.587  0.00  0.00    +0.024 A 
ATOM      9  C   UNL     1       0.800   1.299   2.997  0.00  0.00    +0.015 A 
ATOM     10  C   UNL     1       2.047   0.675   2.895  0.00  0.00    +0.037 A 
ATOM     11  C   UNL     1       3.138   1.380   2.377  0.00  0.00    +0.015 A 
ATOM     12  C   UNL     1       2.981   2.685   1.969  0.00  0.00    +0.024 A 
BRANCH  10  13
ATOM     13  C   UNL     1       2.212  -0.724   3.334  0.00  0.00    +0.247 C 
ATOM     14  O   UNL     1       1.357  -1.548   3.072  0.00  0.00    -0.270 OA
ATOM     15  N   UNL     1       3.309  -1.088   4.026  0.00  0.00    -0.295 N 
ATOM     16  C   UNL     1       4.396  -0.128   4.267  0.00  0.00    +0.108 C 
ATOM     17  C   UNL     1       4.678  -0.078   5.776  0.00  0.00    +0.021 C 
ATOM     18  C   UNL     1       4.968  -1.494   6.281  0.00  0.00    +0.034 C 
ATOM     19  C   UNL     1       3.742  -2.380   6.050  0.00  0.00    +0.132 C 
ATOM     20  C   UNL     1       3.446  -2.454   4.549  0.00  0.00    +0.139 C 
BRANCH  19  21
ATOM     21  O   UNL     1       4.001  -3.693   6.551  0.00  0.00    -0.390 OA
ATOM     22  H   UNL     1       3.266  -4.311   6.435  0.00  0.00    +0.210 HD
ENDBRANCH  19  21
ENDBRANCH  10  13
ENDBRANCH   4   7
BRANCH   1  23
ATOM     23  N   UNL     1       1.362   8.271  -0.450  0.00  0.00    +0.382 N 
ATOM     24  H   UNL     1       0.718   8.648   0.256  0.00  0.00    -0.085 HD
ATOM     25  H   UNL     1       2.263   8.758  -0.386  0.00  0.00    -0.085 HD
BRANCH  23  26
ATOM     26  C   UNL     1       0.789   8.480  -1.793  0.00  0.00    -0.069 C 
BRANCH  26  27
ATOM     27  C   UNL     1       0.586   9.979  -2.023  0.00  0.00    +0.032 C 
BRANCH  27  31
ATOM     28  C   UNL     1       4.381  11.938  -2.084  0.00  0.00    +0.000 A 
ATOM     29  C   UNL     1       4.153  10.847  -2.902  0.00  0.00    +0.000 A 
ATOM     30  C   UNL     1       2.925  10.213  -2.883  0.00  0.00    +0.004 A 
ATOM     31  C   UNL     1       1.925  10.670  -2.045  0.00  0.00    -0.042 A 
ATOM     32  C   UNL     1       2.151  11.764  -1.230  0.00  0.00    +0.004 A 
ATOM     33  C   UNL     1       3.381  12.394  -1.246  0.00  0.00    +0.000 A 
ENDBRANCH  27  31
BRANCH  27  34
ATOM     34  C   UNL     1      -0.112  10.194  -3.342  0.00  0.00    -0.042 A 
ATOM     35  C   UNL     1       0.391   9.617  -4.492  0.00  0.00    +0.004 A 
ATOM     36  C   UNL     1      -0.252   9.810  -5.701  0.00  0.00    +0.000 A 
ATOM     37  C   UNL     1      -1.391  10.590  -5.760  0.00  0.00    +0.000 A 
ATOM     38  C   UNL     1      -1.891  11.172  -4.611  0.00  0.00    +0.000 A 
ATOM     39  C   UNL     1      -1.252  10.974  -3.401  0.00  0.00    +0.004 A 
ENDBRANCH  27  34
ENDBRANCH  26  27
ENDBRANCH  23  26
ENDBRANCH   1  23
TORSDOF 8
