REMARK  Name = ZINC60272458
REMARK  3 active torsions:
REMARK  status: ('A' for Active; 'I' for Inactive)
REMARK    1  A    between atoms: C_1  and  C_2
REMARK    2  A    between atoms: C_5  and  C_7
REMARK    3  A    between atoms: C_13  and  C_15
REMARK                            x       y       z     vdW  Elec       q    Type
REMARK                         _______ _______ _______ _____ _____    ______ ____
ROOT
ATOM      1  C   UNL     1       1.040  -4.034  -0.026  0.00  0.00    +0.087 A 
ATOM      2  C   UNL     1       2.390  -4.260  -0.028  0.00  0.00    +0.077 A 
ATOM      3  S   UNL     1       2.430  -6.047  -0.040  0.00  0.00    -0.060 S 
ATOM      4  C   UNL     1       0.662  -6.312  -0.041  0.00  0.00    +0.165 A 
ATOM      5  N   UNL     1       0.208  -5.073  -0.027  0.00  0.00    -0.224 NA
ATOM      6  N   UNL     1      -0.046  -7.507  -0.050  0.00  0.00    -0.262 N 
ATOM      7  C   UNL     1       0.614  -8.682  -0.058  0.00  0.00    +0.260 C 
ATOM      8  O   UNL     1       1.826  -8.696  -0.059  0.00  0.00    -0.271 OA
ATOM      9  H   UNL     1      -1.016  -7.496  -0.050  0.00  0.00    +0.157 HD
ENDROOT
BRANCH   7  10
ATOM     10  C   UNL     1      -0.155  -9.978  -0.068  0.00  0.00    +0.269 C 
ATOM     11  C   UNL     1      -0.941 -10.119   1.247  0.00  0.00    +0.128 C 
ATOM     12  S   UNL     1      -1.981 -11.605   1.087  0.00  0.00    -0.117 S 
ATOM     13  C   UNL     1      -0.878 -12.770   0.349  0.00  0.00    +0.050 A 
ATOM     14  C   UNL     1      -1.230 -14.113   0.327  0.00  0.00    +0.018 A 
ATOM     15  C   UNL     1      -0.388 -15.043  -0.252  0.00  0.00    +0.001 A 
ATOM     16  C   UNL     1       0.807 -14.631  -0.813  0.00  0.00    +0.004 A 
ATOM     17  C   UNL     1       1.163 -13.298  -0.790  0.00  0.00    +0.047 A 
ATOM     18  C   UNL     1       0.327 -12.351  -0.203  0.00  0.00    +0.135 A 
ATOM     19  O   UNL     1       0.749 -11.066  -0.189  0.00  0.00    -0.478 OA
ENDBRANCH   7  10
BRANCH   1  24
ATOM     20  C   UNL     1      -0.018   1.503   0.010  0.00  0.00    +0.051 C 
ATOM     21  C   UNL     1       0.002  -0.004   0.002  0.00  0.00    -0.013 A 
ATOM     22  C   UNL     1      -1.041  -0.871   0.002  0.00  0.00    +0.011 A 
ATOM     23  C   UNL     1      -0.789  -2.227  -0.007  0.00  0.00    +0.018 A 
ATOM     24  C   UNL     1       0.512  -2.653  -0.015  0.00  0.00    +0.038 A 
ATOM     25  S   UNL     1       1.405  -1.107  -0.018  0.00  0.00    -0.092 S 
ENDBRANCH   1  24
TORSDOF 2
