REMARK  Name = ZINC41196711
REMARK  8 active torsions:
REMARK  status: ('A' for Active; 'I' for Inactive)
REMARK    1  A    between atoms: C_1  and  C_2
REMARK    2  A    between atoms: C_3  and  C_21
REMARK    3  A    between atoms: C_5  and  C_7
REMARK    4  A    between atoms: C_7  and  C_9
REMARK    5  A    between atoms: C_7  and  N_17
REMARK    6  A    between atoms: N_17  and  C_18
REMARK    7  A    between atoms: C_18  and  C_19
REMARK    8  A    between atoms: C_18  and  C_20
REMARK                            x       y       z     vdW  Elec       q    Type
REMARK                         _______ _______ _______ _____ _____    ______ ____
ROOT
ATOM      1  C   UNL     1       0.055  -2.955   2.284  0.00  0.00    +0.016 C 
ENDROOT
BRANCH   1   2
ATOM      2  C   UNL     1      -1.314  -3.003   2.913  0.00  0.00    -0.052 A 
ATOM      3  C   UNL     1      -1.716  -1.996   3.769  0.00  0.00    +0.022 A 
ATOM      4  C   UNL     1      -2.973  -2.039   4.347  0.00  0.00    +0.043 A 
ATOM      5  C   UNL     1      -3.826  -3.092   4.067  0.00  0.00    +0.040 A 
ATOM      6  C   UNL     1      -3.423  -4.099   3.210  0.00  0.00    +0.043 A 
ATOM      7  C   UNL     1      -2.168  -4.052   2.628  0.00  0.00    +0.022 A 
ATOM      8 CL   UNL     1      -4.493  -5.421   2.859  0.00  0.00    -0.083 Cl
ATOM      9 CL   UNL     1      -3.478  -0.775   5.423  0.00  0.00    -0.083 Cl
ENDBRANCH   1   2
BRANCH   1  14
ATOM     10  C   UNL     1      -0.018   1.503   0.010  0.00  0.00    +0.066 C 
ATOM     11  C   UNL     1       0.002  -0.004   0.002  0.00  0.00    +0.048 A 
ATOM     12  C   UNL     1       0.006  -0.708  -1.159  0.00  0.00    +0.009 A 
ATOM     13  S   UNL     1       0.032  -2.379  -0.531  0.00  0.00    -0.078 S 
ATOM     14  C   UNL     1       0.036  -2.009   1.111  0.00  0.00    +0.069 A 
ATOM     15  N   UNL     1       0.023  -0.699   1.122  0.00  0.00    -0.250 NA
ATOM     16  C   UNL     1      -0.008  -0.215  -2.583  0.00  0.00    +0.053 C 
ENDBRANCH   1  14
BRANCH   1  17
ATOM     17  N   UNL     1       1.033  -2.486   3.275  0.00  0.00    +0.389 N 
ATOM     18  H   UNL     1       1.933  -2.375   2.832  0.00  0.00    -0.084 HD
ATOM     19  H   UNL     1       0.732  -1.600   3.651  0.00  0.00    -0.084 HD
BRANCH  17  20
ATOM     20  C   UNL     1       1.139  -3.470   4.361  0.00  0.00    -0.077 C 
ATOM     21  C   UNL     1       1.714  -4.777   3.811  0.00  0.00    -0.014 C 
ATOM     22  C   UNL     1       2.062  -2.926   5.453  0.00  0.00    -0.014 C 
ENDBRANCH  17  20
ENDBRANCH   1  17
TORSDOF 4
