REMARK  Name = ZINC20281739
REMARK  8 active torsions:
REMARK  status: ('A' for Active; 'I' for Inactive)
REMARK    1  A    between atoms: C_1  and  C_2
REMARK    2  A    between atoms: C_3  and  C_23
REMARK    3  A    between atoms: C_4  and  C_12
REMARK    4  A    between atoms: C_17  and  O_18
REMARK    5  A    between atoms: O_18  and  C_19
REMARK    6  A    between atoms: C_23  and  O_25
REMARK    7  A    between atoms: O_25  and  C_26
REMARK    8  A    between atoms: C_26  and  C_27
REMARK                            x       y       z     vdW  Elec       q    Type
REMARK                         _______ _______ _______ _____ _____    ______ ____
ROOT
ATOM      1  C   UNL     1      -0.013   1.086   0.008  0.00  0.00    +0.061 C 
ATOM      2  C   UNL     1      -0.718   1.572   1.248  0.00  0.00    +0.020 C 
ATOM      3  C   UNL     1      -0.839   2.893   1.449  0.00  0.00    +0.082 C 
ATOM      4  C   UNL     1      -1.540   3.481   2.645  0.00  0.00    +0.182 C 
ATOM      5  N   UNL     1      -1.769   2.434   3.636  0.00  0.00    -0.221 N 
ATOM      6  C   UNL     1      -1.615   1.111   3.381  0.00  0.00    +0.218 A 
ATOM      7  N   UNL     1      -1.907   0.454   4.469  0.00  0.00    -0.201 NA
ATOM      8  C   UNL     1      -2.244   1.315   5.435  0.00  0.00    +0.247 A 
ATOM      9  N   UNL     1      -2.171   2.537   4.967  0.00  0.00    -0.156 NA
ATOM     10  N   UNL     1      -1.210   0.648   2.136  0.00  0.00    -0.287 N 
ATOM     11  H   UNL     1      -1.271  -0.412   1.850  0.00  0.00    +0.155 HD
ENDROOT
BRANCH   4  12
ATOM     12  C   UNL     1      -2.862   4.068   2.219  0.00  0.00    +0.025 A 
ATOM     13  C   UNL     1      -3.819   3.262   1.632  0.00  0.00    +0.025 A 
ATOM     14  C   UNL     1      -5.034   3.799   1.246  0.00  0.00    +0.018 A 
ATOM     15  C   UNL     1      -5.289   5.146   1.437  0.00  0.00    +0.019 A 
ATOM     16  C   UNL     1      -4.333   5.955   2.018  0.00  0.00    +0.047 A 
ATOM     17  C   UNL     1      -3.116   5.418   2.411  0.00  0.00    +0.132 A 
ATOM     18 BR   UNL     1      -6.344   2.693   0.449  0.00  0.00    -0.050 Br
BRANCH  17  19
ATOM     19  O   UNL     1      -2.174   6.213   2.984  0.00  0.00    -0.434 OA
BRANCH  19  20
ATOM     20  C   UNL     1      -2.504   7.593   3.151  0.00  0.00    +0.541 C 
ATOM     21  F   UNL     1      -2.769   8.164   1.901  0.00  0.00    -0.166 F 
ATOM     22  F   UNL     1      -3.637   7.707   3.964  0.00  0.00    -0.166 F 
ENDBRANCH  19  20
ENDBRANCH  17  19
ENDBRANCH   4  12
BRANCH   3  23
ATOM     23  C   UNL     1      -0.287   3.773   0.492  0.00  0.00    +0.339 C 
ATOM     24  O   UNL     1       0.282   3.328  -0.487  0.00  0.00    -0.245 OA
BRANCH  23  25
ATOM     25  O   UNL     1      -0.391   5.108   0.664  0.00  0.00    -0.457 OA
BRANCH  25  26
ATOM     26  C   UNL     1       0.190   5.939  -0.343  0.00  0.00    +0.268 C 
BRANCH  26  27
ATOM     27  C   UNL     1      -0.023   7.387   0.015  0.00  0.00    -0.010 A 
ATOM     28  C   UNL     1      -1.153   8.049  -0.425  0.00  0.00    +0.007 A 
ATOM     29  C   UNL     1      -1.351   9.376  -0.092  0.00  0.00    +0.000 A 
ATOM     30  C   UNL     1      -0.413  10.044   0.673  0.00  0.00    +0.000 A 
ATOM     31  C   UNL     1       0.720   9.383   1.109  0.00  0.00    +0.000 A 
ATOM     32  C   UNL     1       0.915   8.055   0.780  0.00  0.00    +0.007 A 
ENDBRANCH  26  27
ENDBRANCH  25  26
ENDBRANCH  23  25
ENDBRANCH   3  23
TORSDOF 7
