REMARK  Name = ZINC14608976
REMARK  6 active torsions:
REMARK  status: ('A' for Active; 'I' for Inactive)
REMARK    1  A    between atoms: C_1  and  C_2
REMARK    2  A    between atoms: C_5  and  N_9
REMARK    3  A    between atoms: C_6  and  C_8
REMARK    4  A    between atoms: N_9  and  C_10
REMARK    5  A    between atoms: C_10  and  C_11
REMARK    6  A    between atoms: C_19  and  C_21
REMARK                            x       y       z     vdW  Elec       q    Type
REMARK                         _______ _______ _______ _____ _____    ______ ____
ROOT
ATOM      1  C   UNL     1       0.082  -6.376  -1.026  0.00  0.00    +0.067 A 
ATOM      2  C   UNL     1       0.095  -7.272  -2.094  0.00  0.00    +0.097 A 
ATOM      3  C   UNL     1       0.114  -8.616  -1.837  0.00  0.00    +0.276 A 
ATOM      4  O   UNL     1       0.127  -9.510  -2.852  0.00  0.00    -0.266 OA
ATOM      5  N   UNL     1       0.121  -9.039  -0.541  0.00  0.00    -0.159 N 
ATOM      6  C   UNL     1       0.108  -8.129   0.479  0.00  0.00    +0.257 A 
ATOM      7  N   UNL     1       0.094  -6.817   0.213  0.00  0.00    -0.214 NA
ATOM      8  N   UNL     1       0.119  -8.810   1.618  0.00  0.00    -0.189 NA
ATOM      9  C   UNL     1       0.137 -10.119   1.359  0.00  0.00    +0.184 A 
ATOM     10  N   UNL     1       0.140 -10.307   0.054  0.00  0.00    -0.140 NA
ENDROOT
BRANCH   9  11
ATOM     11  C   UNL     1       0.154 -11.195   2.381  0.00  0.00    +0.021 A 
ATOM     12  C   UNL     1       0.179 -12.532   1.988  0.00  0.00    +0.011 A 
ATOM     13  C   UNL     1       0.195 -13.529   2.942  0.00  0.00    +0.001 A 
ATOM     14  C   UNL     1       0.185 -13.203   4.287  0.00  0.00    +0.000 A 
ATOM     15  C   UNL     1       0.160 -11.878   4.682  0.00  0.00    +0.001 A 
ATOM     16  C   UNL     1       0.150 -10.873   3.736  0.00  0.00    +0.011 A 
ENDBRANCH   9  11
BRANCH   1  17
ATOM     17  C   UNL     1       0.061  -4.893  -1.294  0.00  0.00    +0.157 C 
BRANCH  17  18
ATOM     18  N   UNL     1       0.058  -4.167  -0.021  0.00  0.00    -0.338 N 
ATOM     19  H   UNL     1       0.069  -4.657   0.816  0.00  0.00    +0.146 HD
BRANCH  18  24
ATOM     20  C   UNL     1      -0.018   1.503   0.010  0.00  0.00    +0.044 C 
ATOM     21  C   UNL     1       0.002  -0.004   0.002  0.00  0.00    -0.050 A 
ATOM     22  C   UNL     1       0.006  -0.687  -1.200  0.00  0.00    +0.005 A 
ATOM     23  C   UNL     1       0.024  -2.068  -1.212  0.00  0.00    +0.023 A 
ATOM     24  C   UNL     1       0.040  -2.771  -0.013  0.00  0.00    +0.030 A 
ATOM     25  C   UNL     1       0.036  -2.081   1.192  0.00  0.00    -0.029 A 
ATOM     26  C   UNL     1       0.023  -0.700   1.196  0.00  0.00    +0.008 A 
ATOM     27  C   UNL     1       0.052  -2.839   2.495  0.00  0.00    +0.045 C 
ENDBRANCH  18  24
ENDBRANCH  17  18
ENDBRANCH   1  17
TORSDOF 4
