REMARK  Name = ZINC25389169
REMARK  7 active torsions:
REMARK  status: ('A' for Active; 'I' for Inactive)
REMARK    1  A    between atoms: C_6  and  S_7
REMARK    2  A    between atoms: S_7  and  N_10
REMARK    3  A    between atoms: N_10  and  C_11
REMARK    4  A    between atoms: C_11  and  C_12
REMARK    5  A    between atoms: C_12  and  C_13
REMARK    6  A    between atoms: N_15  and  C_16
REMARK    7  A    between atoms: C_19  and  N_23
REMARK                            x       y       z     vdW  Elec       q    Type
REMARK                         _______ _______ _______ _____ _____    ______ ____
ROOT
ATOM      1  C   UNL     1       1.451  -0.464  -0.381  0.00  0.00    +0.115 C 
ENDROOT
BRANCH   1   2
ATOM      2  N   UNL     1       1.487  -1.929  -0.387  0.00  0.00    -0.189 NA
ATOM      3  H   UNL     1       0.708  -2.500   0.139  0.00  0.00    +0.148 HD
BRANCH   2   4
ATOM      4  S   UNL     1       2.820  -2.722  -0.967  0.00  0.00    +0.059 S 
ATOM      5  O   UNL     1       2.564  -4.112  -0.816  0.00  0.00    -0.153 OA
ATOM      6  O   UNL     1       3.125  -2.137  -2.225  0.00  0.00    -0.153 OA
BRANCH   4  12
ATOM      7  C   UNL     1       4.962  -1.241  -0.155  0.00  0.00    +0.032 A 
ATOM      8  C   UNL     1       6.015  -0.929   0.687  0.00  0.00    +0.051 A 
ATOM      9  C   UNL     1       6.273  -1.729   1.787  0.00  0.00    +0.162 A 
ATOM     10  C   UNL     1       5.474  -2.833   2.047  0.00  0.00    +0.164 A 
ATOM     11  C   UNL     1       4.418  -3.139   1.206  0.00  0.00    +0.078 A 
ATOM     12  C   UNL     1       4.163  -2.338   0.106  0.00  0.00    +0.109 A 
ATOM     13  O   UNL     1       5.737  -3.614   3.135  0.00  0.00    -0.488 OA
ATOM     14  C   UNL     1       6.948  -4.371   3.083  0.00  0.00    +0.232 C 
ATOM     15  C   UNL     1       8.129  -3.530   3.542  0.00  0.00    +0.082 C 
ATOM     16  C   UNL     1       8.403  -2.359   2.610  0.00  0.00    +0.232 C 
ATOM     17  O   UNL     1       7.312  -1.436   2.622  0.00  0.00    -0.488 OA
ENDBRANCH   4  12
ENDBRANCH   2   4
ENDBRANCH   1   2
BRANCH   1  18
ATOM     18  C   UNL     1       0.013   0.009  -0.161  0.00  0.00    +0.113 C 
BRANCH  18  19
ATOM     19  C   UNL     1      -0.024   1.516  -0.154  0.00  0.00    +0.218 C 
ATOM     20  O   UNL     1       0.999   2.148  -0.311  0.00  0.00    -0.275 OA
ATOM     21  N   UNL     1      -1.195   2.161   0.019  0.00  0.00    -0.285 N 
ATOM     22  H   UNL     1      -2.134   1.591   0.072  0.00  0.00    +0.155 HD
BRANCH  21  23
ATOM     23  C   UNL     1      -1.215   3.557   0.133  0.00  0.00    +0.036 A 
ATOM     24  C   UNL     1      -0.159   4.220   0.743  0.00  0.00    +0.045 A 
ATOM     25  C   UNL     1      -0.176   5.597   0.851  0.00  0.00    +0.065 A 
ATOM     26  C   UNL     1      -1.257   6.319   0.358  0.00  0.00    +0.062 A 
ATOM     27  C   UNL     1      -2.317   5.655  -0.247  0.00  0.00    +0.065 A 
ATOM     28  C   UNL     1      -2.295   4.278  -0.359  0.00  0.00    +0.045 A 
ATOM     29 CL   UNL     1      -3.667   6.555  -0.863  0.00  0.00    -0.082 Cl
ATOM     30 CL   UNL     1       1.148   6.426   1.607  0.00  0.00    -0.082 Cl
BRANCH  26  31
ATOM     31  N   UNL     1      -1.278   7.714   0.472  0.00  0.00    -0.356 N 
ATOM     32  H   UNL     1      -2.134   8.285   0.083  0.00  0.00    +0.142 HD
ATOM     33  H   UNL     1      -0.439   8.240   0.951  0.00  0.00    +0.142 HD
ENDBRANCH  26  31
ENDBRANCH  21  23
ENDBRANCH  18  19
ENDBRANCH   1  18
TORSDOF 7
