REMARK  Name = ZINC14545448
REMARK  10 active torsions:
REMARK  status: ('A' for Active; 'I' for Inactive)
REMARK    1  A    between atoms: C_1  and  C_2
REMARK    2  A    between atoms: C_2  and  O_3
REMARK    3  A    between atoms: O_3  and  C_4
REMARK    4  A    between atoms: C_7  and  N_10
REMARK    5  A    between atoms: N_10  and  S_11
REMARK    6  A    between atoms: S_11  and  C_14
REMARK    7  A    between atoms: C_27  and  C_30
REMARK    8  A    between atoms: C_35  and  O_36
REMARK    9  A    between atoms: O_36  and  C_37
REMARK   10  A    between atoms: C_37  and  C_38
REMARK                            x       y       z     vdW  Elec       q    Type
REMARK                         _______ _______ _______ _____ _____    ______ ____
ROOT
ATOM      1  C   UNL     1      -4.728   4.712   2.186  0.00  0.00    +0.109 A 
ATOM      2  C   UNL     1      -5.175   3.719   3.040  0.00  0.00    +0.030 A 
ATOM      3  C   UNL     1      -4.440   2.560   3.185  0.00  0.00    +0.025 A 
ATOM      4  C   UNL     1      -3.257   2.393   2.476  0.00  0.00    +0.031 A 
ATOM      5  C   UNL     1      -2.809   3.367   1.615  0.00  0.00    -0.018 A 
ATOM      6  C   UNL     1      -3.553   4.546   1.482  0.00  0.00    +0.034 A 
ATOM      7  C   UNL     1      -1.540   3.250   0.833  0.00  0.00    +0.049 C 
ATOM      8  C   UNL     1      -1.814   2.957  -0.623  0.00  0.00    -0.023 C 
ATOM      9  C   UNL     1      -0.910   2.136  -1.099  0.00  0.00    -0.030 C 
ATOM     10  C   UNL     1       0.096   1.773  -0.023  0.00  0.00    +0.033 C 
ATOM     11  C   UNL     1      -0.667   2.067   1.302  0.00  0.00    +0.029 C 
ATOM     12  C   UNL     1      -1.552   0.852   1.596  0.00  0.00    +0.108 C 
ATOM     13  N   UNL     1      -2.524   1.212   2.633  0.00  0.00    -0.336 N 
ATOM     14  H   UNL     1      -2.655   0.645   3.409  0.00  0.00    +0.147 HD
ENDROOT
BRANCH  12  15
ATOM     15  C   UNL     1      -2.278   0.441   0.341  0.00  0.00    +0.015 A 
ATOM     16  C   UNL     1      -3.508   0.994   0.042  0.00  0.00    +0.009 A 
ATOM     17  C   UNL     1      -4.173   0.621  -1.112  0.00  0.00    +0.001 A 
ATOM     18  C   UNL     1      -3.613  -0.314  -1.963  0.00  0.00    +0.004 A 
ATOM     19  C   UNL     1      -2.386  -0.874  -1.666  0.00  0.00    +0.046 A 
ATOM     20  C   UNL     1      -1.715  -0.497  -0.511  0.00  0.00    +0.125 A 
BRANCH  20  21
ATOM     21  O   UNL     1      -0.507  -1.046  -0.216  0.00  0.00    -0.492 OA
BRANCH  21  22
ATOM     22  C   UNL     1       0.012  -2.006  -1.140  0.00  0.00    +0.225 C 
ATOM     23  C   UNL     1       1.369  -2.509  -0.643  0.00  0.00    +0.048 C 
ENDBRANCH  21  22
ENDBRANCH  20  21
ENDBRANCH  12  15
BRANCH   1  24
ATOM     24  S   UNL     1      -5.663   6.193   1.998  0.00  0.00    +0.072 S 
ATOM     25  O   UNL     1      -5.386   6.685   0.694  0.00  0.00    -0.150 OA
ATOM     26  O   UNL     1      -6.982   5.900   2.437  0.00  0.00    -0.150 OA
BRANCH  24  27
ATOM     27  N   UNL     1      -5.045   7.301   3.063  0.00  0.00    -0.216 N 
ATOM     28  H   UNL     1      -5.594   7.634   3.790  0.00  0.00    +0.174 HD
BRANCH  27  32
ATOM     29  C   UNL     1      -1.129   8.659   2.619  0.00  0.00    +0.121 A 
ATOM     30  C   UNL     1      -2.120   9.110   1.761  0.00  0.00    +0.047 A 
ATOM     31  C   UNL     1      -3.418   8.661   1.907  0.00  0.00    +0.028 A 
ATOM     32  C   UNL     1      -3.730   7.756   2.914  0.00  0.00    +0.048 A 
ATOM     33  C   UNL     1      -2.738   7.309   3.776  0.00  0.00    +0.028 A 
ATOM     34  C   UNL     1      -1.439   7.755   3.625  0.00  0.00    +0.047 A 
BRANCH  29  35
ATOM     35  O   UNL     1       0.149   9.102   2.475  0.00  0.00    -0.492 OA
BRANCH  35  37
ATOM     36  C   UNL     1       2.487   9.203   3.078  0.00  0.00    +0.048 C 
ATOM     37  C   UNL     1       1.119   8.595   3.394  0.00  0.00    +0.225 C 
ENDBRANCH  35  37
ENDBRANCH  29  35
ENDBRANCH  27  32
ENDBRANCH  24  27
ENDBRANCH   1  24
TORSDOF 8
