REMARK  Name = ZINC01188154
REMARK  5 active torsions:
REMARK  status: ('A' for Active; 'I' for Inactive)
REMARK    1  A    between atoms: C_1  and  N_57
REMARK    2  A    between atoms: N_4  and  C_7
REMARK    3  A    between atoms: C_8  and  C_18
REMARK    4  A    between atoms: N_22  and  C_26
REMARK    5  A    between atoms: C_26  and  C_27
REMARK                            x       y       z     vdW  Elec       q    Type
REMARK                         _______ _______ _______ _____ _____    ______ ____
ROOT
ATOM      1  C   UNL     1      -3.436  -1.444  -0.024  0.00  0.00    +0.136 A 
ATOM      2  C   UNL     1      -2.412  -0.479   0.130  0.00  0.00    +0.081 A 
ATOM      3  C   UNL     1      -2.761   0.890   0.048  0.00  0.00    +0.267 A 
ATOM      4  O   UNL     1      -1.912   1.755   0.180  0.00  0.00    -0.267 OA
ATOM      5  N   UNL     1      -4.050   1.222  -0.183  0.00  0.00    -0.268 N 
ATOM      6  C   UNL     1      -4.394   2.538  -0.269  0.00  0.00    +0.096 A 
ATOM      7  C   UNL     1      -5.676   2.905  -0.494  0.00  0.00    +0.018 A 
ATOM      8  C   UNL     1      -6.670   1.929  -0.642  0.00  0.00    +0.005 A 
ATOM      9  C   UNL     1      -6.336   0.610  -0.558  0.00  0.00    +0.047 A 
ATOM     10  C   UNL     1      -4.997   0.247  -0.324  0.00  0.00    +0.142 A 
ATOM     11  N   UNL     1      -4.680  -1.046  -0.243  0.00  0.00    -0.214 NA
ENDROOT
BRANCH   1  15
ATOM     12  C   UNL     1      -2.798  -6.914  -0.785  0.00  0.00    -0.096 C 
ATOM     13  C   UNL     1      -4.000  -5.073   0.231  0.00  0.00    -0.060 C 
ATOM     14  C   UNL     1      -4.367  -3.596   0.065  0.00  0.00    +0.088 C 
ATOM     15  N   UNL     1      -3.140  -2.787   0.053  0.00  0.00    -0.318 N 
ATOM     16  C   UNL     1      -2.254  -3.196  -1.045  0.00  0.00    +0.088 C 
ATOM     17  C   UNL     1      -1.886  -4.672  -0.879  0.00  0.00    -0.060 C 
ATOM     18  N   UNL     1      -3.127  -5.476  -0.891  0.00  0.00    +0.380 N 
ATOM     19  H   UNL     1      -3.622  -5.311  -1.776  0.00  0.00    -0.082 HD
ENDBRANCH   1  15
BRANCH   2  20
ATOM     20  C   UNL     1      -1.074  -0.874   0.365  0.00  0.00    +0.037 C 
ATOM     21  C   UNL     1      -0.775  -1.673   1.430  0.00  0.00    +0.077 C 
ATOM     22  C   UNL     1       0.464  -2.274   1.792  0.00  0.00    +0.258 C 
ATOM     23  O   UNL     1       1.463  -2.107   1.114  0.00  0.00    -0.269 OA
ATOM     24  N   UNL     1       0.501  -3.017   2.884  0.00  0.00    -0.253 N 
ATOM     25  C   UNL     1      -0.607  -3.202   3.636  0.00  0.00    +0.121 C 
ATOM     26  S   UNL     1      -0.789  -4.114   5.074  0.00  0.00    -0.027 S 
ATOM     27  S   UNL     1      -1.833  -2.253   2.748  0.00  0.00    -0.061 S 
BRANCH  24  28
ATOM     28  C   UNL     1       1.760  -3.650   3.286  0.00  0.00    +0.146 C 
BRANCH  28  29
ATOM     29  C   UNL     1       2.534  -2.705   4.207  0.00  0.00    +0.136 C 
ATOM     30  C   UNL     1       3.864  -3.358   4.629  0.00  0.00    +0.035 C 
ATOM     31  C   UNL     1       4.947  -2.365   4.139  0.00  0.00    +0.031 C 
ATOM     32  C   UNL     1       4.140  -1.050   3.997  0.00  0.00    +0.160 C 
ATOM     33  O   UNL     1       2.854  -1.491   3.506  0.00  0.00    -0.375 OA
ENDBRANCH  28  29
ENDBRANCH  24  28
ENDBRANCH   2  20
TORSDOF 4
