REMARK  Name = ZINC63589416
REMARK  10 active torsions:
REMARK  status: ('A' for Active; 'I' for Inactive)
REMARK    1  A    between atoms: C_1  and  O_2
REMARK    2  A    between atoms: O_2  and  C_3
REMARK    3  A    between atoms: C_5  and  N_11
REMARK    4  A    between atoms: C_7  and  O_9
REMARK    5  A    between atoms: O_9  and  C_10
REMARK    6  A    between atoms: N_13  and  C_14
REMARK    7  A    between atoms: C_14  and  C_15
REMARK    8  A    between atoms: C_15  and  C_16
REMARK    9  A    between atoms: N_25  and  C_26
REMARK   10  A    between atoms: C_26  and  C_28
REMARK                            x       y       z     vdW  Elec       q    Type
REMARK                         _______ _______ _______ _____ _____    ______ ____
ROOT
ATOM      1  N   UNL     1       2.220  -4.254  -2.064  0.00  0.00    -0.328 N 
ATOM      2  C   UNL     1       1.936  -4.611  -3.351  0.00  0.00    +0.194 C 
ATOM      3  N   UNL     1       1.182  -5.720  -3.600  0.00  0.00    -0.357 N 
ATOM      4  N   UNL     1       2.393  -3.880  -4.357  0.00  0.00    -0.143 NA
ATOM      5  H   UNL     1       0.980  -5.973  -4.515  0.00  0.00    +0.162 HD
ATOM      6  H   UNL     1       1.792  -4.717  -1.327  0.00  0.00    +0.169 HD
ENDROOT
BRANCH   1   9
ATOM      7  C   UNL     1       3.618  -1.071  -0.853  0.00  0.00    +0.126 A 
ATOM      8  C   UNL     1       2.718  -2.095  -1.106  0.00  0.00    +0.071 A 
ATOM      9  C   UNL     1       3.127  -3.220  -1.809  0.00  0.00    +0.049 A 
ATOM     10  C   UNL     1       4.437  -3.319  -2.258  0.00  0.00    +0.071 A 
ATOM     11  C   UNL     1       5.336  -2.295  -2.005  0.00  0.00    +0.126 A 
ATOM     12  C   UNL     1       4.925  -1.168  -1.307  0.00  0.00    +0.091 A 
BRANCH   7  14
ATOM     13  C   UNL     1       4.196   1.049   0.054  0.00  0.00    +0.277 C 
ATOM     14  O   UNL     1       3.218   0.030  -0.165  0.00  0.00    -0.495 OA
ENDBRANCH   7  14
BRANCH  11  15
ATOM     15  O   UNL     1       6.618  -2.391  -2.445  0.00  0.00    -0.495 OA
ATOM     16  C   UNL     1       7.518  -1.353  -2.053  0.00  0.00    +0.277 C 
ENDBRANCH  11  15
ENDBRANCH   1   9
BRANCH   4  17
ATOM     17  C   UNL     1       2.343  -2.543  -4.290  0.00  0.00    +0.270 C 
ATOM     18  O   UNL     1       1.880  -1.999  -3.304  0.00  0.00    -0.268 OA
BRANCH  17  19
ATOM     19  C   UNL     1       2.850  -1.727  -5.416  0.00  0.00    +0.039 A 
ATOM     20  C   UNL     1       3.279  -2.345  -6.592  0.00  0.00    +0.014 A 
ATOM     21  C   UNL     1       3.750  -1.579  -7.638  0.00  0.00    +0.021 A 
ATOM     22  C   UNL     1       3.799  -0.200  -7.523  0.00  0.00    +0.041 A 
ATOM     23  C   UNL     1       3.376   0.419  -6.358  0.00  0.00    +0.021 A 
ATOM     24  C   UNL     1       2.897  -0.337  -5.308  0.00  0.00    +0.014 A 
ATOM     25 CL   UNL     1       4.394   0.758  -8.843  0.00  0.00    -0.084 Cl
ENDBRANCH  17  19
ENDBRANCH   4  17
BRANCH   3  26
ATOM     26  C   UNL     1       0.676  -6.527  -2.487  0.00  0.00    +0.120 C 
BRANCH  26  27
ATOM     27  C   UNL     1      -0.133  -7.703  -3.038  0.00  0.00    +0.054 C 
BRANCH  27  28
ATOM     28  C   UNL     1      -0.653  -8.534  -1.893  0.00  0.00    -0.040 C 
ATOM     29  C   UNL     1      -1.870  -8.444  -1.309  0.00  0.00    -0.001 A 
ATOM     30  C   UNL     1      -3.029  -7.578  -1.556  0.00  0.00    +0.010 A 
ATOM     31  C   UNL     1      -4.133  -7.726  -0.789  0.00  0.00    +0.001 A 
ATOM     32  C   UNL     1      -4.198  -8.684   0.233  0.00  0.00    +0.002 A 
ATOM     33  C   UNL     1      -3.174  -9.515   0.519  0.00  0.00    +0.026 A 
ATOM     34  C   UNL     1      -1.964  -9.448  -0.225  0.00  0.00    +0.043 A 
ATOM     35  N   UNL     1      -0.848 -10.131  -0.141  0.00  0.00    -0.380 N 
ATOM     36  C   UNL     1       0.078  -9.642  -1.168  0.00  0.00    +0.144 C 
ATOM     37  H   UNL     1      -0.667 -10.844   0.492  0.00  0.00    +0.160 HD
ENDBRANCH  27  28
ENDBRANCH  26  27
ENDBRANCH   3  26
TORSDOF 8
