REMARK  Name = ZINC60378773
REMARK  7 active torsions:
REMARK  status: ('A' for Active; 'I' for Inactive)
REMARK    1  A    between atoms: C_4  and  S_20
REMARK    2  A    between atoms: C_5  and  N_7
REMARK    3  A    between atoms: C_11  and  C_14
REMARK    4  A    between atoms: C_14  and  N_15
REMARK    5  A    between atoms: N_15  and  S_16
REMARK    6  A    between atoms: S_16  and  N_19
REMARK    7  A    between atoms: S_20  and  C_23
REMARK                            x       y       z     vdW  Elec       q    Type
REMARK                         _______ _______ _______ _____ _____    ______ ____
ROOT
ATOM      1  N   UNL     1       1.997  -1.482   1.646  0.00  0.00    -0.328 N 
ATOM      2  C   UNL     1       1.653  -1.433   3.074  0.00  0.00    +0.105 C 
ATOM      3  C   UNL     1       2.920  -1.691   3.896  0.00  0.00    +0.019 C 
ATOM      4  C   UNL     1       3.556  -3.008   3.446  0.00  0.00    +0.008 C 
ATOM      5  C   UNL     1       3.949  -2.910   1.970  0.00  0.00    +0.022 C 
ATOM      6  C   UNL     1       2.688  -2.669   1.126  0.00  0.00    +0.110 C 
ENDROOT
BRANCH   1  11
ATOM      7  C   UNL     1       2.182   1.726  -0.138  0.00  0.00    +0.002 A 
ATOM      8  C   UNL     1       1.016   1.679  -0.880  0.00  0.00    +0.002 A 
ATOM      9  C   UNL     1       0.175   0.586  -0.785  0.00  0.00    +0.029 A 
ATOM     10  C   UNL     1       0.497  -0.464   0.052  0.00  0.00    +0.118 A 
ATOM     11  C   UNL     1       1.668  -0.421   0.799  0.00  0.00    +0.055 A 
ATOM     12  C   UNL     1       2.510   0.679   0.701  0.00  0.00    +0.025 A 
BRANCH  10  13
ATOM     13  S   UNL     1      -0.575  -1.857   0.173  0.00  0.00    +0.093 S 
ATOM     14  O   UNL     1      -0.093  -2.590   1.290  0.00  0.00    -0.161 OA
ATOM     15  O   UNL     1      -1.885  -1.306   0.180  0.00  0.00    -0.161 OA
BRANCH  13  16
ATOM     16  C   UNL     1      -0.299  -2.793  -1.356  0.00  0.00    +0.526 C 
ATOM     17  F   UNL     1       1.036  -3.209  -1.413  0.00  0.00    -0.150 F 
ATOM     18  F   UNL     1      -1.138  -3.912  -1.376  0.00  0.00    -0.150 F 
ATOM     19  F   UNL     1      -0.581  -1.979  -2.458  0.00  0.00    -0.150 F 
ENDBRANCH  13  16
ENDBRANCH  10  13
ENDBRANCH   1  11
BRANCH   5  20
ATOM     20  C   UNL     1       4.614  -4.215   1.531  0.00  0.00    +0.112 C 
BRANCH  20  21
ATOM     21  N   UNL     1       5.875  -4.389   2.257  0.00  0.00    -0.180 NA
ATOM     22  H   UNL     1       6.270  -3.639   2.729  0.00  0.00    +0.149 HD
BRANCH  21  23
ATOM     23  S   UNL     1       6.626  -5.865   2.272  0.00  0.00    +0.092 S 
ATOM     24  O   UNL     1       7.821  -5.705   3.025  0.00  0.00    -0.142 OA
ATOM     25  O   UNL     1       5.633  -6.822   2.612  0.00  0.00    -0.142 OA
BRANCH  23  26
ATOM     26  N   UNL     1       7.088  -6.194   0.716  0.00  0.00    -0.193 NA
ATOM     27  H   UNL     1       7.875  -6.737   0.548  0.00  0.00    +0.145 HD
ATOM     28  H   UNL     1       6.572  -5.846  -0.028  0.00  0.00    +0.145 HD
ENDBRANCH  23  26
ENDBRANCH  21  23
ENDBRANCH  20  21
ENDBRANCH   5  20
TORSDOF 7
