REMARK  Name = ZINC49117383
REMARK  5 active torsions:
REMARK  status: ('A' for Active; 'I' for Inactive)
REMARK    1  A    between atoms: C_3  and  N_20
REMARK    2  A    between atoms: C_6  and  C_7
REMARK    3  A    between atoms: C_7  and  S_8
REMARK    4  A    between atoms: S_8  and  N_11
REMARK    5  A    between atoms: N_11  and  C_12
REMARK                            x       y       z     vdW  Elec       q    Type
REMARK                         _______ _______ _______ _____ _____    ______ ____
ROOT
ATOM      1  S   UNL     1      -1.869  -1.032  -1.794  0.00  0.00    +0.047 S 
ATOM      2  O   UNL     1      -2.303   0.140  -2.471  0.00  0.00    -0.155 OA
ATOM      3  O   UNL     1      -0.963  -1.934  -2.413  0.00  0.00    -0.155 OA
ENDROOT
BRANCH   1   4
ATOM      4  N   UNL     1      -3.248  -1.917  -1.554  0.00  0.00    -0.219 N 
ATOM      5  H   UNL     1      -3.303  -2.828  -1.881  0.00  0.00    +0.173 HD
BRANCH   4   6
ATOM      6  C   UNL     1      -4.334  -1.350  -0.881  0.00  0.00    +0.063 A 
ATOM      7  C   UNL     1      -4.627  -0.003  -1.044  0.00  0.00    +0.041 A 
ATOM      8  C   UNL     1      -5.702   0.555  -0.378  0.00  0.00    +0.020 A 
ATOM      9  C   UNL     1      -6.485  -0.229   0.452  0.00  0.00    +0.016 A 
ATOM     10  C   UNL     1      -6.196  -1.571   0.616  0.00  0.00    +0.018 A 
ATOM     11  C   UNL     1      -5.126  -2.135  -0.052  0.00  0.00    +0.040 A 
ATOM     12 BR   UNL     1      -4.736  -3.973   0.167  0.00  0.00    -0.048 Br
ATOM     13 BR   UNL     1      -6.102   2.390  -0.598  0.00  0.00    -0.050 Br
ENDBRANCH   4   6
ENDBRANCH   1   4
BRANCH   1  14
ATOM     14  C   UNL     1      -1.290  -0.611  -0.127  0.00  0.00    +0.223 C 
BRANCH  14  20
ATOM     15  C   UNL     1      -0.098   1.583  -0.298  0.00  0.00    +0.007 A 
ATOM     16  C   UNL     1       1.058   2.332  -0.387  0.00  0.00    +0.023 A 
ATOM     17  C   UNL     1       2.295   1.699  -0.404  0.00  0.00    +0.025 A 
ATOM     18  C   UNL     1       2.363   0.314  -0.330  0.00  0.00    +0.023 A 
ATOM     19  C   UNL     1       1.203  -0.430  -0.241  0.00  0.00    +0.007 A 
ATOM     20  C   UNL     1      -0.026   0.204  -0.225  0.00  0.00    -0.025 A 
BRANCH  17  21
ATOM     21  N   UNL     1       3.466   2.454  -0.495  0.00  0.00    -0.358 N 
ATOM     22  H   UNL     1       3.417   3.422  -0.546  0.00  0.00    +0.142 HD
ATOM     23  H   UNL     1       4.329   2.011  -0.506  0.00  0.00    +0.142 HD
ENDBRANCH  17  21
ENDBRANCH  14  20
ENDBRANCH   1  14
TORSDOF 5
