REMARK  Name = ZINC67247399
REMARK  10 active torsions:
REMARK  status: ('A' for Active; 'I' for Inactive)
REMARK    1  A    between atoms: C_1  and  C_2
REMARK    2  A    between atoms: C_7  and  O_29
REMARK    3  A    between atoms: C_8  and  C_12
REMARK    4  A    between atoms: C_12  and  N_13
REMARK    5  A    between atoms: N_13  and  C_14
REMARK    6  A    between atoms: C_14  and  C_15
REMARK    7  A    between atoms: C_18  and  N_21
REMARK    8  A    between atoms: C_24  and  C_27
REMARK    9  A    between atoms: C_27  and  O_28
REMARK   10  A    between atoms: O_29  and  C_30
REMARK                            x       y       z     vdW  Elec       q    Type
REMARK                         _______ _______ _______ _____ _____    ______ ____
ROOT
ATOM      1  N   UNL     1       6.388   0.217   1.769  0.00  0.00    +0.384 N 
ATOM      2  H   UNL     1       6.632   0.495   0.830  0.00  0.00    -0.085 HD
ATOM      3  H   UNL     1       5.787   0.916   2.181  0.00  0.00    -0.085 HD
ENDROOT
BRANCH   1   4
ATOM      4  C   UNL     1       5.685  -1.072   1.731  0.00  0.00    -0.043 C 
BRANCH   4  11
ATOM      5  C   UNL     1      -0.049   1.540   0.111  0.00  0.00    +0.052 C 
ATOM      6  C   UNL     1      -0.028   0.010   0.093  0.00  0.00    +0.175 C 
ATOM      7  C   UNL     1       0.731  -0.513  -1.150  0.00  0.00    +0.083 C 
ATOM      8  C   UNL     1       2.137  -0.684  -0.610  0.00  0.00    +0.001 A 
ATOM      9  C   UNL     1       3.353  -0.849  -1.236  0.00  0.00    +0.053 A 
ATOM     10  C   UNL     1       4.510  -0.977  -0.479  0.00  0.00    +0.122 A 
ATOM     11  C   UNL     1       4.432  -0.937   0.905  0.00  0.00    -0.019 A 
ATOM     12  C   UNL     1       3.212  -0.775   1.529  0.00  0.00    +0.051 A 
ATOM     13  C   UNL     1       2.048  -0.650   0.775  0.00  0.00    +0.125 A 
ATOM     14  O   UNL     1       0.753  -0.502   1.186  0.00  0.00    -0.488 OA
BRANCH  10  15
ATOM     15  O   UNL     1       5.712  -1.141  -1.092  0.00  0.00    -0.495 OA
ATOM     16  C   UNL     1       5.714  -1.172  -2.520  0.00  0.00    +0.277 C 
ENDBRANCH  10  15
ENDBRANCH   4  11
ENDBRANCH   1   4
BRANCH   1  17
ATOM     17  C   UNL     1       7.609   0.086   2.574  0.00  0.00    -0.046 C 
BRANCH  17  18
ATOM     18  C   UNL     1       8.330   1.409   2.613  0.00  0.00    -0.064 A 
ATOM     19  C   UNL     1       9.271   1.710   1.645  0.00  0.00    +0.003 A 
ATOM     20  C   UNL     1       9.933   2.922   1.677  0.00  0.00    +0.023 A 
ATOM     21  C   UNL     1       9.654   3.837   2.684  0.00  0.00    +0.030 A 
ATOM     22  C   UNL     1       8.709   3.531   3.655  0.00  0.00    +0.023 A 
ATOM     23  C   UNL     1       8.046   2.320   3.613  0.00  0.00    +0.003 A 
BRANCH  21  24
ATOM     24  N   UNL     1      10.322   5.063   2.720  0.00  0.00    -0.330 N 
ATOM     25  C   UNL     1       9.953   6.089   3.705  0.00  0.00    +0.105 C 
ATOM     26  C   UNL     1      11.210   6.511   4.473  0.00  0.00    +0.024 C 
ATOM     27  C   UNL     1      12.285   6.953   3.478  0.00  0.00    +0.017 C 
ATOM     28  C   UNL     1      12.649   5.782   2.563  0.00  0.00    +0.024 C 
ATOM     29  C   UNL     1      11.412   5.350   1.778  0.00  0.00    +0.105 C 
BRANCH  27  30
ATOM     30  C   UNL     1      13.530   7.408   4.243  0.00  0.00    +0.159 C 
BRANCH  30  31
ATOM     31  O   UNL     1      14.490   7.930   3.322  0.00  0.00    -0.395 OA
ATOM     32  H   UNL     1      15.307   8.238   3.738  0.00  0.00    +0.209 HD
ENDBRANCH  30  31
ENDBRANCH  27  30
ENDBRANCH  21  24
ENDBRANCH  17  18
ENDBRANCH   1  17
TORSDOF 8
