REMARK  Name = ZINC22641212
REMARK  7 active torsions:
REMARK  status: ('A' for Active; 'I' for Inactive)
REMARK    1  A    between atoms: C_1  and  C_2
REMARK    2  A    between atoms: C_2  and  C_4
REMARK    3  A    between atoms: C_2  and  S_19
REMARK    4  A    between atoms: N_6  and  C_7
REMARK    5  A    between atoms: C_8  and  C_17
REMARK    6  A    between atoms: S_19  and  C_20
REMARK    7  A    between atoms: N_29  and  C_30
REMARK                            x       y       z     vdW  Elec       q    Type
REMARK                         _______ _______ _______ _____ _____    ______ ____
ROOT
ATOM      1  C   UNL     1       0.185  -0.605   5.282  0.00  0.00    +0.231 C 
ATOM      2  O   UNL     1      -0.192   0.521   5.532  0.00  0.00    -0.274 OA
ATOM      3  N   UNL     1       0.721  -1.367   6.256  0.00  0.00    -0.278 N 
ATOM      4  H   UNL     1       1.063  -2.388   6.029  0.00  0.00    +0.155 HD
ENDROOT
BRANCH   3   5
ATOM      5  C   UNL     1       0.841  -0.865   7.544  0.00  0.00    +0.090 A 
ATOM      6  C   UNL     1       1.359  -1.490   8.667  0.00  0.00    +0.084 A 
ATOM      7  C   UNL     1       1.374  -0.739   9.914  0.00  0.00    -0.018 A 
ATOM      8  C   UNL     1       0.861   0.508   9.834  0.00  0.00    -0.004 A 
ATOM      9  S   UNL     1       0.385   0.697   8.137  0.00  0.00    -0.077 S 
ATOM     10  C   UNL     1       0.722   1.514  10.934  0.00  0.00    +0.043 C 
ATOM     11  C   UNL     1       2.056   1.629  11.684  0.00  0.00    +0.005 C 
ATOM     12  C   UNL     1       2.064   0.608  12.817  0.00  0.00    +0.001 C 
ATOM     13  C   UNL     1       1.282  -0.639  12.406  0.00  0.00    +0.005 C 
ATOM     14  C   UNL     1       1.942  -1.311  11.207  0.00  0.00    +0.037 C 
BRANCH   6  15
ATOM     15  C   UNL     1       1.863  -2.829   8.602  0.00  0.00    +0.102 C 
ATOM     16  N   UNL     1       2.262  -3.891   8.552  0.00  0.00    -0.191 NA
ENDBRANCH   6  15
ENDBRANCH   3   5
BRANCH   1  18
ATOM     17  C   UNL     1      -1.243  -1.951   3.767  0.00  0.00    +0.029 C 
ATOM     18  C   UNL     1       0.055  -1.150   3.883  0.00  0.00    +0.137 C 
BRANCH  18  19
ATOM     19  S   UNL     1       0.025   0.221   2.702  0.00  0.00    -0.075 S 
BRANCH  19  20
ATOM     20  C   UNL     1       0.022  -0.680   1.188  0.00  0.00    +0.173 A 
ATOM     21  N   UNL     1       0.041  -1.997   1.215  0.00  0.00    -0.216 NA
ATOM     22  C   UNL     1       0.039  -2.702   0.090  0.00  0.00    +0.116 A 
ATOM     23  C   UNL     1       0.018  -2.088  -1.176  0.00  0.00    +0.072 A 
ATOM     24  C   UNL     1       0.019  -3.006  -2.302  0.00  0.00    +0.023 A 
ATOM     25  C   UNL     1       0.039  -4.327  -2.071  0.00  0.00    +0.048 A 
ATOM     26  S   UNL     1       0.058  -4.435  -0.291  0.00  0.00    -0.077 S 
ATOM     27  C   UNL     1      -0.006  -0.658  -1.174  0.00  0.00    +0.263 A 
ATOM     28  O   UNL     1      -0.029  -0.039  -2.224  0.00  0.00    -0.267 OA
ATOM     29  N   UNL     1       0.002  -0.004   0.002  0.00  0.00    -0.290 N 
ATOM     30  C   UNL     1      -0.018   1.461   0.010  0.00  0.00    +0.154 C 
ENDBRANCH  19  20
ENDBRANCH  18  19
ENDBRANCH   1  18
TORSDOF 5
