REMARK  Name = ZINC35447995
REMARK  8 active torsions:
REMARK  status: ('A' for Active; 'I' for Inactive)
REMARK    1  A    between atoms: C_1  and  C_2
REMARK    2  A    between atoms: C_5  and  O_20
REMARK    3  A    between atoms: C_6  and  N_8
REMARK    4  A    between atoms: C_9  and  C_11
REMARK    5  A    between atoms: C_11  and  O_12
REMARK    6  A    between atoms: O_12  and  C_13
REMARK    7  A    between atoms: O_20  and  C_21
REMARK    8  A    between atoms: C_21  and  C_22
REMARK                            x       y       z     vdW  Elec       q    Type
REMARK                         _______ _______ _______ _____ _____    ______ ____
ROOT
ATOM      1  C   UNL     1       0.016   1.511   0.025  0.00  0.00    +0.044 C 
ATOM      2  C   UNL     1       0.029   0.004   0.011  0.00  0.00    -0.048 A 
ATOM      3  C   UNL     1       0.036  -0.675  -1.193  0.00  0.00    +0.007 A 
ATOM      4  C   UNL     1       0.048  -2.057  -1.212  0.00  0.00    +0.048 A 
ATOM      5  C   UNL     1       0.052  -2.766  -0.021  0.00  0.00    +0.142 A 
ATOM      6  C   UNL     1       0.046  -2.083   1.192  0.00  0.00    +0.076 A 
ATOM      7  C   UNL     1       0.040  -0.696   1.203  0.00  0.00    +0.030 A 
ENDROOT
BRANCH   6   8
ATOM      8  N   UNL     1       0.050  -2.795   2.399  0.00  0.00    -0.280 N 
ATOM      9  C   UNL     1      -0.440  -2.226   3.519  0.00  0.00    +0.255 C 
ATOM     10  O   UNL     1      -0.977  -1.140   3.462  0.00  0.00    -0.272 OA
ATOM     11  H   UNL     1       0.407  -3.696   2.429  0.00  0.00    +0.155 HD
BRANCH   9  12
ATOM     12  C   UNL     1      -0.323  -2.941   4.840  0.00  0.00    +0.324 C 
BRANCH  12  13
ATOM     13  O   UNL     1      -0.912  -2.142   5.868  0.00  0.00    -0.483 OA
BRANCH  13  14
ATOM     14  C   UNL     1      -0.890  -2.646   7.130  0.00  0.00    +0.121 A 
ATOM     15  C   UNL     1      -0.307  -3.880   7.375  0.00  0.00    +0.048 A 
ATOM     16  C   UNL     1      -0.285  -4.391   8.659  0.00  0.00    +0.042 A 
ATOM     17  C   UNL     1      -0.845  -3.671   9.700  0.00  0.00    +0.124 A 
ATOM     18  C   UNL     1      -1.428  -2.439   9.457  0.00  0.00    +0.042 A 
ATOM     19  C   UNL     1      -1.445  -1.923   8.176  0.00  0.00    +0.048 A 
ATOM     20  F   UNL     1      -0.823  -4.171  10.955  0.00  0.00    -0.205 F 
ENDBRANCH  13  14
ENDBRANCH  12  13
ENDBRANCH   9  12
ENDBRANCH   6   8
BRANCH   5  21
ATOM     21  O   UNL     1       0.063  -4.126  -0.038  0.00  0.00    -0.484 OA
BRANCH  21  22
ATOM     22  C   UNL     1       0.069  -4.759  -1.319  0.00  0.00    +0.282 C 
BRANCH  22  23
ATOM     23  C   UNL     1       0.081  -6.255  -1.140  0.00  0.00    +0.061 A 
ATOM     24  C   UNL     1       0.078  -6.811   0.122  0.00  0.00    +0.095 A 
ATOM     25  C   UNL     1       0.089  -8.198   0.268  0.00  0.00    +0.259 A 
ATOM     26  O   UNL     1       0.087  -8.696   1.383  0.00  0.00    -0.267 OA
ATOM     27  N   UNL     1       0.102  -8.999  -0.840  0.00  0.00    -0.260 N 
ATOM     28  C   UNL     1       0.114 -10.387  -0.831  0.00  0.00    +0.039 A 
ATOM     29  C   UNL     1       0.125 -11.030  -2.006  0.00  0.00    +0.013 A 
ATOM     30  S   UNL     1       0.120  -9.721  -3.204  0.00  0.00    -0.056 S 
ATOM     31  C   UNL     1       0.103  -8.365  -2.050  0.00  0.00    +0.159 A 
ATOM     32  N   UNL     1       0.088  -7.064  -2.197  0.00  0.00    -0.336 N 
ATOM     33  C   UNL     1       0.139 -12.505  -2.248  0.00  0.00    +0.044 C 
ATOM     34  C   UNL     1       0.505 -13.208  -0.932  0.00  0.00    +0.006 C 
ATOM     35  C   UNL     1      -0.340 -12.606   0.195  0.00  0.00    +0.006 C 
ATOM     36  C   UNL     1       0.114 -11.174   0.478  0.00  0.00    +0.055 C 
ATOM     37  H   UNL     1       0.085  -6.683  -3.089  0.00  0.00    +0.168 HD
ENDBRANCH  22  23
ENDBRANCH  21  22
ENDBRANCH   5  21
TORSDOF 7
