REMARK  Name = ZINC11027020
REMARK  10 active torsions:
REMARK  status: ('A' for Active; 'I' for Inactive)
REMARK    1  A    between atoms: C_1  and  C_2
REMARK    2  A    between atoms: C_2  and  C_29
REMARK    3  A    between atoms: C_3  and  C_25
REMARK    4  A    between atoms: C_5  and  C_7
REMARK    5  A    between atoms: N_9  and  C_10
REMARK    6  A    between atoms: C_10  and  C_12
REMARK    7  A    between atoms: C_10  and  N_16
REMARK    8  A    between atoms: N_16  and  C_17
REMARK    9  A    between atoms: C_22  and  O_23
REMARK   10  A    between atoms: O_23  and  C_24
REMARK                            x       y       z     vdW  Elec       q    Type
REMARK                         _______ _______ _______ _____ _____    ______ ____
ROOT
ATOM      1  C   UNL     1       2.330   5.360  -0.102  0.00  0.00    +0.210 C 
ENDROOT
BRANCH   1   4
ATOM      2  C   UNL     1       1.611   6.196  -2.274  0.00  0.00    +0.219 C 
ATOM      3  O   UNL     1       0.479   6.261  -1.842  0.00  0.00    -0.275 OA
ATOM      4  N   UNL     1       2.610   5.757  -1.484  0.00  0.00    -0.293 N 
ATOM      5  H   UNL     1       3.515   5.705  -1.829  0.00  0.00    +0.151 HD
BRANCH   2   9
ATOM      6  C   UNL     1       0.731   6.745  -6.033  0.00  0.00    +0.012 C 
ATOM      7  C   UNL     1       0.722   7.093  -4.543  0.00  0.00    -0.016 C 
ATOM      8  C   UNL     1       1.771   8.089  -4.044  0.00  0.00    +0.033 C 
ATOM      9  C   UNL     1       1.899   6.604  -3.696  0.00  0.00    +0.089 C 
ATOM     10  C   UNL     1      -0.657   7.129  -3.882  0.00  0.00    +0.012 C 
BRANCH   8  11
ATOM     11  C   UNL     1       2.734   8.651  -5.058  0.00  0.00    +0.010 C 
ATOM     12  C   UNL     1       2.783   9.947  -5.269  0.00  0.00    +0.103 C 
ATOM     13 CL   UNL     1       1.738  11.011  -4.380  0.00  0.00    -0.071 Cl
ATOM     14 CL   UNL     1       3.892  10.595  -6.436  0.00  0.00    -0.071 Cl
ENDBRANCH   8  11
ENDBRANCH   2   9
ENDBRANCH   1   4
BRANCH   1  15
ATOM     15  C   UNL     1       3.392   5.954   0.825  0.00  0.00    +0.225 C 
ATOM     16 CL   UNL     1       5.019   5.345   0.343  0.00  0.00    -0.080 Cl
ATOM     17 CL   UNL     1       3.362   7.752   0.699  0.00  0.00    -0.080 Cl
ATOM     18 CL   UNL     1       3.047   5.465   2.526  0.00  0.00    -0.080 Cl
ENDBRANCH   1  15
BRANCH   1  19
ATOM     19  N   UNL     1       2.354   3.899   0.001  0.00  0.00    -0.320 N 
ATOM     20  H   UNL     1       3.202   3.427   0.004  0.00  0.00    +0.148 HD
BRANCH  19  21
ATOM     21  C   UNL     1       1.155   3.183   0.095  0.00  0.00    +0.071 A 
ATOM     22  C   UNL     1      -0.051   3.860   0.204  0.00  0.00    +0.026 A 
ATOM     23  C   UNL     1      -1.234   3.151   0.297  0.00  0.00    +0.002 A 
ATOM     24  C   UNL     1      -1.220   1.769   0.277  0.00  0.00    +0.004 A 
ATOM     25  C   UNL     1      -0.021   1.088   0.174  0.00  0.00    +0.047 A 
ATOM     26  C   UNL     1       1.169   1.790   0.080  0.00  0.00    +0.141 A 
BRANCH  26  27
ATOM     27  O   UNL     1       2.349   1.122  -0.026  0.00  0.00    -0.493 OA
ATOM     28  C   UNL     1       2.287  -0.306  -0.034  0.00  0.00    +0.277 C 
ENDBRANCH  26  27
ENDBRANCH  19  21
ENDBRANCH   1  19
TORSDOF 7
