REMARK  Name = ZINC20083497
REMARK  3 active torsions:
REMARK  status: ('A' for Active; 'I' for Inactive)
REMARK    1  A    between atoms: C_1  and  N_2
REMARK    2  A    between atoms: C_13  and  C_16
REMARK    3  A    between atoms: C_19  and  C_21
REMARK                            x       y       z     vdW  Elec       q    Type
REMARK                         _______ _______ _______ _____ _____    ______ ____
ROOT
ATOM      1  C   UNL     1       0.988   3.949   8.396  0.00  0.00    -0.096 C 
ATOM      2  N   UNL     1       1.223   3.716   6.965  0.00  0.00    +0.381 N 
ATOM      3  C   UNL     1       2.524   4.260   6.549  0.00  0.00    -0.074 C 
ATOM      4  C   UNL     1       2.919   3.693   5.183  0.00  0.00    +0.018 C 
ATOM      5  C   UNL     1       1.754   3.909   4.223  0.00  0.00    -0.027 A 
ATOM      6  C   UNL     1       0.518   4.175   4.708  0.00  0.00    -0.021 A 
ATOM      7  S   UNL     1      -0.508   4.350   3.275  0.00  0.00    -0.080 S 
ATOM      8  C   UNL     1       0.672   4.074   2.065  0.00  0.00    +0.080 A 
ATOM      9  C   UNL     1       1.863   3.852   2.776  0.00  0.00    +0.068 A 
ATOM     10  C   UNL     1       3.090   3.594   1.988  0.00  0.00    +0.248 C 
ATOM     11  O   UNL     1       4.187   3.564   2.514  0.00  0.00    -0.270 OA
ATOM     12  N   UNL     1       2.941   3.394   0.662  0.00  0.00    -0.287 N 
ATOM     13  C   UNL     1       1.646   3.259   0.004  0.00  0.00    +0.227 C 
ATOM     14  N   UNL     1       0.609   4.045   0.696  0.00  0.00    -0.314 N 
ATOM     15  C   UNL     1       0.135   4.288   6.150  0.00  0.00    -0.036 C 
ATOM     16  H   UNL     1       3.867   3.335   0.072  0.00  0.00    +0.151 HD
ATOM     17  H   UNL     1      -0.163   4.570   0.115  0.00  0.00    +0.149 HD
ATOM     18  H   UNL     1       1.242   2.628   6.802  0.00  0.00    -0.082 HD
ENDROOT
BRANCH  13  19
ATOM     19  C   UNL     1       1.244   1.806  -0.000  0.00  0.00    +0.144 A 
ATOM     20  C   UNL     1       2.090   0.757  -0.014  0.00  0.00    +0.049 A 
ATOM     21  C   UNL     1       1.300  -0.410  -0.013  0.00  0.00    +0.050 A 
ATOM     22  C   UNL     1       0.002  -0.004   0.002  0.00  0.00    +0.135 A 
ATOM     23  O   UNL     1      -0.016   1.343   0.009  0.00  0.00    -0.456 OA
BRANCH  22  24
ATOM     24  C   UNL     1      -1.183  -0.887   0.008  0.00  0.00    +0.018 A 
ATOM     25  C   UNL     1      -1.023  -2.275  -0.007  0.00  0.00    +0.011 A 
ATOM     26  C   UNL     1      -2.133  -3.094   0.004  0.00  0.00    +0.002 A 
ATOM     27  C   UNL     1      -3.402  -2.544   0.019  0.00  0.00    +0.015 A 
ATOM     28  C   UNL     1      -3.568  -1.170   0.029  0.00  0.00    +0.019 A 
ATOM     29  C   UNL     1      -2.466  -0.339   0.023  0.00  0.00    +0.026 A 
ATOM     30 BR   UNL     1      -5.308  -0.430   0.050  0.00  0.00    -0.050 Br
ENDBRANCH  22  24
ENDBRANCH  13  19
TORSDOF 2
