REMARK  Name = ZINC60969414
REMARK  9 active torsions:
REMARK  status: ('A' for Active; 'I' for Inactive)
REMARK    1  A    between atoms: C_1  and  C_2
REMARK    2  A    between atoms: C_2  and  C_3
REMARK    3  A    between atoms: C_2  and  N_10
REMARK    4  A    between atoms: N_10  and  C_11
REMARK    5  A    between atoms: C_11  and  C_12
REMARK    6  A    between atoms: C_11  and  C_13
REMARK    7  A    between atoms: N_15  and  C_16
REMARK    8  A    between atoms: C_19  and  N_26
REMARK    9  A    between atoms: C_21  and  C_22
REMARK                            x       y       z     vdW  Elec       q    Type
REMARK                         _______ _______ _______ _____ _____    ______ ____
ROOT
ATOM      1  C   UNL     1       2.452  -0.093  -2.706  0.00  0.00    +0.203 C 
ATOM      2  O   UNL     1       1.680  -0.423  -3.582  0.00  0.00    -0.277 OA
ATOM      3  N   UNL     1       3.754   0.102  -2.994  0.00  0.00    -0.286 N 
ATOM      4  H   UNL     1       4.383   0.302  -2.283  0.00  0.00    +0.155 HD
ENDROOT
BRANCH   3   5
ATOM      5  C   UNL     1       4.198   0.017  -4.318  0.00  0.00    +0.045 A 
ATOM      6  C   UNL     1       3.530  -0.796  -5.225  0.00  0.00    +0.026 A 
ATOM      7  C   UNL     1       3.972  -0.878  -6.531  0.00  0.00    +0.034 A 
ATOM      8  C   UNL     1       5.077  -0.153  -6.936  0.00  0.00    +0.127 A 
ATOM      9  C   UNL     1       5.745   0.656  -6.035  0.00  0.00    +0.047 A 
ATOM     10  C   UNL     1       5.305   0.748  -4.729  0.00  0.00    +0.078 A 
BRANCH  10  11
ATOM     11  C   UNL     1       6.029   1.635  -3.749  0.00  0.00    +0.419 C 
ATOM     12  F   UNL     1       7.100   2.263  -4.393  0.00  0.00    -0.166 F 
ATOM     13  F   UNL     1       5.147   2.604  -3.259  0.00  0.00    -0.166 F 
ATOM     14  F   UNL     1       6.510   0.863  -2.687  0.00  0.00    -0.166 F 
ENDBRANCH  10  11
BRANCH   8  15
ATOM     15  N   UNL     1       5.548  -0.243  -8.336  0.00  0.00    +0.056 N 
ATOM     16  O   UNL     1       4.965  -0.951  -9.125  0.00  0.00    -0.126 OA
ATOM     17  O   UNL     1       6.514   0.390  -8.691  0.00  0.00    -0.126 OA
ENDBRANCH   8  15
ENDBRANCH   3   5
BRANCH   1  18
ATOM     18  C   UNL     1       1.955   0.098  -1.296  0.00  0.00    +0.014 C 
ATOM     19  C   UNL     1       2.688  -0.866  -0.362  0.00  0.00    -0.004 C 
BRANCH  18  20
ATOM     20  N   UNL     1       0.512  -0.174  -1.245  0.00  0.00    +0.388 N 
ATOM     21  H   UNL     1       0.344  -1.146  -1.458  0.00  0.00    -0.084 HD
ATOM     22  H   UNL     1       0.036   0.405  -1.921  0.00  0.00    -0.084 HD
BRANCH  20  24
ATOM     23  C   UNL     1       0.144   1.626   0.374  0.00  0.00    -0.013 C 
ATOM     24  C   UNL     1       0.004   0.128   0.100  0.00  0.00    -0.071 C 
BRANCH  24  25
ATOM     25  C   UNL     1      -1.470  -0.272   0.191  0.00  0.00    -0.022 C 
ATOM     26  C   UNL     1      -1.613  -1.811   0.171  0.00  0.00    +0.005 C 
ATOM     27  C   UNL     1      -2.284  -2.161   1.535  0.00  0.00    -0.010 C 
ATOM     28  C   UNL     1      -1.178  -1.882   2.597  0.00  0.00    +0.004 C 
ATOM     29  C   UNL     1      -1.034  -0.343   2.617  0.00  0.00    +0.004 C 
ATOM     30  C   UNL     1      -2.067   0.163   1.564  0.00  0.00    -0.009 C 
ATOM     31  C   UNL     1      -3.204  -0.906   1.737  0.00  0.00    +0.007 C 
ENDBRANCH  24  25
ENDBRANCH  20  24
ENDBRANCH  18  20
ENDBRANCH   1  18
TORSDOF 7
