REMARK  Name = ZINC08646866
REMARK  7 active torsions:
REMARK  status: ('A' for Active; 'I' for Inactive)
REMARK    1  A    between atoms: C_5  and  C_7
REMARK    2  A    between atoms: C_10  and  S_13
REMARK    3  A    between atoms: N_11  and  N_12
REMARK    4  A    between atoms: S_13  and  C_14
REMARK    5  A    between atoms: C_14  and  C_15
REMARK    6  A    between atoms: N_17  and  C_18
REMARK    7  A    between atoms: C_23  and  N_24
REMARK                            x       y       z     vdW  Elec       q    Type
REMARK                         _______ _______ _______ _____ _____    ______ ____
ROOT
ATOM      1  C   UNL     1       1.564  -6.942  -0.037  0.00  0.00    +0.173 C 
ENDROOT
BRANCH   1   2
ATOM      2  C   UNL     1       2.182  -8.314  -0.124  0.00  0.00    +0.228 C 
ATOM      3  O   UNL     1       3.381  -8.432  -0.256  0.00  0.00    -0.275 OA
ATOM      4  N   UNL     1       1.400  -9.410  -0.055  0.00  0.00    -0.283 N 
ATOM      5  H   UNL     1       0.435  -9.317  -0.033  0.00  0.00    +0.155 HD
BRANCH   4   6
ATOM      6  C   UNL     1       1.982 -10.683  -0.015  0.00  0.00    +0.061 A 
ATOM      7  C   UNL     1       3.273 -10.843   0.468  0.00  0.00    +0.045 A 
ATOM      8  C   UNL     1       3.843 -12.101   0.510  0.00  0.00    +0.043 A 
ATOM      9  C   UNL     1       3.133 -13.203   0.063  0.00  0.00    +0.022 A 
ATOM     10  C   UNL     1       1.849 -13.050  -0.423  0.00  0.00    +0.031 A 
ATOM     11  C   UNL     1       1.267 -11.792  -0.465  0.00  0.00    +0.088 A 
ATOM     12 CL   UNL     1       5.456 -12.301   1.120  0.00  0.00    -0.083 Cl
BRANCH  11  13
ATOM     13  N   UNL     1      -0.036 -11.636  -0.959  0.00  0.00    -0.218 N 
ATOM     14  C   UNL     1      -0.878 -12.616  -1.339  0.00  0.00    +0.225 A 
ATOM     15  N   UNL     1      -1.995 -12.059  -1.735  0.00  0.00    -0.222 NA
ATOM     16  C   UNL     1      -1.901 -10.734  -1.633  0.00  0.00    +0.245 A 
ATOM     17  N   UNL     1      -0.720 -10.426  -1.163  0.00  0.00    -0.153 NA
ENDBRANCH  11  13
ENDBRANCH   4   6
ENDBRANCH   1   2
BRANCH   1  18
ATOM     18  S   UNL     1       2.863  -5.687  -0.159  0.00  0.00    -0.075 S 
BRANCH  18  22
ATOM     19  C   UNL     1       1.235  -2.143   0.070  0.00  0.00    +0.183 A 
ATOM     20  N   UNL     1       0.200  -2.943   0.177  0.00  0.00    -0.127 NA
ATOM     21  N   UNL     1       0.583  -4.168   0.111  0.00  0.00    -0.121 NA
ATOM     22  C   UNL     1       1.889  -4.225  -0.032  0.00  0.00    +0.209 A 
ATOM     23  N   UNL     1       2.349  -2.939  -0.063  0.00  0.00    -0.224 N 
BRANCH  19  28
ATOM     24  C   UNL     1       1.994   1.444  -0.746  0.00  0.00    +0.001 A 
ATOM     25  C   UNL     1       1.162   2.104   0.141  0.00  0.00    +0.001 A 
ATOM     26  C   UNL     1       0.354   1.388   1.006  0.00  0.00    +0.021 A 
ATOM     27  C   UNL     1       0.372   0.007   0.988  0.00  0.00    +0.052 A 
ATOM     28  C   UNL     1       1.209  -0.665   0.095  0.00  0.00    +0.039 A 
ATOM     29  C   UNL     1       2.022   0.065  -0.774  0.00  0.00    +0.013 A 
ATOM     30 CL   UNL     1      -0.643  -0.890   2.073  0.00  0.00    -0.083 Cl
ENDBRANCH  19  28
BRANCH  23  31
ATOM     31  N   UNL     1       3.645  -2.530  -0.198  0.00  0.00    -0.295 N 
ATOM     32  H   UNL     1       4.114  -2.514   0.695  0.00  0.00    +0.163 HD
ATOM     33  H   UNL     1       4.141  -3.111  -0.857  0.00  0.00    +0.163 HD
ENDBRANCH  23  31
ENDBRANCH  18  22
ENDBRANCH   1  18
TORSDOF 7
