REMARK  Name = ZINC09318002
REMARK  8 active torsions:
REMARK  status: ('A' for Active; 'I' for Inactive)
REMARK    1  A    between atoms: C_1  and  C_2
REMARK    2  A    between atoms: C_2  and  O_3
REMARK    3  A    between atoms: O_3  and  C_4
REMARK    4  A    between atoms: C_4  and  C_6
REMARK    5  A    between atoms: C_10  and  N_11
REMARK    6  A    between atoms: C_12  and  C_14
REMARK    7  A    between atoms: C_20  and  C_29
REMARK    8  A    between atoms: C_23  and  C_25
REMARK                            x       y       z     vdW  Elec       q    Type
REMARK                         _______ _______ _______ _____ _____    ______ ____
ROOT
ATOM      1  C   UNL     1      -3.321  -2.670   4.915  0.00  0.00    +0.096 A 
ATOM      2  C   UNL     1      -2.067  -2.128   5.297  0.00  0.00    +0.149 A 
ATOM      3  N   UNL     1      -2.007  -2.117   6.601  0.00  0.00    -0.177 NA
ATOM      4  N   UNL     1      -3.191  -2.638   7.119  0.00  0.00    -0.238 N 
ATOM      5  C   UNL     1      -3.996  -2.972   6.083  0.00  0.00    +0.130 A 
ATOM      6  N   UNL     1      -5.256  -3.519   6.255  0.00  0.00    -0.322 N 
ATOM      7  C   UNL     1      -5.582  -3.988   7.615  0.00  0.00    +0.104 C 
ATOM      8  C   UNL     1      -5.091  -2.941   8.622  0.00  0.00    +0.063 C 
ATOM      9  C   UNL     1      -3.563  -2.814   8.527  0.00  0.00    +0.215 C 
ATOM     10  H   UNL     1      -5.888  -3.589   5.523  0.00  0.00    +0.148 HD
ENDROOT
BRANCH   7  11
ATOM     11  C   UNL     1      -4.899  -5.306   7.874  0.00  0.00    -0.027 A 
ATOM     12  C   UNL     1      -3.605  -5.512   7.433  0.00  0.00    +0.005 A 
ATOM     13  C   UNL     1      -2.978  -6.721   7.670  0.00  0.00    +0.000 A 
ATOM     14  C   UNL     1      -3.644  -7.723   8.350  0.00  0.00    +0.000 A 
ATOM     15  C   UNL     1      -4.938  -7.517   8.792  0.00  0.00    +0.000 A 
ATOM     16  C   UNL     1      -5.563  -6.307   8.558  0.00  0.00    +0.005 A 
ENDBRANCH   7  11
BRANCH   1  18
ATOM     17  N   UNL     1      -3.034  -2.523   2.498  0.00  0.00    -0.275 N 
ATOM     18  C   UNL     1      -3.809  -2.867   3.545  0.00  0.00    +0.253 C 
ATOM     19  O   UNL     1      -4.914  -3.340   3.355  0.00  0.00    -0.270 OA
ATOM     20  H   UNL     1      -2.153  -2.146   2.649  0.00  0.00    +0.156 HD
BRANCH  17  25
ATOM     21  C   UNL     1      -2.842  -2.416   0.016  0.00  0.00    +0.091 A 
ATOM     22  C   UNL     1      -3.548  -2.714  -1.219  0.00  0.00    -0.021 A 
ATOM     23  C   UNL     1      -4.777  -3.243  -1.039  0.00  0.00    -0.004 A 
ATOM     24  S   UNL     1      -4.974  -3.336   0.716  0.00  0.00    -0.077 S 
ATOM     25  C   UNL     1      -3.495  -2.708   1.205  0.00  0.00    +0.087 A 
ATOM     26  C   UNL     1      -5.745  -3.652  -2.106  0.00  0.00    +0.043 C 
ATOM     27  C   UNL     1      -5.287  -3.033  -3.435  0.00  0.00    +0.005 C 
ATOM     28  C   UNL     1      -3.790  -3.299  -3.616  0.00  0.00    +0.005 C 
ATOM     29  C   UNL     1      -2.988  -2.468  -2.612  0.00  0.00    +0.037 C 
BRANCH  21  30
ATOM     30  C   UNL     1      -1.497  -1.838   0.006  0.00  0.00    +0.342 C 
ATOM     31  O   UNL     1      -0.522  -2.566  -0.007  0.00  0.00    -0.245 OA
BRANCH  30  32
ATOM     32  O   UNL     1      -1.339  -0.499   0.012  0.00  0.00    -0.461 OA
BRANCH  32  34
ATOM     33  C   UNL     1      -0.019   1.526   0.010  0.00  0.00    +0.048 C 
ATOM     34  C   UNL     1       0.002  -0.004   0.002  0.00  0.00    +0.229 C 
ENDBRANCH  32  34
ENDBRANCH  30  32
ENDBRANCH  21  30
ENDBRANCH  17  25
ENDBRANCH   1  18
BRANCH   9  35
ATOM     35  C   UNL     1      -3.111  -1.594   9.333  0.00  0.00    +0.412 C 
ATOM     36  F   UNL     1      -3.731  -0.446   8.827  0.00  0.00    -0.168 F 
ATOM     37  F   UNL     1      -3.467  -1.764  10.675  0.00  0.00    -0.168 F 
ATOM     38  F   UNL     1      -1.723  -1.457   9.232  0.00  0.00    -0.168 F 
ENDBRANCH   9  35
TORSDOF 7
