REMARK  Name = ZINC09222722
REMARK  6 active torsions:
REMARK  status: ('A' for Active; 'I' for Inactive)
REMARK    1  A    between atoms: C_4  and  C_7
REMARK    2  A    between atoms: C_7  and  N_8
REMARK    3  A    between atoms: C_9  and  N_35
REMARK    4  A    between atoms: C_10  and  N_17
REMARK    5  A    between atoms: N_17  and  C_18
REMARK    6  A    between atoms: C_23  and  C_25
REMARK                            x       y       z     vdW  Elec       q    Type
REMARK                         _______ _______ _______ _____ _____    ______ ____
ROOT
ATOM      1  N   UNL     1      -9.462   3.356  -0.452  0.00  0.00    -0.276 N 
ATOM      2  C   UNL     1      -8.130   3.090  -0.670  0.00  0.00    +0.128 A 
ATOM      3  C   UNL     1      -7.365   2.587   0.362  0.00  0.00    +0.140 A 
ATOM      4  C   UNL     1      -7.975   2.356   1.610  0.00  0.00    +0.277 A 
ATOM      5  O   UNL     1      -7.323   1.908   2.538  0.00  0.00    -0.266 OA
ATOM      6  N   UNL     1      -9.282   2.638   1.772  0.00  0.00    -0.273 N 
ATOM      7  H   UNL     1      -9.715   2.481   2.660  0.00  0.00    +0.173 HD
ATOM      8  C   UNL     1     -10.012   3.128   0.755  0.00  0.00    +0.331 A 
ATOM      9  O   UNL     1     -11.191   3.369   0.928  0.00  0.00    -0.246 OA
ENDROOT
BRANCH   3  10
ATOM     10  N   UNL     1      -5.997   2.305   0.170  0.00  0.00    -0.257 N 
ATOM     11  C   UNL     1      -5.102   3.311   0.114  0.00  0.00    +0.258 C 
ATOM     12  O   UNL     1      -3.932   3.072  -0.123  0.00  0.00    -0.269 OA
BRANCH  11  13
ATOM     13  C   UNL     1      -5.539   4.696   0.338  0.00  0.00    +0.076 A 
ATOM     14  C   UNL     1      -4.819   5.842   0.212  0.00  0.00    +0.032 A 
ATOM     15  C   UNL     1      -5.424   7.084   0.475  0.00  0.00    +0.025 A 
ATOM     16  C   UNL     1      -4.844   8.379   0.400  0.00  0.00    +0.132 A 
ATOM     17  C   UNL     1      -5.585   9.493   0.693  0.00  0.00    +0.039 A 
ATOM     18  C   UNL     1      -6.919   9.398   1.071  0.00  0.00    +0.004 A 
ATOM     19  C   UNL     1      -7.516   8.157   1.154  0.00  0.00    +0.016 A 
ATOM     20  C   UNL     1      -6.782   7.025   0.868  0.00  0.00    +0.023 A 
ATOM     21  S   UNL     1      -7.145   5.287   0.843  0.00  0.00    -0.084 S 
ATOM     22  F   UNL     1      -3.550   8.512   0.036  0.00  0.00    -0.205 F 
ENDBRANCH  11  13
BRANCH  10  23
ATOM     23  C   UNL     1      -5.548   0.917   0.030  0.00  0.00    +0.082 C 
ATOM     24  C   UNL     1      -4.548   0.570   1.152  0.00  0.00    +0.023 C 
ATOM     25  C   UNL     1      -3.509  -0.350   0.462  0.00  0.00    +0.002 C 
ATOM     26  C   UNL     1      -3.366   0.287  -0.942  0.00  0.00    +0.002 C 
ATOM     27  C   UNL     1      -4.797   0.737  -1.301  0.00  0.00    +0.023 C 
ENDBRANCH  10  23
ENDBRANCH   3  10
BRANCH   2  28
ATOM     28  N   UNL     1      -7.568   3.323  -1.903  0.00  0.00    -0.343 N 
ATOM     29  H   UNL     1      -6.653   3.052  -2.078  0.00  0.00    +0.144 HD
ATOM     30  H   UNL     1      -8.085   3.759  -2.597  0.00  0.00    +0.144 HD
ENDBRANCH   2  28
BRANCH   1  31
ATOM     31  C   UNL     1     -10.286   3.889  -1.539  0.00  0.00    +0.163 C 
BRANCH  31  35
ATOM     32  C   UNL     1     -12.021   0.658  -3.729  0.00  0.00    +0.000 A 
ATOM     33  C   UNL     1     -12.690   1.197  -2.646  0.00  0.00    +0.000 A 
ATOM     34  C   UNL     1     -12.129   2.243  -1.937  0.00  0.00    +0.005 A 
ATOM     35  C   UNL     1     -10.898   2.749  -2.311  0.00  0.00    -0.028 A 
ATOM     36  C   UNL     1     -10.231   2.213  -3.397  0.00  0.00    +0.005 A 
ATOM     37  C   UNL     1     -10.790   1.164  -4.103  0.00  0.00    +0.000 A 
ENDBRANCH  31  35
ENDBRANCH   1  31
TORSDOF 6
