REMARK  Name = ZINC26603911
REMARK  8 active torsions:
REMARK  status: ('A' for Active; 'I' for Inactive)
REMARK    1  A    between atoms: C_2  and  C_3
REMARK    2  A    between atoms: C_3  and  S_4
REMARK    3  A    between atoms: S_4  and  C_5
REMARK    4  A    between atoms: C_10  and  N_11
REMARK    5  A    between atoms: C_12  and  C_14
REMARK    6  A    between atoms: C_14  and  N_15
REMARK    7  A    between atoms: C_19  and  C_21
REMARK    8  A    between atoms: N_23  and  C_24
REMARK                            x       y       z     vdW  Elec       q    Type
REMARK                         _______ _______ _______ _____ _____    ______ ____
ROOT
ATOM      1  N   UNL     1       3.040  -5.643   6.546  0.00  0.00    +0.393 N 
ATOM      2  C   UNL     1       3.164  -6.943   5.853  0.00  0.00    -0.077 C 
ATOM      3  C   UNL     1       2.976  -8.004   6.966  0.00  0.00    -0.020 C 
ATOM      4  C   UNL     1       1.891  -7.338   7.853  0.00  0.00    -0.008 C 
ATOM      5  C   UNL     1       2.249  -5.840   7.775  0.00  0.00    +0.020 C 
ATOM      6  H   UNL     1       3.958  -5.298   6.784  0.00  0.00    -0.080 HD
ENDROOT
BRANCH   5   7
ATOM      7  C   UNL     1       3.066  -5.444   8.978  0.00  0.00    +0.204 C 
ATOM      8  O   UNL     1       4.199  -5.036   8.835  0.00  0.00    -0.277 OA
ATOM      9  N   UNL     1       2.537  -5.543  10.214  0.00  0.00    -0.286 N 
ATOM     10  H   UNL     1       1.655  -5.930  10.334  0.00  0.00    +0.155 HD
BRANCH   9  11
ATOM     11  C   UNL     1       3.259  -5.089  11.323  0.00  0.00    +0.053 A 
ATOM     12  C   UNL     1       4.642  -5.213  11.351  0.00  0.00    +0.044 A 
ATOM     13  C   UNL     1       5.352  -4.762  12.448  0.00  0.00    +0.043 A 
ATOM     14  C   UNL     1       4.687  -4.188  13.517  0.00  0.00    +0.021 A 
ATOM     15  C   UNL     1       3.310  -4.064  13.492  0.00  0.00    +0.023 A 
ATOM     16  C   UNL     1       2.595  -4.507  12.396  0.00  0.00    +0.062 A 
ATOM     17 CL   UNL     1       0.867  -4.344  12.363  0.00  0.00    -0.082 Cl
ATOM     18 CL   UNL     1       7.081  -4.917  12.484  0.00  0.00    -0.083 Cl
ENDBRANCH   9  11
ENDBRANCH   5   7
BRANCH   1  19
ATOM     19  C   UNL     1       2.360  -4.679   5.670  0.00  0.00    +0.020 C 
BRANCH  19  21
ATOM     20  N   UNL     1       2.807  -3.526   3.528  0.00  0.00    -0.286 N 
ATOM     21  C   UNL     1       3.229  -4.388   4.473  0.00  0.00    +0.201 C 
ATOM     22  O   UNL     1       4.308  -4.931   4.361  0.00  0.00    -0.278 OA
ATOM     23  H   UNL     1       1.974  -3.043   3.648  0.00  0.00    +0.155 HD
BRANCH  20  29
ATOM     24  C   UNL     1       2.941  -3.089   1.148  0.00  0.00    +0.029 A 
ATOM     25  C   UNL     1       3.704  -2.887   0.006  0.00  0.00    +0.016 A 
ATOM     26  C   UNL     1       5.083  -2.927   0.081  0.00  0.00    +0.001 A 
ATOM     27  C   UNL     1       5.707  -3.168   1.292  0.00  0.00    +0.002 A 
ATOM     28  C   UNL     1       4.955  -3.370   2.434  0.00  0.00    +0.024 A 
ATOM     29  C   UNL     1       3.571  -3.326   2.370  0.00  0.00    +0.047 A 
BRANCH  24  30
ATOM     30  S   UNL     1       1.182  -3.039   1.056  0.00  0.00    -0.119 S 
BRANCH  30  31
ATOM     31  C   UNL     1       0.843  -2.709  -0.696  0.00  0.00    +0.101 C 
BRANCH  31  33
ATOM     32  C   UNL     1      -1.201  -1.515  -1.290  0.00  0.00    +0.005 C 
ATOM     33  C   UNL     1      -0.646  -2.640  -0.915  0.00  0.00    -0.024 C 
ENDBRANCH  31  33
ENDBRANCH  30  31
ENDBRANCH  24  30
ENDBRANCH  20  29
ENDBRANCH  19  21
ENDBRANCH   1  19
TORSDOF 8
