REMARK  Name = ZINC14507212
REMARK  15 active torsions:
REMARK  status: ('A' for Active; 'I' for Inactive)
REMARK    1  A    between atoms: C_1  and  C_2
REMARK    2  A    between atoms: C_5  and  C_34
REMARK    3  A    between atoms: C_6  and  O_8
REMARK    4  A    between atoms: O_8  and  C_9
REMARK    5  A    between atoms: C_9  and  C_10
REMARK    6  A    between atoms: N_12  and  C_13
REMARK    7  A    between atoms: N_12  and  C_20
REMARK    8  A    between atoms: C_13  and  C_14
REMARK    9  A    between atoms: C_21  and  N_33
REMARK   10  A    between atoms: N_22  and  C_29
REMARK   11  A    between atoms: C_29  and  C_30
REMARK   12  A    between atoms: C_30  and  O_31
REMARK   13  A    between atoms: O_31  and  C_32
REMARK   14  A    between atoms: C_34  and  C_35
REMARK   15  A    between atoms: C_34  and  C_36
REMARK                            x       y       z     vdW  Elec       q    Type
REMARK                         _______ _______ _______ _____ _____    ______ ____
ROOT
ATOM      1  C   UNL     1       2.446   5.006  -0.062  0.00  0.00    +0.258 C 
ATOM      2  O   UNL     1       1.418   5.648  -0.112  0.00  0.00    -0.271 OA
ATOM      3  N   UNL     1       2.398   3.665   0.079  0.00  0.00    -0.257 N 
ENDROOT
BRANCH   3   4
ATOM      4  C   UNL     1       1.155   2.998   0.068  0.00  0.00    +0.140 A 
ATOM      5  C   UNL     1       0.698   2.345   1.194  0.00  0.00    +0.127 A 
ATOM      6  N   UNL     1      -0.518   1.704   1.152  0.00  0.00    -0.278 N 
ATOM      7  C   UNL     1      -1.257   1.719   0.028  0.00  0.00    +0.331 A 
ATOM      8  O   UNL     1      -2.332   1.150   0.012  0.00  0.00    -0.246 OA
ATOM      9  N   UNL     1      -0.826   2.345  -1.081  0.00  0.00    -0.273 N 
ATOM     10  H   UNL     1      -1.390   2.334  -1.907  0.00  0.00    +0.173 HD
ATOM     11  C   UNL     1       0.358   2.989  -1.093  0.00  0.00    +0.277 A 
ATOM     12  O   UNL     1       0.738   3.558  -2.102  0.00  0.00    -0.266 OA
BRANCH   5  13
ATOM     13  N   UNL     1       1.450   2.334   2.345  0.00  0.00    -0.343 N 
ATOM     14  H   UNL     1       2.258   2.868   2.401  0.00  0.00    +0.144 HD
ATOM     15  H   UNL     1       1.173   1.793   3.100  0.00  0.00    +0.144 HD
ENDBRANCH   5  13
BRANCH   6  16
ATOM     16  C   UNL     1      -1.016   1.007   2.341  0.00  0.00    +0.156 C 
BRANCH  16  17
ATOM     17  C   UNL     1      -1.841   1.974   3.191  0.00  0.00    +0.181 C 
BRANCH  17  18
ATOM     18  O   UNL     1      -3.009   2.367   2.467  0.00  0.00    -0.381 OA
ATOM     19  C   UNL     1      -3.854   3.275   3.176  0.00  0.00    +0.194 C 
ENDBRANCH  17  18
ENDBRANCH  16  17
ENDBRANCH   6  16
ENDBRANCH   3   4
BRANCH   1  20
ATOM     20  C   UNL     1       3.777   5.706  -0.159  0.00  0.00    +0.325 C 
BRANCH  20  21
ATOM     21  O   UNL     1       3.572   7.120  -0.175  0.00  0.00    -0.482 OA
BRANCH  21  27
ATOM     22  C   UNL     1       8.429   7.492  -0.483  0.00  0.00    +0.044 C 
ATOM     23  C   UNL     1       7.061   8.122  -0.411  0.00  0.00    -0.047 A 
ATOM     24  C   UNL     1       6.933   9.498  -0.431  0.00  0.00    +0.004 A 
ATOM     25  C   UNL     1       5.680  10.079  -0.365  0.00  0.00    +0.008 A 
ATOM     26  C   UNL     1       4.553   9.285  -0.279  0.00  0.00    -0.003 A 
ATOM     27  C   UNL     1       4.679   7.903  -0.259  0.00  0.00    +0.125 A 
ATOM     28  C   UNL     1       5.938   7.323  -0.320  0.00  0.00    +0.049 A 
BRANCH  26  29
ATOM     29  C   UNL     1       3.188   9.918  -0.208  0.00  0.00    +0.016 C 
ATOM     30  C   UNL     1       3.104  10.812   1.031  0.00  0.00    +0.012 C 
ATOM     31  C   UNL     1       2.950  10.762  -1.462  0.00  0.00    +0.012 C 
ENDBRANCH  26  29
ENDBRANCH  21  27
ENDBRANCH  20  21
ENDBRANCH   1  20
BRANCH   3  32
ATOM     32  C   UNL     1       3.637   2.901   0.245  0.00  0.00    +0.149 C 
BRANCH  32  33
ATOM     33  C   UNL     1       4.083   2.370  -1.093  0.00  0.00    -0.030 A 
ATOM     34  C   UNL     1       3.551   1.192  -1.582  0.00  0.00    +0.005 A 
ATOM     35  C   UNL     1       3.956   0.708  -2.812  0.00  0.00    +0.000 A 
ATOM     36  C   UNL     1       4.901   1.398  -3.549  0.00  0.00    +0.000 A 
ATOM     37  C   UNL     1       5.437   2.574  -3.057  0.00  0.00    +0.000 A 
ATOM     38  C   UNL     1       5.028   3.060  -1.830  0.00  0.00    +0.005 A 
ENDBRANCH  32  33
ENDBRANCH   3  32
TORSDOF 11
