REMARK  Name = ZINC67120807
REMARK  12 active torsions:
REMARK  status: ('A' for Active; 'I' for Inactive)
REMARK    1  A    between atoms: C_1  and  C_2
REMARK    2  A    between atoms: C_5  and  C_28
REMARK    3  A    between atoms: N_8  and  C_10
REMARK    4  A    between atoms: C_10  and  C_11
REMARK    5  A    between atoms: C_11  and  N_12
REMARK    6  A    between atoms: N_12  and  C_13
REMARK    7  A    between atoms: C_13  and  C_14
REMARK    8  A    between atoms: C_16  and  O_26
REMARK    9  A    between atoms: C_17  and  O_21
REMARK   10  A    between atoms: O_21  and  C_22
REMARK   11  A    between atoms: C_22  and  C_23
REMARK   12  A    between atoms: O_26  and  C_27
REMARK                            x       y       z     vdW  Elec       q    Type
REMARK                         _______ _______ _______ _____ _____    ______ ____
ROOT
ATOM      1  C   UNL     1       4.993  -0.021   6.102  0.00  0.00    -0.029 A 
ATOM      2  C   UNL     1       4.866   0.681   7.286  0.00  0.00    +0.054 A 
ATOM      3  C   UNL     1       5.549   0.262   8.417  0.00  0.00    +0.163 A 
ATOM      4  C   UNL     1       6.360  -0.867   8.358  0.00  0.00    +0.181 A 
ATOM      5  C   UNL     1       6.483  -1.567   7.168  0.00  0.00    +0.086 A 
ATOM      6  C   UNL     1       5.795  -1.145   6.044  0.00  0.00    +0.028 A 
ATOM      7 CL   UNL     1       7.495  -2.975   7.089  0.00  0.00    -0.080 Cl
ENDROOT
BRANCH   3   8
ATOM      8  O   UNL     1       5.426   0.952   9.582  0.00  0.00    -0.491 OA
ATOM      9  C   UNL     1       4.575   2.101   9.569  0.00  0.00    +0.277 C 
ENDBRANCH   3   8
BRANCH   1  10
ATOM     10  C   UNL     1       4.250   0.437   4.873  0.00  0.00    +0.116 C 
BRANCH  10  11
ATOM     11  N   UNL     1       2.929  -0.203   4.833  0.00  0.00    -0.314 NA
ATOM     12  H   UNL     1       2.410  -0.014   5.678  0.00  0.00    +0.122 HD
BRANCH  11  13
ATOM     13  C   UNL     1       2.174   0.221   3.646  0.00  0.00    +0.062 C 
BRANCH  13  14
ATOM     14  C   UNL     1       0.807  -0.464   3.639  0.00  0.00    -0.063 C 
BRANCH  14  20
ATOM     15  C   UNL     1      -0.019   1.526   0.010  0.00  0.00    +0.005 C 
ATOM     16  C   UNL     1       0.002  -0.004   0.002  0.00  0.00    -0.031 C 
ATOM     17  C   UNL     1      -1.434  -0.535   0.015  0.00  0.00    +0.003 C 
ATOM     18  C   UNL     1      -2.117  -0.099   1.315  0.00  0.00    -0.031 C 
ATOM     19  C   UNL     1      -1.302  -0.604   2.507  0.00  0.00    -0.076 C 
ATOM     20  N   UNL     1       0.052  -0.040   2.452  0.00  0.00    +0.381 N 
ATOM     21  C   UNL     1       0.740  -0.512   1.242  0.00  0.00    -0.076 C 
ATOM     22  C   UNL     1      -3.528  -0.689   1.373  0.00  0.00    +0.005 C 
ATOM     23  H   UNL     1      -0.004   0.967   2.434  0.00  0.00    -0.082 HD
ENDBRANCH  14  20
ENDBRANCH  13  14
ENDBRANCH  11  13
ENDBRANCH  10  11
ENDBRANCH   1  10
BRANCH   4  24
ATOM     24  O   UNL     1       7.032  -1.282   9.465  0.00  0.00    -0.478 OA
BRANCH  24  25
ATOM     25  C   UNL     1       6.362  -2.210  10.321  0.00  0.00    +0.324 C 
BRANCH  25  26
ATOM     26  C   UNL     1       7.254  -2.553  11.486  0.00  0.00    +0.248 C 
ATOM     27  O   UNL     1       8.355  -2.052  11.575  0.00  0.00    -0.272 OA
ATOM     28  N   UNL     1       6.828  -3.416  12.430  0.00  0.00    -0.327 N 
ATOM     29  H   UNL     1       5.948  -3.816  12.359  0.00  0.00    +0.145 HD
ATOM     30  H   UNL     1       7.402  -3.636  13.180  0.00  0.00    +0.145 HD
ENDBRANCH  25  26
ENDBRANCH  24  25
ENDBRANCH   4  24
TORSDOF 9
