REMARK  Name = ZINC39276655
REMARK  5 active torsions:
REMARK  status: ('A' for Active; 'I' for Inactive)
REMARK    1  A    between atoms: C_1  and  C_2
REMARK    2  A    between atoms: N_16  and  N_17
REMARK    3  A    between atoms: C_18  and  C_19
REMARK    4  A    between atoms: C_24  and  O_25
REMARK    5  A    between atoms: O_25  and  C_26
REMARK                            x       y       z     vdW  Elec       q    Type
REMARK                         _______ _______ _______ _____ _____    ______ ____
ROOT
ATOM      1  C   UNL     1      -3.164  -1.026   2.017  0.00  0.00    +0.046 C 
ATOM      2  C   UNL     1      -3.187  -2.366   2.706  0.00  0.00    -0.027 A 
ATOM      3  C   UNL     1      -3.740  -3.439   2.095  0.00  0.00    +0.005 A 
ATOM      4  C   UNL     1      -3.780  -4.698   2.710  0.00  0.00    +0.001 A 
ATOM      5  C   UNL     1      -3.244  -4.926   3.931  0.00  0.00    +0.012 A 
ATOM      6  C   UNL     1      -2.613  -3.883   4.645  0.00  0.00    +0.025 A 
ATOM      7  C   UNL     1      -1.892  -3.825   5.811  0.00  0.00    +0.115 C 
ATOM      8  C   UNL     1      -1.732  -2.339   6.112  0.00  0.00    +0.253 C 
ATOM      9  N   UNL     1      -2.051  -1.661   4.863  0.00  0.00    -0.358 N 
ATOM     10  C   UNL     1      -2.605  -2.523   4.044  0.00  0.00    +0.049 A 
ATOM     11  N   UNL     1      -0.348  -2.163   6.556  0.00  0.00    -0.220 NA
ATOM     12  C   UNL     1       0.252  -3.178   7.127  0.00  0.00    +0.227 C 
ATOM     13  N   UNL     1      -0.314  -4.399   7.279  0.00  0.00    -0.247 N 
ATOM     14  N   UNL     1      -1.364  -4.751   6.612  0.00  0.00    -0.171 NA
ATOM     15  N   UNL     1       1.535  -2.992   7.600  0.00  0.00    -0.206 N 
ATOM     16  H   UNL     1       1.974  -3.698   8.101  0.00  0.00    +0.177 HD
ATOM     17  H   UNL     1       0.085  -5.029   7.899  0.00  0.00    +0.192 HD
ATOM     18  H   UNL     1      -1.879  -0.727   4.667  0.00  0.00    +0.162 HD
ENDROOT
BRANCH  15  19
ATOM     19  N   UNL     1       2.204  -1.785   7.358  0.00  0.00    -0.187 NA
ATOM     20  C   UNL     1       3.455  -1.659   7.682  0.00  0.00    +0.142 C 
BRANCH  20  21
ATOM     21  C   UNL     1       4.307  -2.855   7.811  0.00  0.00    +0.038 A 
ATOM     22  C   UNL     1       3.928  -4.055   7.205  0.00  0.00    +0.028 A 
ATOM     23  C   UNL     1       4.730  -5.171   7.329  0.00  0.00    +0.020 A 
ATOM     24  C   UNL     1       5.910  -5.106   8.052  0.00  0.00    +0.034 A 
ATOM     25  C   UNL     1       6.295  -3.924   8.656  0.00  0.00    +0.061 A 
ATOM     26  C   UNL     1       5.503  -2.792   8.537  0.00  0.00    +0.143 A 
ATOM     27 BR   UNL     1       7.907  -3.848   9.642  0.00  0.00    -0.046 Br
ATOM     28 BR   UNL     1       4.217  -6.795   6.508  0.00  0.00    -0.050 Br
BRANCH  26  29
ATOM     29  O   UNL     1       5.884  -1.628   9.126  0.00  0.00    -0.493 OA
ATOM     30  C   UNL     1       5.344  -1.350  10.420  0.00  0.00    +0.277 C 
ENDBRANCH  26  29
ENDBRANCH  20  21
ENDBRANCH  15  19
TORSDOF 3
