REMARK  Name = ZINC39488103
REMARK  10 active torsions:
REMARK  status: ('A' for Active; 'I' for Inactive)
REMARK    1  A    between atoms: C_1  and  C_2
REMARK    2  A    between atoms: C_2  and  C_30
REMARK    3  A    between atoms: N_4  and  O_28
REMARK    4  A    between atoms: N_7  and  C_8
REMARK    5  A    between atoms: C_8  and  C_9
REMARK    6  A    between atoms: C_9  and  C_22
REMARK    7  A    between atoms: N_12  and  C_15
REMARK    8  A    between atoms: C_15  and  C_16
REMARK    9  A    between atoms: O_28  and  C_29
REMARK   10  A    between atoms: C_35  and  O_36
REMARK                            x       y       z     vdW  Elec       q    Type
REMARK                         _______ _______ _______ _____ _____    ______ ____
ROOT
ATOM      1  C   UNL     1       2.181   0.710   2.524  0.00  0.00    -0.014 C 
ATOM      2  C   UNL     1       1.317   1.772   1.836  0.00  0.00    -0.010 C 
ATOM      3  C   UNL     1      -0.120   1.259   1.727  0.00  0.00    -0.078 C 
ATOM      4  N   UNL     1      -0.651   0.990   3.069  0.00  0.00    +0.382 N 
ATOM      5  C   UNL     1       0.129  -0.077   3.707  0.00  0.00    -0.078 C 
ATOM      6  C   UNL     1       1.576   0.383   3.893  0.00  0.00    -0.010 C 
ATOM      7  H   UNL     1      -0.592   1.828   3.627  0.00  0.00    -0.081 HD
ENDROOT
BRANCH   1   8
ATOM      8  C   UNL     1       3.603   1.246   2.708  0.00  0.00    -0.003 C 
ATOM      9  C   UNL     1       4.399   0.284   3.593  0.00  0.00    +0.004 C 
ATOM     10  C   UNL     1       5.820   0.819   3.776  0.00  0.00    +0.000 C 
ATOM     11  C   UNL     1       5.765   2.196   4.440  0.00  0.00    +0.000 C 
ATOM     12  C   UNL     1       4.969   3.158   3.556  0.00  0.00    +0.000 C 
ATOM     13  C   UNL     1       3.547   2.623   3.372  0.00  0.00    +0.004 C 
ENDBRANCH   1   8
BRANCH   1  14
ATOM     14  C   UNL     1       2.218  -0.555   1.665  0.00  0.00    +0.117 C 
BRANCH  14  21
ATOM     15  C   UNL     1       5.097   0.141   0.559  0.00  0.00    +0.039 C 
ATOM     16  C   UNL     1       3.989  -0.536  -0.250  0.00  0.00    +0.083 C 
ATOM     17  C   UNL     1       3.931   0.041  -1.677  0.00  0.00    +0.172 C 
ATOM     18  N   UNL     1       2.584   0.626  -1.767  0.00  0.00    -0.163 N 
ATOM     19  C   UNL     1       1.945   0.437  -0.605  0.00  0.00    +0.329 C 
ATOM     20  O   UNL     1       0.809   0.823  -0.403  0.00  0.00    -0.250 OA
ATOM     21  N   UNL     1       2.669  -0.215   0.314  0.00  0.00    -0.272 N 
BRANCH  16  22
ATOM     22  C   UNL     1       4.199  -2.028  -0.288  0.00  0.00    +0.019 A 
ATOM     23  C   UNL     1       3.227  -2.876   0.206  0.00  0.00    +0.009 A 
ATOM     24  C   UNL     1       3.420  -4.245   0.172  0.00  0.00    +0.001 A 
ATOM     25  C   UNL     1       4.586  -4.768  -0.356  0.00  0.00    +0.004 A 
ATOM     26  C   UNL     1       5.561  -3.924  -0.851  0.00  0.00    +0.046 A 
ATOM     27  C   UNL     1       5.367  -2.550  -0.823  0.00  0.00    +0.122 A 
BRANCH  27  28
ATOM     28  O   UNL     1       6.322  -1.718  -1.315  0.00  0.00    -0.506 OA
ATOM     29  H   UNL     1       6.979  -1.444  -0.661  0.00  0.00    +0.292 HD
ENDBRANCH  27  28
ENDBRANCH  16  22
BRANCH  18  30
ATOM     30  O   UNL     1       2.049   1.285  -2.900  0.00  0.00    -0.279 OA
ATOM     31  C   UNL     1       1.365   0.418  -3.807  0.00  0.00    +0.227 C 
ENDBRANCH  18  30
ENDBRANCH  14  21
ENDBRANCH   1  14
BRANCH   4  32
ATOM     32  C   UNL     1      -2.055   0.573   2.964  0.00  0.00    -0.043 C 
BRANCH  32  33
ATOM     33  C   UNL     1      -2.644   0.440   4.345  0.00  0.00    -0.064 A 
ATOM     34  C   UNL     1      -2.571  -0.767   5.014  0.00  0.00    +0.002 A 
ATOM     35  C   UNL     1      -3.111  -0.889   6.281  0.00  0.00    +0.000 A 
ATOM     36  C   UNL     1      -3.724   0.197   6.878  0.00  0.00    +0.000 A 
ATOM     37  C   UNL     1      -3.796   1.404   6.209  0.00  0.00    +0.000 A 
ATOM     38  C   UNL     1      -3.252   1.527   4.944  0.00  0.00    +0.002 A 
ENDBRANCH  32  33
ENDBRANCH   4  32
TORSDOF 8
