REMARK  Name = ZINC15345987
REMARK  7 active torsions:
REMARK  status: ('A' for Active; 'I' for Inactive)
REMARK    1  A    between atoms: C_1  and  C_2
REMARK    2  A    between atoms: C_5  and  S_7
REMARK    3  A    between atoms: S_7  and  C_8
REMARK    4  A    between atoms: C_11  and  C_17
REMARK    5  A    between atoms: C_13  and  N_14
REMARK    6  A    between atoms: N_19  and  N_20
REMARK    7  A    between atoms: C_21  and  C_23
REMARK                            x       y       z     vdW  Elec       q    Type
REMARK                         _______ _______ _______ _____ _____    ______ ____
ROOT
ATOM      1  C   UNL     1      -1.444   3.048   5.883  0.00  0.00    +0.045 A 
ATOM      2  C   UNL     1      -2.675   2.957   5.239  0.00  0.00    +0.018 A 
ATOM      3  C   UNL     1      -3.821   3.301   5.896  0.00  0.00    +0.014 A 
ATOM      4  C   UNL     1      -3.761   3.758   7.216  0.00  0.00    +0.040 A 
ATOM      5  C   UNL     1      -2.526   3.856   7.864  0.00  0.00    +0.047 A 
ATOM      6  C   UNL     1      -1.375   3.502   7.198  0.00  0.00    +0.141 A 
ENDROOT
BRANCH   4   7
ATOM      7  C   UNL     1      -4.999   4.136   7.924  0.00  0.00    +0.260 C 
ATOM      8  O   UNL     1      -4.945   4.534   9.072  0.00  0.00    -0.269 OA
ATOM      9  N   UNL     1      -6.189   4.042   7.299  0.00  0.00    -0.230 N 
ATOM     10  H   UNL     1      -6.232   3.725   6.383  0.00  0.00    +0.173 HD
BRANCH   9  11
ATOM     11  N   UNL     1      -7.364   4.401   7.971  0.00  0.00    -0.230 N 
ATOM     12  C   UNL     1      -8.554   4.306   7.346  0.00  0.00    +0.261 C 
ATOM     13  O   UNL     1      -8.608   3.909   6.198  0.00  0.00    -0.269 OA
ATOM     14  H   UNL     1      -7.321   4.718   8.887  0.00  0.00    +0.173 HD
BRANCH  12  15
ATOM     15  C   UNL     1      -9.794   4.686   8.055  0.00  0.00    +0.052 A 
ATOM     16  C   UNL     1      -9.737   5.137   9.375  0.00  0.00    +0.014 A 
ATOM     17  C   UNL     1     -10.897   5.494  10.030  0.00  0.00    +0.001 A 
ATOM     18  C   UNL     1     -12.118   5.396   9.385  0.00  0.00    +0.001 A 
ATOM     19  C   UNL     1     -12.184   4.945   8.080  0.00  0.00    +0.016 A 
ATOM     20  C   UNL     1     -11.029   4.589   7.410  0.00  0.00    +0.030 A 
ATOM     21 BR   UNL     1     -11.120   3.971   5.625  0.00  0.00    -0.050 Br
ENDBRANCH  12  15
ENDBRANCH   9  11
ENDBRANCH   4   7
BRANCH   6  22
ATOM     22  N   UNL     1      -0.064   3.603   7.879  0.00  0.00    +0.058 N 
ATOM     23  O   UNL     1      -0.004   4.000   9.029  0.00  0.00    -0.126 OA
ATOM     24  O   UNL     1       0.954   3.289   7.289  0.00  0.00    -0.126 OA
ENDBRANCH   6  22
BRANCH   1  25
ATOM     25  S   UNL     1       0.030   2.594   5.031  0.00  0.00    -0.061 S 
BRANCH  25  30
ATOM     26  C   UNL     1       2.847  -1.770   5.754  0.00  0.00    +0.066 C 
ATOM     27  C   UNL     1       1.630  -0.923   6.024  0.00  0.00    +0.047 A 
ATOM     28  C   UNL     1       0.654  -1.357   6.857  0.00  0.00    +0.070 A 
ATOM     29  S   UNL     1      -0.481   0.021   6.786  0.00  0.00    -0.069 S 
ATOM     30  C   UNL     1       0.426   1.005   5.680  0.00  0.00    +0.139 A 
ATOM     31  N   UNL     1       1.489   0.256   5.450  0.00  0.00    -0.238 NA
ENDBRANCH  25  30
ENDBRANCH   1  25
TORSDOF 6
