REMARK  Name = ZINC39485079
REMARK  6 active torsions:
REMARK  status: ('A' for Active; 'I' for Inactive)
REMARK    1  A    between atoms: C_7  and  C_10
REMARK    2  A    between atoms: C_10  and  C_11
REMARK    3  A    between atoms: C_11  and  N_12
REMARK    4  A    between atoms: N_12  and  C_13
REMARK    5  A    between atoms: N_27  and  C_30
REMARK    6  A    between atoms: C_30  and  C_31
REMARK                            x       y       z     vdW  Elec       q    Type
REMARK                         _______ _______ _______ _____ _____    ______ ____
ROOT
ATOM      1  C   UNL     1      -5.039   5.559  -2.738  0.00  0.00    -0.067 C 
ATOM      2  C   UNL     1      -5.478   7.026  -2.721  0.00  0.00    -0.011 C 
ATOM      3  C   UNL     1      -5.338   7.620  -4.123  0.00  0.00    +0.031 C 
ATOM      4  C   UNL     1      -6.069   6.732  -5.122  0.00  0.00    -0.046 C 
ATOM      5  C   UNL     1      -6.357   5.452  -4.820  0.00  0.00    -0.014 C 
ATOM      6  C   UNL     1      -6.070   4.745  -3.531  0.00  0.00    +0.026 C 
ATOM      7  S   UNL     1      -7.111   4.732  -6.272  0.00  0.00    -0.102 S 
ATOM      8  C   UNL     1      -6.555   6.008  -7.477  0.00  0.00    +0.184 C 
ATOM      9  C   UNL     1      -6.547   7.167  -6.442  0.00  0.00    +0.137 C 
ATOM     10  C   UNL     1      -6.253   8.445  -7.099  0.00  0.00    +0.231 C 
ATOM     11  O   UNL     1      -5.565   9.303  -6.588  0.00  0.00    -0.274 OA
ATOM     12  N   UNL     1      -6.820   8.589  -8.341  0.00  0.00    -0.257 N 
ATOM     13  C   UNL     1      -7.679   7.612  -8.798  0.00  0.00    +0.186 C 
ATOM     14  N   UNL     1      -7.599   6.357  -8.439  0.00  0.00    -0.261 NA
ENDROOT
BRANCH   1  15
ATOM     15  N   UNL     1      -4.964   5.051  -1.362  0.00  0.00    +0.381 N 
ATOM     16  H   UNL     1      -5.886   5.054  -0.951  0.00  0.00    -0.086 HD
ATOM     17  H   UNL     1      -4.352   5.642  -0.818  0.00  0.00    -0.086 HD
BRANCH  15  18
ATOM     18  C   UNL     1      -4.437   3.680  -1.374  0.00  0.00    -0.077 C 
BRANCH  18  19
ATOM     19  C   UNL     1      -4.358   3.151   0.060  0.00  0.00    +0.018 C 
BRANCH  19  26
ATOM     20  C   UNL     1      -0.017   1.384   0.010  0.00  0.00    +0.001 A 
ATOM     21  C   UNL     1       0.002  -0.004   0.002  0.00  0.00    +0.002 A 
ATOM     22  C   UNL     1      -1.173  -0.723   0.009  0.00  0.00    +0.026 A 
ATOM     23  C   UNL     1      -2.392  -0.053   0.024  0.00  0.00    +0.047 A 
ATOM     24  N   UNL     1      -3.704  -0.472   0.034  0.00  0.00    -0.360 N 
ATOM     25  C   UNL     1      -4.539   0.612   0.047  0.00  0.00    +0.087 A 
ATOM     26  C   UNL     1      -3.818   1.744   0.047  0.00  0.00    -0.024 A 
ATOM     27  C   UNL     1      -2.406   1.353   0.032  0.00  0.00    +0.003 A 
ATOM     28  C   UNL     1      -1.203   2.062   0.030  0.00  0.00    +0.010 A 
ATOM     29  H   UNL     1      -3.993  -1.398   0.030  0.00  0.00    +0.165 HD
ENDBRANCH  19  26
ENDBRANCH  18  19
ENDBRANCH  15  18
ENDBRANCH   1  15
BRANCH  12  30
ATOM     30  C   UNL     1      -6.518   9.761  -9.167  0.00  0.00    +0.149 C 
BRANCH  30  31
ATOM     31  C   UNL     1      -5.318   9.471 -10.031  0.00  0.00    -0.027 A 
ATOM     32  C   UNL     1      -4.047   9.753  -9.565  0.00  0.00    +0.005 A 
ATOM     33  C   UNL     1      -2.945   9.487 -10.357  0.00  0.00    +0.003 A 
ATOM     34  C   UNL     1      -3.113   8.940 -11.615  0.00  0.00    +0.038 A 
ATOM     35  C   UNL     1      -4.385   8.657 -12.082  0.00  0.00    +0.124 A 
ATOM     36  C   UNL     1      -5.488   8.918 -11.286  0.00  0.00    +0.043 A 
ATOM     37  F   UNL     1      -4.551   8.123 -13.312  0.00  0.00    -0.205 F 
ENDBRANCH  30  31
ENDBRANCH  12  30
TORSDOF 6
