REMARK  Name = ZINC19832591
REMARK  8 active torsions:
REMARK  status: ('A' for Active; 'I' for Inactive)
REMARK    1  A    between atoms: C_1  and  C_2
REMARK    2  A    between atoms: C_2  and  C_12
REMARK    3  A    between atoms: C_4  and  O_11
REMARK    4  A    between atoms: C_7  and  C_9
REMARK    5  A    between atoms: C_7  and  C_10
REMARK    6  A    between atoms: C_12  and  N_13
REMARK    7  A    between atoms: N_13  and  C_14
REMARK    8  A    between atoms: N_22  and  C_25
REMARK                            x       y       z     vdW  Elec       q    Type
REMARK                         _______ _______ _______ _____ _____    ______ ____
ROOT
ATOM      1  C   UNL     1       0.643  -0.153  -3.677  0.00  0.00    +0.085 C 
ATOM      2  C   UNL     1      -0.059   0.218  -4.808  0.00  0.00    +0.113 C 
ATOM      3  C   UNL     1      -1.305   1.001  -4.717  0.00  0.00    +0.258 C 
ATOM      4  O   UNL     1      -1.750   1.344  -3.638  0.00  0.00    -0.270 OA
ATOM      5  N   UNL     1      -1.938   1.328  -5.863  0.00  0.00    -0.235 N 
ATOM      6  C   UNL     1      -1.458   0.957  -7.058  0.00  0.00    +0.320 C 
ATOM      7  O   UNL     1      -2.076   1.284  -8.053  0.00  0.00    -0.251 OA
ATOM      8  N   UNL     1      -0.333   0.246  -7.215  0.00  0.00    -0.190 N 
ATOM      9  C   UNL     1       0.407  -0.146  -6.157  0.00  0.00    +0.265 C 
ATOM     10  O   UNL     1       1.430  -0.786  -6.313  0.00  0.00    -0.269 OA
ATOM     11  H   UNL     1      -2.759   1.843  -5.821  0.00  0.00    +0.159 HD
ENDROOT
BRANCH   8  12
ATOM     12  C   UNL     1       0.088  -0.093  -8.508  0.00  0.00    +0.046 A 
ATOM     13  C   UNL     1       0.094  -1.421  -8.912  0.00  0.00    +0.025 A 
ATOM     14  C   UNL     1       0.509  -1.753 -10.187  0.00  0.00    +0.017 A 
ATOM     15  C   UNL     1       0.919  -0.762 -11.062  0.00  0.00    +0.018 A 
ATOM     16  C   UNL     1       0.915   0.562 -10.662  0.00  0.00    +0.017 A 
ATOM     17  C   UNL     1       0.495   0.899  -9.390  0.00  0.00    +0.025 A 
ATOM     18 BR   UNL     1       1.488  -1.220 -12.806  0.00  0.00    -0.050 Br
ENDBRANCH   8  12
BRANCH   1  19
ATOM     19  N   UNL     1       0.124   0.079  -2.454  0.00  0.00    -0.348 N 
ATOM     20  H   UNL     1      -0.707   0.571  -2.366  0.00  0.00    +0.146 HD
BRANCH  19  21
ATOM     21  C   UNL     1       0.815  -0.413  -1.260  0.00  0.00    +0.107 C 
BRANCH  21  23
ATOM     22  C   UNL     1      -0.072   1.514   0.019  0.00  0.00    +0.013 C 
ATOM     23  C   UNL     1       0.014  -0.015  -0.001  0.00  0.00    -0.014 C 
ATOM     24  C   UNL     1      -1.381  -0.614  -0.133  0.00  0.00    +0.039 C 
ATOM     25  C   UNL     1      -2.165  -0.457   1.168  0.00  0.00    +0.116 C 
ATOM     26  C   UNL     1      -1.435  -1.210   2.278  0.00  0.00    +0.037 C 
ATOM     27  C   UNL     1      -0.041  -0.632   2.498  0.00  0.00    -0.032 C 
ATOM     28  C   UNL     1       0.761  -0.536   1.213  0.00  0.00    +0.014 C 
ATOM     29  C   UNL     1       0.711  -1.578   3.459  0.00  0.00    +0.011 C 
ATOM     30  C   UNL     1      -0.142   0.732   3.188  0.00  0.00    +0.011 C 
BRANCH  25  31
ATOM     31  O   UNL     1      -3.471  -1.021   1.000  0.00  0.00    -0.392 OA
ATOM     32  H   UNL     1      -4.031  -0.960   1.786  0.00  0.00    +0.210 HD
ENDBRANCH  25  31
ENDBRANCH  21  23
ENDBRANCH  19  21
ENDBRANCH   1  19
TORSDOF 5
