REMARK  Name = ZINC12238242
REMARK  5 active torsions:
REMARK  status: ('A' for Active; 'I' for Inactive)
REMARK    1  A    between atoms: C_3  and  C_6
REMARK    2  A    between atoms: C_7  and  C_12
REMARK    3  A    between atoms: C_12  and  C_13
REMARK    4  A    between atoms: C_20  and  C_22
REMARK    5  A    between atoms: C_22  and  N_55
REMARK                            x       y       z     vdW  Elec       q    Type
REMARK                         _______ _______ _______ _____ _____    ______ ____
ROOT
ATOM      1  C   UNL     1       1.669   0.509   1.806  0.00  0.00    +0.221 C 
ATOM      2  O   UNL     1       1.728   1.687   1.522  0.00  0.00    -0.275 OA
ATOM      3  N   UNL     1       0.753  -0.282   1.213  0.00  0.00    -0.300 N 
ATOM      4  C   UNL     1       0.594  -1.683   1.626  0.00  0.00    +0.108 C 
ATOM      5  C   UNL     1      -0.877  -1.930   1.975  0.00  0.00    +0.019 C 
ATOM      6  C   UNL     1      -1.754  -1.521   0.790  0.00  0.00    +0.003 C 
ATOM      7  C   UNL     1      -1.570  -0.028   0.507  0.00  0.00    +0.021 C 
ATOM      8  C   UNL     1      -0.106   0.241   0.141  0.00  0.00    +0.059 C 
ENDROOT
BRANCH   1   9
ATOM      9  C   UNL     1       2.619  -0.069   2.822  0.00  0.00    +0.140 C 
BRANCH   9  11
ATOM     10  C   UNL     1       3.598   1.832   4.304  0.00  0.00    +0.090 A 
ATOM     11  C   UNL     1       3.617   0.983   3.232  0.00  0.00    +0.028 A 
ATOM     12  S   UNL     1       5.148   1.470   2.448  0.00  0.00    -0.056 S 
ATOM     13  C   UNL     1       5.609   2.739   3.619  0.00  0.00    +0.156 A 
ATOM     14  N   UNL     1       4.604   2.689   4.474  0.00  0.00    -0.224 NA
ATOM     15  N   UNL     1       6.726   3.558   3.628  0.00  0.00    -0.337 N 
ATOM     16  H   UNL     1       7.390   3.480   2.925  0.00  0.00    +0.144 HD
ATOM     17  H   UNL     1       6.844   4.209   4.338  0.00  0.00    +0.144 HD
BRANCH  10  20
ATOM     18  C   UNL     1       1.307   1.916   7.318  0.00  0.00    +0.008 A 
ATOM     19  C   UNL     1       2.493   2.001   6.620  0.00  0.00    +0.018 A 
ATOM     20  C   UNL     1       2.476   1.796   5.267  0.00  0.00    +0.038 A 
ATOM     21  S   UNL     1       0.744   1.483   4.965  0.00  0.00    -0.095 S 
ATOM     22  C   UNL     1       0.163   1.634   6.646  0.00  0.00    +0.046 A 
ENDBRANCH  10  20
ENDBRANCH   9  11
ENDBRANCH   1   9
BRANCH   8  23
ATOM     23  C   UNL     1       0.117   1.747  -0.006  0.00  0.00    -0.056 C 
BRANCH  23  29
ATOM     24  C   UNL     1      -0.218   1.827  -2.403  0.00  0.00    -0.079 C 
ATOM     25  C   UNL     1      -1.195   2.257  -3.499  0.00  0.00    -0.019 C 
ATOM     26  C   UNL     1      -1.347   3.780  -3.471  0.00  0.00    -0.004 C 
ATOM     27  C   UNL     1      -1.830   4.212  -2.083  0.00  0.00    -0.019 C 
ATOM     28  C   UNL     1      -0.834   3.725  -1.028  0.00  0.00    -0.079 C 
ATOM     29  N   UNL     1      -0.752   2.250  -1.091  0.00  0.00    +0.381 N 
ATOM     30  H   UNL     1      -1.694   1.859  -0.972  0.00  0.00    -0.082 HD
ENDBRANCH  23  29
ENDBRANCH   8  23
TORSDOF 5
