REMARK  Name = ZINC13263793
REMARK  9 active torsions:
REMARK  status: ('A' for Active; 'I' for Inactive)
REMARK    1  A    between atoms: C_1  and  C_2
REMARK    2  A    between atoms: C_5  and  C_13
REMARK    3  A    between atoms: C_10  and  C_11
REMARK    4  A    between atoms: C_13  and  C_14
REMARK    5  A    between atoms: C_14  and  C_15
REMARK    6  A    between atoms: C_15  and  C_34
REMARK    7  A    between atoms: N_25  and  C_26
REMARK    8  A    between atoms: C_31  and  O_32
REMARK    9  A    between atoms: O_32  and  C_33
REMARK                            x       y       z     vdW  Elec       q    Type
REMARK                         _______ _______ _______ _____ _____    ______ ____
ROOT
ATOM      1  C   UNL     1      -0.019   1.526   0.010  0.00  0.00    +0.104 C 
ATOM      2  N   UNL     1      -0.722   2.009  -1.183  0.00  0.00    -0.323 N 
ATOM      3  C   UNL     1      -2.107   1.948  -1.218  0.00  0.00    +0.041 A 
ATOM      4  C   UNL     1      -2.804   1.819  -2.407  0.00  0.00    +0.024 A 
ATOM      5  C   UNL     1      -4.186   1.791  -2.391  0.00  0.00    +0.002 A 
ATOM      6  C   UNL     1      -4.878   1.895  -1.195  0.00  0.00    +0.001 A 
ATOM      7  C   UNL     1      -4.199   2.020  -0.001  0.00  0.00    +0.015 A 
ATOM      8  C   UNL     1      -2.807   2.036  -0.001  0.00  0.00    +0.058 A 
ATOM      9  C   UNL     1      -2.034   2.163   1.247  0.00  0.00    +0.254 C 
ATOM     10  O   UNL     1      -2.599   2.417   2.294  0.00  0.00    -0.270 OA
ATOM     11  N   UNL     1      -0.697   1.994   1.219  0.00  0.00    -0.242 N 
ATOM     12  C   UNL     1       1.418   2.052  -0.001  0.00  0.00    +0.053 C 
ATOM     13  H   UNL     1      -0.228   2.364  -1.939  0.00  0.00    +0.148 HD
ENDROOT
BRANCH  11  14
ATOM     14  C   UNL     1       0.056   2.274   2.366  0.00  0.00    +0.080 A 
ATOM     15  C   UNL     1       0.565   3.548   2.571  0.00  0.00    +0.027 A 
ATOM     16  C   UNL     1       1.307   3.821   3.704  0.00  0.00    +0.002 A 
ATOM     17  C   UNL     1       1.546   2.827   4.636  0.00  0.00    +0.004 A 
ATOM     18  C   UNL     1       1.042   1.555   4.438  0.00  0.00    +0.047 A 
ATOM     19  C   UNL     1       0.291   1.274   3.308  0.00  0.00    +0.141 A 
BRANCH  19  20
ATOM     20  O   UNL     1      -0.210   0.025   3.115  0.00  0.00    -0.493 OA
ATOM     21  C   UNL     1       0.072  -0.949   4.122  0.00  0.00    +0.277 C 
ENDBRANCH  19  20
ENDBRANCH  11  14
BRANCH   1  22
ATOM     22  C   UNL     1       0.002  -0.004   0.002  0.00  0.00    +0.050 C 
BRANCH  22  23
ATOM     23  C   UNL     1       0.825  -0.496  -1.190  0.00  0.00    +0.039 C 
BRANCH  23  28
ATOM     24  C   UNL     1       3.952  -4.839   0.891  0.00  0.00    +0.048 C 
ATOM     25  C   UNL     1       2.727  -5.081   0.047  0.00  0.00    +0.010 A 
ATOM     26  C   UNL     1       1.850  -4.069  -0.540  0.00  0.00    +0.024 A 
ATOM     27  C   UNL     1       1.835  -2.672  -0.536  0.00  0.00    +0.015 A 
ATOM     28  C   UNL     1       0.845  -2.003  -1.198  0.00  0.00    -0.046 A 
ATOM     29  C   UNL     1      -0.139  -2.702  -1.884  0.00  0.00    +0.007 A 
ATOM     30  C   UNL     1      -0.139  -4.080  -1.905  0.00  0.00    +0.047 A 
ATOM     31  C   UNL     1       0.855  -4.783  -1.234  0.00  0.00    +0.136 A 
ATOM     32  O   UNL     1       1.111  -6.096  -1.077  0.00  0.00    -0.448 OA
ATOM     33  C   UNL     1       2.215  -6.284  -0.323  0.00  0.00    +0.220 A 
BRANCH  33  34
ATOM     34  C   UNL     1       2.776  -7.590   0.043  0.00  0.00    +0.421 C 
ATOM     35  O   UNL     1       3.777  -7.651   0.730  0.00  0.00    -0.237 OA
ATOM     36  O   UNL     1       2.181  -8.723  -0.383  0.00  0.00    -0.237 OA
ENDBRANCH  33  34
ENDBRANCH  23  28
ENDBRANCH  22  23
ENDBRANCH   1  22
TORSDOF 6
