REMARK  Name = ZINC45258885
REMARK  7 active torsions:
REMARK  status: ('A' for Active; 'I' for Inactive)
REMARK    1  A    between atoms: C_4  and  O_23
REMARK    2  A    between atoms: C_6  and  O_7
REMARK    3  A    between atoms: O_7  and  C_8
REMARK    4  A    between atoms: C_8  and  C_9
REMARK    5  A    between atoms: C_13  and  C_18
REMARK    6  A    between atoms: O_23  and  C_24
REMARK    7  A    between atoms: C_26  and  C_31
REMARK                            x       y       z     vdW  Elec       q    Type
REMARK                         _______ _______ _______ _____ _____    ______ ____
ROOT
ATOM      1  O   UNL     1      -0.933  -0.610   1.434  0.00  0.00    -0.486 OA
ENDROOT
BRANCH   1   7
ATOM      2  C   UNL     1       0.152   1.446   0.930  0.00  0.00    +0.047 A 
ATOM      3  C   UNL     1       1.278   2.131   0.514  0.00  0.00    +0.027 A 
ATOM      4  C   UNL     1       2.430   1.438   0.190  0.00  0.00    +0.083 A 
ATOM      5  C   UNL     1       2.458   0.053   0.283  0.00  0.00    +0.150 A 
ATOM      6  C   UNL     1       1.329  -0.635   0.700  0.00  0.00    +0.093 A 
ATOM      7  C   UNL     1       0.175   0.062   1.024  0.00  0.00    +0.125 A 
ATOM      8 CL   UNL     1       3.843   2.301  -0.333  0.00  0.00    -0.080 Cl
BRANCH   5   9
ATOM      9  O   UNL     1       3.590  -0.628  -0.036  0.00  0.00    -0.454 OA
BRANCH   9  10
ATOM     10  C   UNL     1       3.568  -1.984   0.061  0.00  0.00    +0.131 A 
ATOM     11  C   UNL     1       3.192  -2.749  -1.030  0.00  0.00    +0.065 A 
ATOM     12  C   UNL     1       3.171  -4.141  -0.927  0.00  0.00    +0.057 A 
ATOM     13  C   UNL     1       3.530  -4.752   0.277  0.00  0.00    +0.039 A 
ATOM     14  C   UNL     1       3.903  -3.979   1.358  0.00  0.00    +0.046 A 
ATOM     15  C   UNL     1       3.928  -2.600   1.252  0.00  0.00    +0.066 A 
ATOM     16 CL   UNL     1       4.348  -4.740   2.853  0.00  0.00    -0.083 Cl
BRANCH  12  17
ATOM     17  C   UNL     1       2.783  -4.939  -2.051  0.00  0.00    +0.099 C 
ATOM     18  N   UNL     1       2.475  -5.572  -2.942  0.00  0.00    -0.191 NA
ENDBRANCH  12  17
ENDBRANCH   9  10
ENDBRANCH   5   9
ENDBRANCH   1   7
BRANCH   1  19
ATOM     19  C   UNL     1      -2.086   0.173   1.752  0.00  0.00    +0.288 C 
BRANCH  19  20
ATOM     20  C   UNL     1      -3.207  -0.737   2.184  0.00  0.00    +0.130 A 
ATOM     21  C   UNL     1      -4.214  -1.347   1.312  0.00  0.00    +0.067 A 
ATOM     22  C   UNL     1      -4.459  -1.306  -0.063  0.00  0.00    +0.017 A 
ATOM     23  C   UNL     1      -5.529  -2.026  -0.556  0.00  0.00    +0.032 A 
ATOM     24  C   UNL     1      -6.322  -2.763   0.326  0.00  0.00    +0.105 A 
ATOM     25  N   UNL     1      -6.066  -2.784   1.626  0.00  0.00    -0.207 NA
ATOM     26  C   UNL     1      -5.053  -2.112   2.145  0.00  0.00    +0.259 A 
ATOM     27  O   UNL     1      -4.590  -1.971   3.403  0.00  0.00    -0.334 OA
ATOM     28  N   UNL     1      -3.456  -1.128   3.396  0.00  0.00    -0.077 NA
BRANCH  24  29
ATOM     29  C   UNL     1      -7.471  -3.537  -0.202  0.00  0.00    +0.118 C 
ATOM     30  N   UNL     1      -7.782  -3.566  -1.485  0.00  0.00    -0.370 N 
ATOM     31  C   UNL     1      -8.965  -4.418  -1.679  0.00  0.00    +0.132 C 
ATOM     32  C   UNL     1      -9.301  -4.894  -0.251  0.00  0.00    +0.124 C 
ATOM     33  N   UNL     1      -8.263  -4.256   0.574  0.00  0.00    -0.327 N 
ATOM     34  H   UNL     1      -8.175  -4.348   1.536  0.00  0.00    +0.148 HD
ATOM     35  H   UNL     1      -7.305  -3.099  -2.189  0.00  0.00    +0.161 HD
ENDBRANCH  24  29
ENDBRANCH  19  20
ENDBRANCH   1  19
TORSDOF 7
