REMARK  Name = ZINC54065363
REMARK  6 active torsions:
REMARK  status: ('A' for Active; 'I' for Inactive)
REMARK    1  A    between atoms: C_1  and  C_2
REMARK    2  A    between atoms: C_7  and  C_8
REMARK    3  A    between atoms: C_8  and  C_10
REMARK    4  A    between atoms: C_8  and  N_11
REMARK    5  A    between atoms: N_17  and  C_20
REMARK    6  A    between atoms: C_20  and  C_21
REMARK                            x       y       z     vdW  Elec       q    Type
REMARK                         _______ _______ _______ _____ _____    ______ ____
ROOT
ATOM      1  N   UNL     1       1.212   1.121   4.747  0.00  0.00    -0.293 N 
ATOM      2  C   UNL     1       1.199  -0.221   4.623  0.00  0.00    +0.303 C 
ATOM      3  O   UNL     1       0.608  -0.740   3.696  0.00  0.00    -0.253 OA
ATOM      4  N   UNL     1       1.843  -0.988   5.525  0.00  0.00    -0.283 N 
ATOM      5  C   UNL     1       1.940  -2.444   5.346  0.00  0.00    +0.124 C 
ATOM      6  C   UNL     1       3.409  -2.856   5.490  0.00  0.00    +0.104 C 
ATOM      7  N   UNL     1       3.933  -2.350   6.766  0.00  0.00    -0.295 NA
ATOM      8  C   UNL     1       3.915  -0.882   6.805  0.00  0.00    +0.104 C 
ATOM      9  C   UNL     1       2.472  -0.389   6.712  0.00  0.00    +0.124 C 
ATOM     10  H   UNL     1       1.620   1.532   5.525  0.00  0.00    +0.151 HD
ENDROOT
BRANCH   1  11
ATOM     11  C   UNL     1       0.609   1.958   3.708  0.00  0.00    +0.102 C 
ATOM     12  C   UNL     1       1.627   2.199   2.592  0.00  0.00    +0.033 C 
BRANCH  11  19
ATOM     13  C   UNL     1      -1.510   3.496   2.484  0.00  0.00    +0.044 C 
ATOM     14  C   UNL     1      -0.818   4.015   3.719  0.00  0.00    -0.046 A 
ATOM     15  C   UNL     1      -1.201   5.224   4.269  0.00  0.00    +0.004 A 
ATOM     16  C   UNL     1      -0.567   5.700   5.401  0.00  0.00    +0.000 A 
ATOM     17  C   UNL     1       0.450   4.966   5.984  0.00  0.00    +0.000 A 
ATOM     18  C   UNL     1       0.832   3.757   5.434  0.00  0.00    +0.006 A 
ATOM     19  C   UNL     1       0.195   3.279   4.304  0.00  0.00    -0.025 A 
ENDBRANCH  11  19
ENDBRANCH   1  11
BRANCH   7  20
ATOM     20  C   UNL     1       5.285  -2.867   7.021  0.00  0.00    +0.127 C 
BRANCH  20  21
ATOM     21  C   UNL     1       5.691  -2.534   8.434  0.00  0.00    +0.004 A 
ATOM     22  C   UNL     1       5.515  -3.258   9.566  0.00  0.00    +0.012 A 
ATOM     23  C   UNL     1       5.976  -2.749  10.765  0.00  0.00    +0.008 A 
ATOM     24  C   UNL     1       6.590  -1.540  10.774  0.00  0.00    +0.045 A 
ATOM     25  S   UNL     1       6.537  -1.087   9.048  0.00  0.00    -0.100 S 
ENDBRANCH  20  21
ENDBRANCH   7  20
TORSDOF 4
