REMARK  Name = ZINC59516495
REMARK  6 active torsions:
REMARK  status: ('A' for Active; 'I' for Inactive)
REMARK    1  A    between atoms: C_3  and  O_21
REMARK    2  A    between atoms: C_4  and  N_11
REMARK    3  A    between atoms: C_6  and  C_7
REMARK    4  A    between atoms: C_12  and  C_13
REMARK    5  A    between atoms: C_18  and  O_19
REMARK    6  A    between atoms: O_21  and  C_22
REMARK                            x       y       z     vdW  Elec       q    Type
REMARK                         _______ _______ _______ _____ _____    ______ ____
ROOT
ATOM      1  C   UNL     1       0.304   1.022  -1.661  0.00  0.00    +0.016 A 
ATOM      2  C   UNL     1       1.331   1.846  -1.238  0.00  0.00    +0.049 A 
ATOM      3  C   UNL     1       2.418   1.312  -0.565  0.00  0.00    +0.154 A 
ATOM      4  C   UNL     1       2.471  -0.067  -0.316  0.00  0.00    +0.107 A 
ATOM      5  C   UNL     1       1.429  -0.888  -0.748  0.00  0.00    +0.043 A 
ATOM      6  C   UNL     1       0.354  -0.339  -1.417  0.00  0.00    +0.057 A 
ENDROOT
BRANCH   6   7
ATOM      7  C   UNL     1      -0.772  -1.226  -1.884  0.00  0.00    +0.417 C 
ATOM      8  F   UNL     1      -1.739  -0.450  -2.531  0.00  0.00    -0.166 F 
ATOM      9  F   UNL     1      -0.272  -2.185  -2.772  0.00  0.00    -0.166 F 
ATOM     10  F   UNL     1      -1.348  -1.867  -0.782  0.00  0.00    -0.166 F 
ENDBRANCH   6   7
BRANCH   4  11
ATOM     11  N   UNL     1       3.540  -0.605   0.347  0.00  0.00    -0.251 NA
ATOM     12  C   UNL     1       4.130  -1.669  -0.121  0.00  0.00    +0.123 C 
BRANCH  12  13
ATOM     13  C   UNL     1       5.216  -2.303   0.640  0.00  0.00    +0.036 A 
ATOM     14  C   UNL     1       5.856  -3.441   0.139  0.00  0.00    +0.028 A 
ATOM     15  C   UNL     1       6.874  -4.030   0.858  0.00  0.00    +0.019 A 
ATOM     16  C   UNL     1       7.266  -3.499   2.077  0.00  0.00    +0.019 A 
ATOM     17  C   UNL     1       6.642  -2.376   2.584  0.00  0.00    +0.047 A 
ATOM     18  C   UNL     1       5.621  -1.767   1.872  0.00  0.00    +0.125 A 
ATOM     19 BR   UNL     1       7.737  -5.570   0.180  0.00  0.00    -0.050 Br
BRANCH  18  20
ATOM     20  O   UNL     1       5.012  -0.659   2.367  0.00  0.00    -0.506 OA
ATOM     21  H   UNL     1       4.246  -0.849   2.926  0.00  0.00    +0.292 HD
ENDBRANCH  18  20
ENDBRANCH  12  13
ENDBRANCH   4  11
BRANCH   3  22
ATOM     22  O   UNL     1       3.427   2.120  -0.149  0.00  0.00    -0.454 OA
BRANCH  22  23
ATOM     23  C   UNL     1       3.283   3.460  -0.321  0.00  0.00    +0.130 A 
ATOM     24  C   UNL     1       2.671   4.225   0.662  0.00  0.00    +0.048 A 
ATOM     25  C   UNL     1       2.526   5.587   0.486  0.00  0.00    +0.025 A 
ATOM     26  C   UNL     1       2.990   6.190  -0.670  0.00  0.00    +0.059 A 
ATOM     27  C   UNL     1       3.601   5.429  -1.652  0.00  0.00    +0.063 A 
ATOM     28  C   UNL     1       3.753   4.066  -1.477  0.00  0.00    +0.067 A 
ATOM     29 CL   UNL     1       4.182   6.188  -3.102  0.00  0.00    -0.082 Cl
ATOM     30 CL   UNL     1       2.805   7.902  -0.889  0.00  0.00    -0.082 Cl
ENDBRANCH  22  23
ENDBRANCH   3  22
TORSDOF 6
