REMARK  Name = ZINC07880033
REMARK  5 active torsions:
REMARK  status: ('A' for Active; 'I' for Inactive)
REMARK    1  A    between atoms: C_6  and  C_26
REMARK    2  A    between atoms: C_10  and  C_11
REMARK    3  A    between atoms: C_10  and  N_53
REMARK    4  A    between atoms: N_13  and  C_14
REMARK    5  A    between atoms: C_15  and  C_23
REMARK                            x       y       z     vdW  Elec       q    Type
REMARK                         _______ _______ _______ _____ _____    ______ ____
ROOT
ATOM      1  C   UNL     1      -5.760   2.480   1.414  0.00  0.00    +0.201 C 
ATOM      2  O   UNL     1      -5.293   3.510   1.852  0.00  0.00    -0.278 OA
ATOM      3  N   UNL     1      -7.058   2.186   1.625  0.00  0.00    -0.281 N 
ATOM      4  H   UNL     1      -7.431   1.362   1.274  0.00  0.00    +0.155 HD
ENDROOT
BRANCH   3   5
ATOM      5  C   UNL     1      -7.860   3.061   2.341  0.00  0.00    +0.084 A 
ATOM      6  C   UNL     1      -9.207   2.938   2.653  0.00  0.00    +0.068 A 
ATOM      7  C   UNL     1      -9.817   4.005   3.427  0.00  0.00    -0.023 A 
ATOM      8  C   UNL     1      -8.992   5.023   3.754  0.00  0.00    -0.004 A 
ATOM      9  S   UNL     1      -7.426   4.578   3.058  0.00  0.00    -0.077 S 
ATOM     10  C   UNL     1      -9.339   6.253   4.535  0.00  0.00    +0.043 C 
ATOM     11  C   UNL     1     -10.869   6.372   4.594  0.00  0.00    +0.005 C 
ATOM     12  C   UNL     1     -11.454   5.015   4.996  0.00  0.00    +0.005 C 
ATOM     13  C   UNL     1     -11.280   4.014   3.853  0.00  0.00    +0.037 C 
BRANCH   6  14
ATOM     14  C   UNL     1      -9.983   1.772   2.221  0.00  0.00    +0.244 C 
ATOM     15  O   UNL     1     -10.053   0.789   2.936  0.00  0.00    -0.270 OA
ATOM     16  N   UNL     1     -10.620   1.788   1.034  0.00  0.00    -0.325 N 
ATOM     17  H   UNL     1     -10.564   2.572   0.464  0.00  0.00    +0.145 HD
ATOM     18  H   UNL     1     -11.134   1.017   0.748  0.00  0.00    +0.145 HD
ENDBRANCH   6  14
ENDBRANCH   3   5
BRANCH   1  19
ATOM     19  C   UNL     1      -4.888   1.529   0.635  0.00  0.00    +0.020 C 
BRANCH  19  28
ATOM     20  C   UNL     1      -0.021   0.959  -0.138  0.00  0.00    +0.010 A 
ATOM     21  C   UNL     1       1.170   1.599  -0.214  0.00  0.00    +0.045 A 
ATOM     22  S   UNL     1       0.671   3.314  -0.173  0.00  0.00    -0.101 S 
ATOM     23  C   UNL     1      -1.076   3.050  -0.059  0.00  0.00    -0.010 A 
ATOM     24  C   UNL     1      -1.202   1.693  -0.062  0.00  0.00    -0.051 A 
ATOM     25  C   UNL     1      -2.589   1.066   0.036  0.00  0.00    -0.033 C 
ATOM     26  C   UNL     1      -3.503   3.305  -0.255  0.00  0.00    -0.072 C 
ATOM     27  C   UNL     1      -2.184   4.049   0.016  0.00  0.00    +0.024 C 
ATOM     28  N   UNL     1      -3.520   2.081   0.581  0.00  0.00    +0.390 N 
ATOM     29  H   UNL     1      -3.222   2.326   1.533  0.00  0.00    -0.080 HD
BRANCH  25  30
ATOM     30  C   UNL     1      -2.553  -0.131   0.989  0.00  0.00    -0.020 C 
ATOM     31  C   UNL     1      -1.260  -0.373   1.770  0.00  0.00    +0.002 C 
ATOM     32  C   UNL     1      -1.642  -1.303   0.617  0.00  0.00    +0.002 C 
ENDBRANCH  25  30
ENDBRANCH  19  28
ENDBRANCH   1  19
TORSDOF 5
