REMARK  Name = ZINC35252123
REMARK  7 active torsions:
REMARK  status: ('A' for Active; 'I' for Inactive)
REMARK    1  A    between atoms: C_1  and  C_2
REMARK    2  A    between atoms: C_4  and  C_8
REMARK    3  A    between atoms: C_5  and  C_7
REMARK    4  A    between atoms: C_8  and  C_10
REMARK    5  A    between atoms: C_8  and  N_11
REMARK    6  A    between atoms: N_11  and  C_12
REMARK    7  A    between atoms: C_17  and  N_18
REMARK                            x       y       z     vdW  Elec       q    Type
REMARK                         _______ _______ _______ _____ _____    ______ ____
ROOT
ATOM      1  N   UNL     1      -2.943  -2.531  -1.072  0.00  0.00    -0.335 N 
ATOM      2  H   UNL     1      -3.061  -1.569  -1.064  0.00  0.00    +0.147 HD
ENDROOT
BRANCH   1   3
ATOM      3  C   UNL     1      -4.013  -3.363  -1.413  0.00  0.00    +0.058 A 
ATOM      4  C   UNL     1      -3.818  -4.732  -1.540  0.00  0.00    +0.026 A 
ATOM      5  C   UNL     1      -4.877  -5.551  -1.877  0.00  0.00    +0.017 A 
ATOM      6  C   UNL     1      -6.132  -5.009  -2.090  0.00  0.00    +0.020 A 
ATOM      7  C   UNL     1      -6.330  -3.646  -1.965  0.00  0.00    +0.050 A 
ATOM      8  C   UNL     1      -5.276  -2.822  -1.621  0.00  0.00    +0.148 A 
ATOM      9 BR   UNL     1      -7.580  -6.134  -2.552  0.00  0.00    -0.050 Br
BRANCH   8  10
ATOM     10  N   UNL     1      -5.489  -1.365  -1.481  0.00  0.00    +0.058 N 
ATOM     11  O   UNL     1      -4.913  -0.749  -0.615  0.00  0.00    -0.126 OA
ATOM     12  O   UNL     1      -6.241  -0.789  -2.233  0.00  0.00    -0.126 OA
ENDBRANCH   8  10
ENDBRANCH   1   3
BRANCH   1  13
ATOM     13  C   UNL     1      -1.645  -3.114  -0.726  0.00  0.00    +0.098 C 
ATOM     14  C   UNL     1      -1.633  -3.491   0.756  0.00  0.00    +0.033 C 
BRANCH  13  18
ATOM     15  C   UNL     1       0.123   1.628  -1.290  0.00  0.00    +0.051 C 
ATOM     16  C   UNL     1       0.170   0.123  -1.239  0.00  0.00    -0.013 A 
ATOM     17  C   UNL     1      -0.833  -0.755  -0.992  0.00  0.00    +0.016 A 
ATOM     18  C   UNL     1      -0.555  -2.109  -0.997  0.00  0.00    -0.017 A 
ATOM     19  C   UNL     1       0.712  -2.519  -1.248  0.00  0.00    -0.008 A 
ATOM     20  S   UNL     1       1.560  -0.968  -1.496  0.00  0.00    -0.098 S 
ATOM     21  C   UNL     1       1.262  -3.921  -1.309  0.00  0.00    +0.052 C 
ENDBRANCH  13  18
ENDBRANCH   1  13
TORSDOF 4
