REMARK  Name = ZINC49162187
REMARK  5 active torsions:
REMARK  status: ('A' for Active; 'I' for Inactive)
REMARK    1  A    between atoms: C_1  and  C_2
REMARK    2  A    between atoms: C_5  and  C_7
REMARK    3  A    between atoms: C_7  and  C_9
REMARK    4  A    between atoms: C_7  and  N_10
REMARK    5  A    between atoms: N_10  and  C_11
REMARK                            x       y       z     vdW  Elec       q    Type
REMARK                         _______ _______ _______ _____ _____    ______ ____
ROOT
ATOM      1  C   UNL     1       2.585  -5.529  -1.124  0.00  0.00    +0.050 C 
ATOM      2  C   UNL     1       3.855  -5.615  -1.938  0.00  0.00    -0.030 A 
ATOM      3  C   UNL     1       4.179  -5.208  -3.213  0.00  0.00    +0.004 A 
ATOM      4  C   UNL     1       5.454  -5.427  -3.704  0.00  0.00    +0.001 A 
ATOM      5  C   UNL     1       6.399  -6.053  -2.912  0.00  0.00    +0.017 A 
ATOM      6  C   UNL     1       6.077  -6.462  -1.634  0.00  0.00    +0.039 A 
ATOM      7  C   UNL     1       4.794  -6.245  -1.132  0.00  0.00    +0.049 A 
ATOM      8  N   UNL     1       4.233  -6.560   0.106  0.00  0.00    -0.285 N 
ATOM      9  C   UNL     1       2.945  -6.178   0.196  0.00  0.00    +0.208 C 
ATOM     10  O   UNL     1       2.211  -6.325   1.150  0.00  0.00    -0.277 OA
ATOM     11 BR   UNL     1       7.377  -7.319  -0.561  0.00  0.00    -0.048 Br
ATOM     12  H   UNL     1       4.715  -7.005   0.821  0.00  0.00    +0.155 HD
ENDROOT
BRANCH   1  13
ATOM     13  N   UNL     1       2.199  -4.126  -0.918  0.00  0.00    +0.394 N 
ATOM     14  H   UNL     1       2.063  -3.680  -1.813  0.00  0.00    -0.083 HD
ATOM     15  H   UNL     1       2.929  -3.647  -0.411  0.00  0.00    -0.083 HD
BRANCH  13  16
ATOM     16  C   UNL     1       0.950  -4.069  -0.148  0.00  0.00    -0.036 C 
ATOM     17  C   UNL     1       0.615  -2.612   0.174  0.00  0.00    -0.008 C 
BRANCH  16  22
ATOM     18  C   UNL     1      -2.830  -5.878  -3.961  0.00  0.00    +0.051 C 
ATOM     19  C   UNL     1      -1.967  -5.535  -2.774  0.00  0.00    -0.013 A 
ATOM     20  C   UNL     1      -2.103  -5.918  -1.481  0.00  0.00    +0.011 A 
ATOM     21  C   UNL     1      -1.181  -5.477  -0.550  0.00  0.00    +0.010 A 
ATOM     22  C   UNL     1      -0.168  -4.674  -0.959  0.00  0.00    -0.024 A 
ATOM     23  S   UNL     1      -0.496  -4.525  -2.707  0.00  0.00    -0.100 S 
ENDBRANCH  16  22
ENDBRANCH  13  16
ENDBRANCH   1  13
TORSDOF 3
