REMARK  Name = ZINC09808353
REMARK  7 active torsions:
REMARK  status: ('A' for Active; 'I' for Inactive)
REMARK    1  A    between atoms: C_3  and  C_6
REMARK    2  A    between atoms: C_11  and  O_33
REMARK    3  A    between atoms: C_12  and  C_14
REMARK    4  A    between atoms: C_14  and  C_16
REMARK    5  A    between atoms: C_14  and  N_53
REMARK    6  A    between atoms: C_19  and  N_22
REMARK    7  A    between atoms: C_27  and  C_30
REMARK                            x       y       z     vdW  Elec       q    Type
REMARK                         _______ _______ _______ _____ _____    ______ ____
ROOT
ATOM      1  C   UNL     1      -8.386   0.319   0.039  0.00  0.00    +0.005 C 
ENDROOT
BRANCH   1   8
ATOM      2  C   UNL     1      -2.449   0.879   0.279  0.00  0.00    +0.218 A 
ATOM      3  N   UNL     1      -2.957  -0.359   0.211  0.00  0.00    -0.197 NA
ATOM      4  C   UNL     1      -4.258  -0.288   0.171  0.00  0.00    +0.199 A 
ATOM      5  N   UNL     1      -4.651   1.022   0.202  0.00  0.00    -0.173 N 
ATOM      6  N   UNL     1      -3.435   1.750   0.273  0.00  0.00    -0.138 NA
ATOM      7  C   UNL     1      -6.002   1.271   0.160  0.00  0.00    +0.225 A 
ATOM      8  C   UNL     1      -6.880   0.264   0.093  0.00  0.00    +0.045 A 
ATOM      9  S   UNL     1      -5.804  -1.161   0.083  0.00  0.00    -0.050 S 
BRANCH   2  12
ATOM     10  C   UNL     1       1.206   1.074   0.416  0.00  0.00    +0.042 A 
ATOM     11  C   UNL     1       0.016   0.322   0.351  0.00  0.00    +0.053 A 
ATOM     12  C   UNL     1      -1.011   1.213   0.344  0.00  0.00    +0.173 A 
ATOM     13  O   UNL     1      -0.489   2.454   0.410  0.00  0.00    -0.460 OA
ATOM     14  C   UNL     1       0.851   2.373   0.450  0.00  0.00    +0.196 A 
ENDBRANCH   2  12
BRANCH   7  15
ATOM     15  O   UNL     1      -6.450   2.555   0.188  0.00  0.00    -0.492 OA
ATOM     16  H   UNL     1      -6.547   2.957  -0.686  0.00  0.00    +0.294 HD
ENDBRANCH   7  15
ENDBRANCH   1   8
BRANCH   1  22
ATOM     17  C   UNL     1      -8.272  -0.267  -2.307  0.00  0.00    -0.077 C 
ATOM     18  C   UNL     1      -8.685  -1.320  -3.337  0.00  0.00    -0.006 C 
ATOM     19  C   UNL     1     -10.212  -1.345  -3.450  0.00  0.00    +0.071 C 
ATOM     20  C   UNL     1     -10.813  -1.637  -2.072  0.00  0.00    -0.006 C 
ATOM     21  C   UNL     1     -10.338  -0.574  -1.079  0.00  0.00    -0.077 C 
ATOM     22  N   UNL     1      -8.863  -0.619  -0.998  0.00  0.00    +0.387 N 
ATOM     23  H   UNL     1      -8.571  -1.571  -0.746  0.00  0.00    -0.080 HD
BRANCH  19  24
ATOM     24  C   UNL     1     -10.630  -2.420  -4.420  0.00  0.00    +0.213 C 
ATOM     25  O   UNL     1     -11.338  -3.331  -4.047  0.00  0.00    -0.276 OA
ATOM     26  N   UNL     1     -10.216  -2.370  -5.701  0.00  0.00    -0.329 N 
ATOM     27  H   UNL     1      -9.649  -1.641  -6.000  0.00  0.00    +0.145 HD
ATOM     28  H   UNL     1     -10.484  -3.062  -6.326  0.00  0.00    +0.145 HD
ENDBRANCH  19  24
ENDBRANCH   1  22
BRANCH   1  29
ATOM     29  C   UNL     1      -8.951  -0.099   1.372  0.00  0.00    -0.056 A 
ATOM     30  C   UNL     1      -8.937  -1.431   1.742  0.00  0.00    +0.004 A 
ATOM     31  C   UNL     1      -9.451  -1.813   2.967  0.00  0.00    +0.033 A 
ATOM     32  C   UNL     1      -9.989  -0.866   3.817  0.00  0.00    +0.126 A 
ATOM     33  C   UNL     1     -10.009   0.465   3.445  0.00  0.00    +0.033 A 
ATOM     34  C   UNL     1      -9.490   0.849   2.222  0.00  0.00    +0.004 A 
BRANCH  32  35
ATOM     35  N   UNL     1     -10.545  -1.276   5.126  0.00  0.00    +0.056 N 
ATOM     36  O   UNL     1     -11.019  -0.441   5.875  0.00  0.00    -0.126 OA
ATOM     37  O   UNL     1     -10.527  -2.449   5.455  0.00  0.00    -0.126 OA
ENDBRANCH  32  35
ENDBRANCH   1  29
TORSDOF 7
