REMARK  Name = ZINC53234680
REMARK  4 active torsions:
REMARK  status: ('A' for Active; 'I' for Inactive)
REMARK    1  A    between atoms: C_3  and  N_25
REMARK    2  A    between atoms: C_6  and  N_7
REMARK    3  A    between atoms: C_8  and  C_10
REMARK    4  A    between atoms: N_14  and  C_17
REMARK                            x       y       z     vdW  Elec       q    Type
REMARK                         _______ _______ _______ _____ _____    ______ ____
ROOT
ATOM      1  N   UNL     1      -1.212  -0.758   0.026  0.00  0.00    -0.285 N 
ATOM      2  C   UNL     1      -1.275  -2.064   0.354  0.00  0.00    +0.229 C 
ATOM      3  O   UNL     1      -0.280  -2.642   0.738  0.00  0.00    -0.275 OA
ATOM      4  H   UNL     1      -2.021  -0.278  -0.209  0.00  0.00    +0.155 HD
ENDROOT
BRANCH   1  10
ATOM      5  C   UNL     1       1.178  -0.782  -0.327  0.00  0.00    +0.025 A 
ATOM      6  C   UNL     1       2.394  -0.129  -0.330  0.00  0.00    +0.025 A 
ATOM      7  C   UNL     1       2.462   1.214   0.017  0.00  0.00    +0.035 A 
ATOM      8  C   UNL     1       1.307   1.900   0.366  0.00  0.00    +0.025 A 
ATOM      9  C   UNL     1       0.091   1.247   0.370  0.00  0.00    +0.025 A 
ATOM     10  C   UNL     1       0.023  -0.096   0.023  0.00  0.00    +0.034 A 
BRANCH   7  11
ATOM     11  N   UNL     1       3.697   1.877   0.014  0.00  0.00    -0.270 N 
ATOM     12  C   UNL     1       4.622   1.575  -0.919  0.00  0.00    +0.301 C 
ATOM     13  O   UNL     1       4.419   0.669  -1.705  0.00  0.00    -0.253 OA
ATOM     14  N   UNL     1       5.771   2.276  -0.980  0.00  0.00    -0.313 N 
ATOM     15  H   UNL     1       3.886   2.553   0.683  0.00  0.00    +0.156 HD
ATOM     16  H   UNL     1       5.933   2.998  -0.353  0.00  0.00    +0.146 HD
ATOM     17  H   UNL     1       6.437   2.058  -1.651  0.00  0.00    +0.146 HD
ENDBRANCH   7  11
ENDBRANCH   1  10
BRANCH   2  18
ATOM     18  C   UNL     1      -2.582  -2.806   0.245  0.00  0.00    +0.163 C 
ATOM     19  C   UNL     1      -2.415  -4.269   0.718  0.00  0.00    +0.041 C 
ATOM     20  C   UNL     1      -3.766  -4.529   1.420  0.00  0.00    +0.115 C 
ATOM     21  N   UNL     1      -4.247  -3.209   1.844  0.00  0.00    -0.271 N 
ATOM     22  C   UNL     1      -3.604  -2.221   1.194  0.00  0.00    +0.232 C 
ATOM     23  O   UNL     1      -3.812  -1.035   1.346  0.00  0.00    -0.274 OA
BRANCH  21  24
ATOM     24  C   UNL     1      -5.248  -3.003   2.801  0.00  0.00    +0.039 A 
ATOM     25  C   UNL     1      -5.852  -4.089   3.421  0.00  0.00    +0.026 A 
ATOM     26  C   UNL     1      -6.839  -3.885   4.365  0.00  0.00    +0.043 A 
ATOM     27  C   UNL     1      -7.229  -2.599   4.694  0.00  0.00    +0.159 A 
ATOM     28  C   UNL     1      -6.629  -1.512   4.077  0.00  0.00    +0.160 A 
ATOM     29  C   UNL     1      -5.635  -1.712   3.136  0.00  0.00    +0.064 A 
ATOM     30  F   UNL     1      -7.010  -0.256   4.399  0.00  0.00    -0.202 F 
ATOM     31  F   UNL     1      -8.195  -2.402   5.617  0.00  0.00    -0.202 F 
ENDBRANCH  21  24
ENDBRANCH   2  18
TORSDOF 4
