REMARK  Name = ZINC40530367
REMARK  9 active torsions:
REMARK  status: ('A' for Active; 'I' for Inactive)
REMARK    1  A    between atoms: C_1  and  C_2
REMARK    2  A    between atoms: C_2  and  O_3
REMARK    3  A    between atoms: O_3  and  C_4
REMARK    4  A    between atoms: C_9  and  C_10
REMARK    5  A    between atoms: C_15  and  O_24
REMARK    6  A    between atoms: C_19  and  N_23
REMARK    7  A    between atoms: C_20  and  C_21
REMARK    8  A    between atoms: O_24  and  C_25
REMARK    9  A    between atoms: C_25  and  C_27
REMARK                            x       y       z     vdW  Elec       q    Type
REMARK                         _______ _______ _______ _____ _____    ______ ____
ROOT
ATOM      1  C   UNL     1       1.980  -1.449  -3.528  0.00  0.00    +0.101 C 
ATOM      2  C   UNL     1       3.466  -1.671  -3.629  0.00  0.00    +0.008 A 
ATOM      3  C   UNL     1       4.307  -1.081  -2.702  0.00  0.00    +0.012 A 
ATOM      4  C   UNL     1       5.672  -1.274  -2.780  0.00  0.00    +0.047 A 
ATOM      5  C   UNL     1       6.205  -2.061  -3.791  0.00  0.00    +0.135 A 
ATOM      6  C   UNL     1       5.366  -2.653  -4.720  0.00  0.00    +0.093 A 
ATOM      7  C   UNL     1       3.993  -2.459  -4.641  0.00  0.00    +0.138 A 
ATOM      8  O   UNL     1       3.185  -3.045  -5.559  0.00  0.00    -0.441 OA
ATOM      9  C   UNL     1       1.939  -2.581  -5.747  0.00  0.00    +0.199 C 
ATOM     10  C   UNL     1       1.313  -1.820  -4.823  0.00  0.00    +0.098 C 
ENDROOT
BRANCH   1  16
ATOM     11  C   UNL     1       0.783  -1.704  -1.340  0.00  0.00    +0.125 A 
ATOM     12  C   UNL     1       0.266  -2.491  -0.321  0.00  0.00    +0.046 A 
ATOM     13  C   UNL     1       0.394  -3.865  -0.379  0.00  0.00    +0.004 A 
ATOM     14  C   UNL     1       1.036  -4.457  -1.451  0.00  0.00    +0.001 A 
ATOM     15  C   UNL     1       1.553  -3.675  -2.467  0.00  0.00    +0.008 A 
ATOM     16  C   UNL     1       1.423  -2.300  -2.417  0.00  0.00    +0.007 A 
BRANCH  11  17
ATOM     17  O   UNL     1       0.658  -0.352  -1.286  0.00  0.00    -0.492 OA
BRANCH  17  19
ATOM     18  C   UNL     1      -0.055   1.717  -0.261  0.00  0.00    +0.048 C 
ATOM     19  C   UNL     1      -0.012   0.192  -0.147  0.00  0.00    +0.225 C 
ENDBRANCH  17  19
ENDBRANCH  11  17
ENDBRANCH   1  16
BRANCH   9  20
ATOM     20  N   UNL     1       1.283  -2.889  -6.913  0.00  0.00    -0.328 N 
ATOM     21  H   UNL     1       1.720  -3.435  -7.586  0.00  0.00    +0.145 HD
ATOM     22  H   UNL     1       0.382  -2.562  -7.064  0.00  0.00    +0.145 HD
ENDBRANCH   9  20
BRANCH  10  23
ATOM     23  C   UNL     1      -0.017  -1.359  -5.084  0.00  0.00    +0.101 C 
ATOM     24  N   UNL     1      -1.072  -0.992  -5.292  0.00  0.00    -0.191 NA
ENDBRANCH  10  23
BRANCH   5  25
ATOM     25  O   UNL     1       7.549  -2.251  -3.869  0.00  0.00    -0.422 OA
BRANCH  25  26
ATOM     26  C   UNL     1       8.209  -1.683  -4.897  0.00  0.00    +0.351 C 
ATOM     27  O   UNL     1       7.623  -0.940  -5.660  0.00  0.00    -0.244 OA
BRANCH  26  28
ATOM     28  C   UNL     1       9.640  -1.962  -5.097  0.00  0.00    +0.144 A 
ATOM     29  C   UNL     1      10.349  -1.387  -6.144  0.00  0.00    +0.033 A 
ATOM     30  C   UNL     1      11.717  -1.729  -6.290  0.00  0.00    +0.018 A 
ATOM     31  C   UNL     1      12.532  -1.035  -7.198  0.00  0.00    +0.011 A 
ATOM     32  C   UNL     1      13.857  -1.348  -7.297  0.00  0.00    +0.001 A 
ATOM     33  C   UNL     1      14.405  -2.354  -6.512  0.00  0.00    +0.004 A 
ATOM     34  C   UNL     1      13.619  -3.062  -5.628  0.00  0.00    +0.047 A 
ATOM     35  C   UNL     1      12.268  -2.767  -5.515  0.00  0.00    +0.139 A 
ATOM     36  O   UNL     1      11.476  -3.484  -4.681  0.00  0.00    -0.422 OA
ATOM     37  C   UNL     1      10.380  -2.858  -4.189  0.00  0.00    +0.351 A 
ATOM     38  O   UNL     1      10.016  -3.031  -3.041  0.00  0.00    -0.244 OA
ENDBRANCH  26  28
ENDBRANCH  25  26
ENDBRANCH   5  25
TORSDOF 8
