REMARK  Name = ZINC09345030
REMARK  8 active torsions:
REMARK  status: ('A' for Active; 'I' for Inactive)
REMARK    1  A    between atoms: C_1  and  C_2
REMARK    2  A    between atoms: C_9  and  O_27
REMARK    3  A    between atoms: C_10  and  C_13
REMARK    4  A    between atoms: C_14  and  C_15
REMARK    5  A    between atoms: C_14  and  C_17
REMARK    6  A    between atoms: N_19  and  C_20
REMARK    7  A    between atoms: C_20  and  C_21
REMARK    8  A    between atoms: O_27  and  C_28
REMARK                            x       y       z     vdW  Elec       q    Type
REMARK                         _______ _______ _______ _____ _____    ______ ____
ROOT
ATOM      1  C   UNL     1      11.463   8.669  -1.668  0.00  0.00    +0.047 C 
ATOM      2  C   UNL     1      10.925   7.367  -1.133  0.00  0.00    -0.007 A 
ATOM      3  C   UNL     1      11.767   6.460  -0.560  0.00  0.00    +0.008 A 
ATOM      4  C   UNL     1      11.252   5.255  -0.066  0.00  0.00    +0.019 A 
ATOM      5  C   UNL     1       9.928   4.995  -0.159  0.00  0.00    +0.096 A 
ATOM      6  N   UNL     1       9.079   5.896  -0.729  0.00  0.00    -0.267 N 
ATOM      7  C   UNL     1       9.552   7.080  -1.220  0.00  0.00    +0.147 A 
ATOM      8  N   UNL     1       8.736   7.975  -1.782  0.00  0.00    -0.194 NA
ATOM      9  C   UNL     1       7.437   7.759  -1.892  0.00  0.00    +0.235 A 
ATOM     10  C   UNL     1       6.886   6.550  -1.402  0.00  0.00    +0.103 A 
ATOM     11  C   UNL     1       7.761   5.607  -0.801  0.00  0.00    +0.269 A 
ATOM     12  O   UNL     1       7.332   4.555  -0.362  0.00  0.00    -0.266 OA
ENDROOT
BRANCH  10  13
ATOM     13  C   UNL     1       5.507   6.292  -1.504  0.00  0.00    +0.042 C 
ATOM     14  C   UNL     1       4.884   6.329  -2.744  0.00  0.00    +0.114 C 
BRANCH  14  15
ATOM     15  C   UNL     1       3.427   6.186  -2.836  0.00  0.00    +0.254 C 
ATOM     16  O   UNL     1       2.765   6.033  -1.826  0.00  0.00    -0.269 OA
ATOM     17  N   UNL     1       2.821   6.222  -4.040  0.00  0.00    -0.308 N 
ATOM     18  H   UNL     1       3.349   6.343  -4.845  0.00  0.00    +0.149 HD
BRANCH  17  19
ATOM     19  C   UNL     1       1.367   6.079  -4.133  0.00  0.00    +0.136 C 
BRANCH  19  20
ATOM     20  C   UNL     1       0.939   6.155  -5.599  0.00  0.00    +0.135 C 
ATOM     21  C   UNL     1      -0.599   6.006  -5.728  0.00  0.00    +0.035 C 
ATOM     22  C   UNL     1      -0.882   6.720  -7.072  0.00  0.00    +0.031 C 
ATOM     23  C   UNL     1       0.344   7.630  -7.282  0.00  0.00    +0.160 C 
ATOM     24  O   UNL     1       1.196   7.471  -6.136  0.00  0.00    -0.375 OA
ENDBRANCH  19  20
ENDBRANCH  17  19
ENDBRANCH  14  15
BRANCH  14  25
ATOM     25  C   UNL     1       5.663   6.508  -3.932  0.00  0.00    +0.104 C 
ATOM     26  N   UNL     1       6.280   6.650  -4.874  0.00  0.00    -0.191 NA
ENDBRANCH  14  25
ENDBRANCH  10  13
BRANCH   9  27
ATOM     27  O   UNL     1       6.640   8.686  -2.468  0.00  0.00    -0.437 OA
BRANCH  27  28
ATOM     28  C   UNL     1       7.226   9.792  -2.997  0.00  0.00    +0.130 A 
ATOM     29  C   UNL     1       7.105  11.017  -2.357  0.00  0.00    +0.047 A 
ATOM     30  C   UNL     1       7.706  12.139  -2.894  0.00  0.00    +0.019 A 
ATOM     31  C   UNL     1       8.419  12.043  -4.076  0.00  0.00    +0.018 A 
ATOM     32  C   UNL     1       8.537  10.824  -4.719  0.00  0.00    +0.019 A 
ATOM     33  C   UNL     1       7.942   9.699  -4.182  0.00  0.00    +0.047 A 
ATOM     34 BR   UNL     1       9.236  13.582  -4.812  0.00  0.00    -0.050 Br
ENDBRANCH  27  28
ENDBRANCH   9  27
TORSDOF 7
