REMARK  Name = ZINC63375491
REMARK  10 active torsions:
REMARK  status: ('A' for Active; 'I' for Inactive)
REMARK    1  A    between atoms: CB_1  and  CA_2
REMARK    2  A    between atoms: CA_2  and  C_4
REMARK    3  A    between atoms: CA_2  and  N_7
REMARK    4  A    between atoms: C_8  and  CA_10
REMARK    5  A    between atoms: CA_10  and  CB_12
REMARK    6  A    between atoms: CA_10  and  N_16
REMARK    7  A    between atoms: CB_12  and  CG_13
REMARK    8  A    between atoms: CG_13  and  CD1_14
REMARK    9  A    between atoms: CG_13  and  CD2_15
REMARK   10  A    between atoms: C_17  and  C_19
REMARK                            x       y       z     vdW  Elec       q    Type
REMARK                         _______ _______ _______ _____ _____    ______ ____
ROOT
ATOM      1  C   UNK A   0      -1.093  -1.021  -7.031  0.00  0.00    +0.167 C 
ATOM      2  C   UNK A   0      -2.474  -1.601  -6.668  0.00  0.00    +0.065 C 
ATOM      3  C   UNK A   0      -2.809  -2.632  -7.716  0.00  0.00    -0.034 C 
ATOM      4  C   UNK A   0      -3.900  -2.781  -8.463  0.00  0.00    -0.001 A 
ATOM      5  C   UNK A   0      -5.186  -2.065  -8.467  0.00  0.00    +0.010 A 
ATOM      6  C   UNK A   0      -6.095  -2.472  -9.392  0.00  0.00    +0.001 A 
ATOM      7  C   UNK A   0      -5.856  -3.506 -10.302  0.00  0.00    +0.002 A 
ATOM      8  C   UNK A   0      -4.705  -4.223 -10.364  0.00  0.00    +0.026 A 
ATOM      9  C   UNK A   0      -3.675  -3.891  -9.437  0.00  0.00    +0.043 A 
ATOM     10  N   UNK A   0      -2.499  -4.416  -9.263  0.00  0.00    -0.375 N 
ATOM     11  C   UNK A   0      -1.858  -3.747  -8.130  0.00  0.00    +0.131 C 
ATOM     12  C   UNK A   0      -0.535  -3.092  -8.523  0.00  0.00    +0.134 C 
ATOM     13  N   UNK A   0      -0.654  -1.638  -8.289  0.00  0.00    -0.276 N 
ATOM     14  C   UNK A   0      -0.311  -0.991  -9.419  0.00  0.00    +0.248 C 
ATOM     15  O   UNK A   0      -0.185   0.213  -9.521  0.00  0.00    -0.270 OA
ATOM     16  C   UNK A   0      -0.112  -1.952 -10.506  0.00  0.00    +0.042 A 
ATOM     17  C   UNK A   0      -0.241  -3.275  -9.976  0.00  0.00    -0.013 A 
ATOM     18  C   UNK A   0      -0.105  -4.405 -10.752  0.00  0.00    +0.006 A 
ATOM     19  C   UNK A   0       0.185  -4.214 -12.100  0.00  0.00    +0.000 A 
ATOM     20  C   UNK A   0       0.332  -2.953 -12.641  0.00  0.00    +0.001 A 
ATOM     21  C   UNK A   0       0.176  -1.753 -11.859  0.00  0.00    +0.013 A 
ATOM     22  H   UNK A   0      -2.112  -5.130  -9.793  0.00  0.00    +0.160 HD
ENDROOT
BRANCH   1  24
ATOM     23  N   LEU A   1      -0.316  -0.879  -4.687  0.00  0.00    -0.302 N 
ATOM     24  C   UNK A   0      -0.105  -1.336  -5.937  0.00  0.00    +0.235 C 
ATOM     25  O   UNK A   0       0.879  -2.001  -6.183  0.00  0.00    -0.274 OA
ATOM     26  H   LEU A   1      -1.137  -0.409  -4.474  0.00  0.00    +0.150 HD
BRANCH  23  27
ATOM     27  CA  LEU A   1       0.696  -1.093  -3.649  0.00  0.00    +0.159 C 
BRANCH  27  29
ATOM     28  N   LEU A   1       0.723  -1.399  -1.195  0.00  0.00    -0.301 N 
ATOM     29  C   LEU A   1       0.051  -0.993  -2.291  0.00  0.00    +0.234 C 
ATOM     30  O   LEU A   1      -1.071  -0.547  -2.184  0.00  0.00    -0.274 OA
ATOM     31  H   LEU A   1       1.602  -1.799  -1.285  0.00  0.00    +0.150 HD
BRANCH  28  33
ATOM     32  CB  LEU A   1       0.417   0.172   0.655  0.00  0.00    +0.040 C 
ATOM     33  CA  LEU A   1       0.124  -1.236   0.133  0.00  0.00    +0.183 C 
BRANCH  33  34
ATOM     34  C   LEU A   1       0.711  -2.254   1.076  0.00  0.00    +0.376 C 
ATOM     35  O   LEU A   1       0.223  -2.413   2.182  0.00  0.00    -0.244 OA
ATOM     36  OXT LEU A   1       1.675  -2.918   0.734  0.00  0.00    -0.244 OA
ENDBRANCH  33  34
ENDBRANCH  28  33
ENDBRANCH  27  29
BRANCH  27  37
ATOM     37  CB  LEU A   1       1.788  -0.029  -3.775  0.00  0.00    +0.034 C 
BRANCH  37  38
ATOM     38  CG  LEU A   1       2.863  -0.273  -2.714  0.00  0.00    -0.015 C 
ATOM     39  CD1 LEU A   1       3.583  -1.590  -3.011  0.00  0.00    +0.007 C 
ATOM     40  CD2 LEU A   1       3.873   0.877  -2.736  0.00  0.00    +0.007 C 
ENDBRANCH  37  38
ENDBRANCH  27  37
ENDBRANCH  23  27
ENDBRANCH   1  24
TORSDOF 7
