REMARK  Name = ZINC04555178
REMARK  8 active torsions:
REMARK  status: ('A' for Active; 'I' for Inactive)
REMARK    1  A    between atoms: C_1  and  C_2
REMARK    2  A    between atoms: C_5  and  C_8
REMARK    3  A    between atoms: C_8  and  N_9
REMARK    4  A    between atoms: C_16  and  C_19
REMARK    5  A    between atoms: C_16  and  O_30
REMARK    6  A    between atoms: C_19  and  C_21
REMARK    7  A    between atoms: C_19  and  C_22
REMARK    8  A    between atoms: C_22  and  C_24
REMARK                            x       y       z     vdW  Elec       q    Type
REMARK                         _______ _______ _______ _____ _____    ______ ____
ROOT
ATOM      1  N   UNL     1       3.174   0.434  -0.679  0.00  0.00    -0.264 N 
ATOM      2  C   UNL     1       3.197   0.453   0.716  0.00  0.00    +0.043 A 
ATOM      3  C   UNL     1       4.120  -0.071   1.620  0.00  0.00    +0.025 A 
ATOM      4  C   UNL     1       3.921   0.077   2.977  0.00  0.00    +0.022 A 
ATOM      5  C   UNL     1       2.806   0.745   3.452  0.00  0.00    +0.041 A 
ATOM      6  C   UNL     1       1.885   1.268   2.560  0.00  0.00    +0.028 A 
ATOM      7  C   UNL     1       2.082   1.121   1.206  0.00  0.00    +0.016 A 
ATOM      8  C   UNL     1       1.286   1.562  -0.002  0.00  0.00    +0.178 C 
ATOM      9  C   UNL     1       2.095   1.058  -1.179  0.00  0.00    +0.257 C 
ATOM     10  O   UNL     1       1.819   1.193  -2.352  0.00  0.00    -0.272 OA
ATOM     11 CL   UNL     1       2.563   0.926   5.162  0.00  0.00    -0.084 Cl
ENDROOT
BRANCH   8  12
ATOM     12  C   UNL     1       1.171   3.087  -0.040  0.00  0.00    +0.102 C 
ATOM     13  C   UNL     1       2.571   3.704  -0.067  0.00  0.00    +0.019 C 
BRANCH  12  14
ATOM     14  C   UNL     1       0.415   3.503  -1.276  0.00  0.00    +0.169 C 
ATOM     15  O   UNL     1       0.400   2.780  -2.249  0.00  0.00    -0.292 OA
BRANCH  14  16
ATOM     16  C   UNL     1      -0.305   4.786  -1.301  0.00  0.00    +0.018 A 
ATOM     17  C   UNL     1      -0.294   5.620  -0.178  0.00  0.00    +0.011 A 
ATOM     18  C   UNL     1      -0.967   6.823  -0.211  0.00  0.00    +0.001 A 
ATOM     19  C   UNL     1      -1.660   7.202  -1.348  0.00  0.00    +0.000 A 
ATOM     20  C   UNL     1      -1.680   6.379  -2.461  0.00  0.00    +0.001 A 
ATOM     21  C   UNL     1      -1.007   5.176  -2.446  0.00  0.00    +0.011 A 
ENDBRANCH  14  16
ENDBRANCH  12  14
ENDBRANCH   8  12
BRANCH   8  22
ATOM     22  O   UNL     1      -0.011   0.963   0.007  0.00  0.00    -0.374 OA
ATOM     23  H   UNL     1       0.002  -0.004   0.002  0.00  0.00    +0.211 HD
ENDBRANCH   8  22
BRANCH   1  24
ATOM     24  C   UNL     1       4.209  -0.194  -1.504  0.00  0.00    +0.148 C 
BRANCH  24  29
ATOM     25  C   UNL     1       2.807  -5.714  -2.481  0.00  0.00    +0.044 C 
ATOM     26  C   UNL     1       3.172  -4.275  -2.227  0.00  0.00    -0.050 A 
ATOM     27  C   UNL     1       2.749  -3.289  -3.099  0.00  0.00    +0.003 A 
ATOM     28  C   UNL     1       3.084  -1.969  -2.865  0.00  0.00    +0.005 A 
ATOM     29  C   UNL     1       3.843  -1.634  -1.759  0.00  0.00    -0.030 A 
ATOM     30  C   UNL     1       4.271  -2.620  -0.890  0.00  0.00    +0.005 A 
ATOM     31  C   UNL     1       3.932  -3.940  -1.121  0.00  0.00    +0.003 A 
ENDBRANCH  24  29
ENDBRANCH   1  24
TORSDOF 6
