REMARK  Name = ZINC09281385
REMARK  5 active torsions:
REMARK  status: ('A' for Active; 'I' for Inactive)
REMARK    1  A    between atoms: C_1  and  C_2
REMARK    2  A    between atoms: C_2  and  C_36
REMARK    3  A    between atoms: C_6  and  C_27
REMARK    4  A    between atoms: N_8  and  C_16
REMARK    5  A    between atoms: C_16  and  C_17
REMARK                            x       y       z     vdW  Elec       q    Type
REMARK                         _______ _______ _______ _____ _____    ______ ____
ROOT
ATOM      1  C   UNL     1       5.585   8.495  -4.687  0.00  0.00    +0.011 C 
ATOM      2  C   UNL     1       4.673   7.876  -5.749  0.00  0.00    -0.023 C 
ATOM      3  C   UNL     1       3.230   8.320  -5.515  0.00  0.00    +0.058 C 
ATOM      4  C   UNL     1       2.762   7.864  -4.145  0.00  0.00    +0.017 C 
ATOM      5  C   UNL     1       3.238   6.735  -3.594  0.00  0.00    +0.037 C 
ATOM      6  C   UNL     1       2.886   6.188  -2.229  0.00  0.00    +0.139 C 
ATOM      7  N   UNL     1       2.170   7.102  -1.370  0.00  0.00    -0.310 N 
ATOM      8  C   UNL     1       0.881   7.397  -1.796  0.00  0.00    +0.052 A 
ATOM      9  C   UNL     1      -0.223   6.914  -1.103  0.00  0.00    +0.025 A 
ATOM     10  C   UNL     1      -1.495   7.208  -1.559  0.00  0.00    +0.002 A 
ATOM     11  C   UNL     1      -1.673   7.976  -2.696  0.00  0.00    +0.002 A 
ATOM     12  C   UNL     1      -0.575   8.465  -3.384  0.00  0.00    +0.025 A 
ATOM     13  C   UNL     1       0.698   8.176  -2.920  0.00  0.00    +0.052 A 
ATOM     14  N   UNL     1       1.838   8.665  -3.553  0.00  0.00    -0.316 N 
ATOM     15  C   UNL     1       4.183   5.949  -4.296  0.00  0.00    +0.163 C 
ATOM     16  O   UNL     1       4.578   4.916  -3.792  0.00  0.00    -0.292 OA
ATOM     17  C   UNL     1       4.713   6.347  -5.641  0.00  0.00    +0.086 C 
ATOM     18  C   UNL     1       5.130   8.309  -7.143  0.00  0.00    +0.011 C 
ATOM     19  H   UNL     1       1.979   9.624  -3.572  0.00  0.00    +0.152 HD
ENDROOT
BRANCH   6  20
ATOM     20  C   UNL     1       4.162   5.785  -1.536  0.00  0.00    -0.023 A 
ATOM     21  C   UNL     1       4.429   4.448  -1.304  0.00  0.00    +0.006 A 
ATOM     22  C   UNL     1       5.601   4.078  -0.672  0.00  0.00    +0.000 A 
ATOM     23  C   UNL     1       6.501   5.044  -0.262  0.00  0.00    +0.000 A 
ATOM     24  C   UNL     1       6.231   6.381  -0.489  0.00  0.00    +0.000 A 
ATOM     25  C   UNL     1       5.061   6.751  -1.126  0.00  0.00    +0.006 A 
ENDBRANCH   6  20
BRANCH   7  26
ATOM     26  C   UNL     1       2.168   6.625   0.020  0.00  0.00    +0.180 C 
BRANCH  26  27
ATOM     27  C   UNL     1       1.743   7.745   0.934  0.00  0.00    +0.126 A 
ATOM     28  N   UNL     1       0.475   7.943   1.386  0.00  0.00    -0.341 N 
ATOM     29  H   UNL     1      -0.325   7.381   1.173  0.00  0.00    +0.167 HD
ATOM     30  C   UNL     1       0.497   9.064   2.192  0.00  0.00    +0.066 A 
ATOM     31  C   UNL     1      -0.466   9.749   2.921  0.00  0.00    +0.028 A 
ATOM     32  C   UNL     1      -0.107  10.868   3.643  0.00  0.00    +0.002 A 
ATOM     33  C   UNL     1       1.206  11.315   3.640  0.00  0.00    +0.002 A 
ATOM     34  C   UNL     1       2.167  10.650   2.934  0.00  0.00    +0.030 A 
ATOM     35  C   UNL     1       1.827   9.514   2.194  0.00  0.00    +0.089 A 
ATOM     36  N   UNL     1       2.534   8.663   1.407  0.00  0.00    -0.231 NA
ENDBRANCH  26  27
ENDBRANCH   7  26
TORSDOF 3
