REMARK  Name = ZINC39969403
REMARK  6 active torsions:
REMARK  status: ('A' for Active; 'I' for Inactive)
REMARK    1  A    between atoms: C_1  and  O_2
REMARK    2  A    between atoms: O_2  and  C_3
REMARK    3  A    between atoms: C_8  and  C_13
REMARK    4  A    between atoms: C_13  and  C_28
REMARK    5  A    between atoms: C_14  and  C_15
REMARK    6  A    between atoms: C_18  and  C_20
REMARK                            x       y       z     vdW  Elec       q    Type
REMARK                         _______ _______ _______ _____ _____    ______ ____
ROOT
ATOM      1  C   UNL     1       3.499  -4.651  -3.618  0.00  0.00    +0.075 C 
ATOM      2  C   UNL     1       3.749  -5.807  -4.283  0.00  0.00    +0.064 C 
ENDROOT
BRANCH   1   8
ATOM      3  C   UNL     1       1.272   0.375  -2.550  0.00  0.00    +0.122 A 
ATOM      4  C   UNL     1       1.504   0.568  -3.976  0.00  0.00    +0.048 A 
ATOM      5  C   UNL     1       1.809  -0.458  -4.792  0.00  0.00    +0.031 A 
ATOM      6  C   UNL     1       1.916  -1.819  -4.245  0.00  0.00    +0.061 A 
ATOM      7  N   UNL     1       2.191  -2.966  -4.798  0.00  0.00    -0.359 N 
ATOM      8  C   UNL     1       2.152  -3.986  -3.744  0.00  0.00    +0.216 C 
ATOM      9  N   UNL     1       1.818  -3.283  -2.499  0.00  0.00    -0.359 N 
ATOM     10  C   UNL     1       1.680  -2.018  -2.790  0.00  0.00    +0.064 A 
ATOM     11  C   UNL     1       1.357  -0.848  -1.971  0.00  0.00    +0.073 A 
ATOM     12  H   UNL     1       2.385  -3.118  -5.736  0.00  0.00    +0.162 HD
ATOM     13  H   UNL     1       1.718  -3.685  -1.622  0.00  0.00    +0.162 HD
BRANCH   3  15
ATOM     14  C   UNL     1       0.888   2.716  -2.437  0.00  0.00    +0.277 C 
ATOM     15  O   UNL     1       0.967   1.449  -1.780  0.00  0.00    -0.495 OA
ENDBRANCH   3  15
ENDBRANCH   1   8
BRANCH   2  16
ATOM     16  C   UNL     1       2.807  -6.307  -5.212  0.00  0.00    +0.130 A 
ATOM     17  C   UNL     1       2.876  -7.524  -5.863  0.00  0.00    +0.050 A 
ATOM     18  C   UNL     1       1.745  -7.608  -6.681  0.00  0.00    +0.050 A 
ATOM     19  C   UNL     1       1.034  -6.456  -6.503  0.00  0.00    +0.136 A 
ATOM     20  O   UNL     1       1.679  -5.683  -5.612  0.00  0.00    -0.455 OA
BRANCH  19  21
ATOM     21  C   UNL     1      -0.237  -6.118  -7.174  0.00  0.00    +0.019 A 
ATOM     22  C   UNL     1      -0.815  -7.016  -8.075  0.00  0.00    +0.013 A 
ATOM     23  C   UNL     1      -2.002  -6.695  -8.698  0.00  0.00    +0.017 A 
ATOM     24  C   UNL     1      -2.623  -5.485  -8.433  0.00  0.00    +0.036 A 
ATOM     25  C   UNL     1      -2.055  -4.590  -7.541  0.00  0.00    +0.056 A 
ATOM     26  C   UNL     1      -0.870  -4.902  -6.906  0.00  0.00    +0.032 A 
ATOM     27 CL   UNL     1      -2.840  -3.076  -7.215  0.00  0.00    -0.082 Cl
ATOM     28 BR   UNL     1      -4.250  -5.053  -9.293  0.00  0.00    -0.049 Br
ENDBRANCH  19  21
ENDBRANCH   2  16
BRANCH   1  29
ATOM     29  C   UNL     1       4.514  -4.063  -2.797  0.00  0.00    +0.099 C 
ATOM     30  N   UNL     1       5.319  -3.596  -2.145  0.00  0.00    -0.191 NA
ENDBRANCH   1  29
TORSDOF 5
