REMARK  Name = ZINC63853956
REMARK  5 active torsions:
REMARK  status: ('A' for Active; 'I' for Inactive)
REMARK    1  A    between atoms: C_8  and  C_33
REMARK    2  A    between atoms: C_12  and  C_14
REMARK    3  A    between atoms: C_14  and  C_15
REMARK    4  A    between atoms: C_15  and  C_16
REMARK    5  A    between atoms: C_24  and  C_26
REMARK                            x       y       z     vdW  Elec       q    Type
REMARK                         _______ _______ _______ _____ _____    ______ ____
ROOT
ATOM      1  C   UNL     1       0.319  -4.435  -0.717  0.00  0.00    +0.100 C 
ENDROOT
BRANCH   1  12
ATOM      2  C   UNL     1       0.674   1.457   2.580  0.00  0.00    +0.000 A 
ATOM      3  C   UNL     1       0.035   1.464   1.354  0.00  0.00    +0.000 A 
ATOM      4  C   UNL     1       0.221   0.413   0.480  0.00  0.00    +0.005 A 
ATOM      5  C   UNL     1       1.040  -0.654   0.825  0.00  0.00    -0.027 A 
ATOM      6  C   UNL     1       1.669  -0.667   2.050  0.00  0.00    -0.040 A 
ATOM      7  C   UNL     1       1.487   0.398   2.924  0.00  0.00    +0.004 A 
ATOM      8  C   UNL     1       2.547  -1.802   2.505  0.00  0.00    +0.067 C 
ATOM      9  C   UNL     1       3.035  -2.624   1.313  0.00  0.00    +0.166 C 
ATOM     10  N   UNL     1       1.875  -2.908   0.453  0.00  0.00    -0.285 N 
ATOM     11  C   UNL     1       1.211  -1.764  -0.182  0.00  0.00    +0.144 C 
ATOM     12  C   UNL     1       1.439  -4.168   0.256  0.00  0.00    +0.217 C 
ATOM     13  O   UNL     1       1.948  -5.087   0.861  0.00  0.00    -0.276 OA
BRANCH   9  14
ATOM     14  C   UNL     1       3.639  -3.917   1.798  0.00  0.00    +0.231 C 
ATOM     15  O   UNL     1       4.676  -4.320   1.317  0.00  0.00    -0.274 OA
ATOM     16  N   UNL     1       3.026  -4.625   2.768  0.00  0.00    -0.328 N 
ATOM     17  H   UNL     1       2.196  -4.303   3.152  0.00  0.00    +0.145 HD
ATOM     18  H   UNL     1       3.414  -5.457   3.080  0.00  0.00    +0.145 HD
ENDBRANCH   9  14
ENDBRANCH   1  12
BRANCH   1  19
ATOM     19  C   UNL     1       0.021  -5.935  -0.752  0.00  0.00    +0.043 C 
BRANCH  19  20
ATOM     20  C   UNL     1      -1.099  -6.202  -1.724  0.00  0.00    -0.034 C 
ATOM     21  C   UNL     1      -1.760  -5.290  -2.474  0.00  0.00    -0.000 A 
ATOM     22  C   UNL     1      -1.639  -3.833  -2.602  0.00  0.00    +0.010 A 
ATOM     23  C   UNL     1      -2.461  -3.179  -3.455  0.00  0.00    +0.001 A 
ATOM     24  C   UNL     1      -3.423  -3.857  -4.216  0.00  0.00    +0.002 A 
ATOM     25  C   UNL     1      -3.593  -5.194  -4.153  0.00  0.00    +0.026 A 
ATOM     26  C   UNL     1      -2.783  -5.982  -3.290  0.00  0.00    +0.043 A 
ATOM     27  N   UNL     1      -2.756  -7.272  -3.054  0.00  0.00    -0.374 N 
ATOM     28  C   UNL     1      -1.707  -7.544  -2.065  0.00  0.00    +0.137 C 
ATOM     29  H   UNL     1      -3.330  -7.935  -3.467  0.00  0.00    +0.161 HD
BRANCH  28  30
ATOM     30  C   UNL     1      -2.308  -8.169  -0.833  0.00  0.00    -0.021 A 
ATOM     31  C   UNL     1      -3.557  -7.769  -0.395  0.00  0.00    +0.009 A 
ATOM     32  C   UNL     1      -4.110  -8.342   0.735  0.00  0.00    +0.039 A 
ATOM     33  C   UNL     1      -3.413  -9.318   1.428  0.00  0.00    +0.123 A 
ATOM     34  C   UNL     1      -2.163  -9.717   0.988  0.00  0.00    +0.039 A 
ATOM     35  C   UNL     1      -1.614  -9.147  -0.145  0.00  0.00    +0.009 A 
ATOM     36  F   UNL     1      -3.952  -9.878   2.532  0.00  0.00    -0.205 F 
ENDBRANCH  28  30
ENDBRANCH  19  20
ENDBRANCH   1  19
TORSDOF 5
