REMARK  Name = ZINC17004735
REMARK  8 active torsions:
REMARK  status: ('A' for Active; 'I' for Inactive)
REMARK    1  A    between atoms: C_1  and  O_2
REMARK    2  A    between atoms: O_2  and  C_3
REMARK    3  A    between atoms: C_24  and  O_36
REMARK    4  A    between atoms: C_26  and  O_34
REMARK    5  A    between atoms: C_28  and  C_30
REMARK    6  A    between atoms: C_30  and  O_32
REMARK    7  A    between atoms: O_32  and  C_33
REMARK    8  A    between atoms: O_34  and  C_35
REMARK                            x       y       z     vdW  Elec       q    Type
REMARK                         _______ _______ _______ _____ _____    ______ ____
ROOT
ATOM      1  C   UNL     1      -1.237   1.732   0.017  0.00  0.00    +0.122 A 
ATOM      2  C   UNL     1      -0.013   1.076   0.008  0.00  0.00    +0.046 A 
ATOM      3  C   UNL     1       1.179   1.757   0.000  0.00  0.00    +0.014 A 
ATOM      4  C   UNL     1       1.111   3.154   0.007  0.00  0.00    +0.003 A 
ATOM      5  C   UNL     1      -0.136   3.832   0.021  0.00  0.00    +0.050 A 
ATOM      6  C   UNL     1      -1.332   3.118   0.030  0.00  0.00    +0.071 A 
ATOM      7  N   UNL     1       0.129   5.172   0.022  0.00  0.00    -0.359 N 
ATOM      8  H   UNL     1      -0.542   5.873   0.032  0.00  0.00    +0.166 HD
ATOM      9  C   UNL     1       1.482   5.377   0.008  0.00  0.00    +0.007 A 
ATOM     10  C   UNL     1       2.125   4.186   0.002  0.00  0.00    -0.022 A 
ATOM     11  C   UNL     1       3.626   4.049  -0.009  0.00  0.00    +0.019 C 
ATOM     12  C   UNL     1       4.229   5.404  -0.403  0.00  0.00    -0.073 C 
ATOM     13  C   UNL     1       2.211   6.697  -0.003  0.00  0.00    -0.020 C 
ATOM     14  C   UNL     1       1.554   7.666   0.983  0.00  0.00    -0.005 C 
ATOM     15  C   UNL     1       2.328   8.986   0.962  0.00  0.00    +0.006 C 
ATOM     16  C   UNL     1       3.791   8.720   1.324  0.00  0.00    -0.021 C 
ATOM     17  C   UNL     1       4.384   7.713   0.337  0.00  0.00    -0.074 C 
ATOM     18  C   UNL     1       4.572  10.034   1.264  0.00  0.00    +0.036 C 
ATOM     19  C   UNL     1       3.972  11.020   2.274  0.00  0.00    +0.144 C 
ATOM     20  C   UNL     1       2.504  11.278   1.931  0.00  0.00    +0.160 C 
ATOM     21  C   UNL     1       1.726   9.960   1.975  0.00  0.00    +0.132 C 
ATOM     22  N   UNL     1       3.605   6.459   0.431  0.00  0.00    +0.386 N 
ATOM     23  H   UNL     1       3.599   6.146   1.409  0.00  0.00    -0.081 HD
ENDROOT
BRANCH   1  25
ATOM     24  C   UNL     1      -2.234  -0.427   0.013  0.00  0.00    +0.277 C 
ATOM     25  O   UNL     1      -2.379   0.995   0.020  0.00  0.00    -0.495 OA
ENDBRANCH   1  25
BRANCH  21  26
ATOM     26  C   UNL     1       0.281  10.216   1.630  0.00  0.00    +0.313 C 
ATOM     27  O   UNL     1      -0.216   9.675   0.671  0.00  0.00    -0.250 OA
BRANCH  26  28
ATOM     28  O   UNL     1      -0.453  11.046   2.388  0.00  0.00    -0.468 OA
ATOM     29  C   UNL     1      -1.837  11.246   1.996  0.00  0.00    +0.280 C 
ENDBRANCH  26  28
ENDBRANCH  21  26
BRANCH  20  30
ATOM     30  O   UNL     1       1.947  12.191   2.879  0.00  0.00    -0.376 OA
ATOM     31  C   UNL     1       2.077  13.565   2.509  0.00  0.00    +0.194 C 
ENDBRANCH  20  30
BRANCH  19  32
ATOM     32  O   UNL     1       4.695  12.251   2.222  0.00  0.00    -0.389 OA
ATOM     33  H   UNL     1       5.636  12.164   2.429  0.00  0.00    +0.210 HD
ENDBRANCH  19  32
TORSDOF 5
