REMARK  Name = ZINC37063897
REMARK  8 active torsions:
REMARK  status: ('A' for Active; 'I' for Inactive)
REMARK    1  A    between atoms: C_1  and  C_2
REMARK    2  A    between atoms: C_5  and  S_9
REMARK    3  A    between atoms: C_6  and  N_8
REMARK    4  A    between atoms: S_9  and  N_12
REMARK    5  A    between atoms: N_12  and  C_13
REMARK    6  A    between atoms: C_15  and  C_21
REMARK    7  A    between atoms: C_18  and  O_19
REMARK    8  A    between atoms: O_19  and  C_20
REMARK                            x       y       z     vdW  Elec       q    Type
REMARK                         _______ _______ _______ _____ _____    ______ ____
ROOT
ATOM      1  S   UNL     1       0.208  -4.395  -0.266  0.00  0.00    +0.074 S 
ATOM      2  O   UNL     1      -0.850  -4.998   0.466  0.00  0.00    -0.150 OA
ATOM      3  O   UNL     1       0.373  -4.588  -1.664  0.00  0.00    -0.150 OA
ENDROOT
BRANCH   1   8
ATOM      4  C   UNL     1      -0.267   1.560   0.614  0.00  0.00    +0.044 C 
ATOM      5  C   UNL     1      -0.145   0.075   0.392  0.00  0.00    -0.049 A 
ATOM      6  C   UNL     1      -1.061  -0.787   0.967  0.00  0.00    +0.005 A 
ATOM      7  C   UNL     1      -0.953  -2.151   0.766  0.00  0.00    +0.031 A 
ATOM      8  C   UNL     1       0.070  -2.657  -0.011  0.00  0.00    +0.129 A 
ATOM      9  C   UNL     1       0.992  -1.794  -0.591  0.00  0.00    +0.052 A 
ATOM     10  C   UNL     1       0.877  -0.424  -0.391  0.00  0.00    +0.028 A 
BRANCH   9  11
ATOM     11  N   UNL     1       2.028  -2.302  -1.377  0.00  0.00    -0.356 N 
ATOM     12  H   UNL     1       2.065  -3.251  -1.577  0.00  0.00    +0.142 HD
ATOM     13  H   UNL     1       2.711  -1.707  -1.724  0.00  0.00    +0.142 HD
ENDBRANCH   9  11
ENDBRANCH   1   8
BRANCH   1  14
ATOM     14  N   UNL     1       1.618  -4.885   0.450  0.00  0.00    -0.213 N 
ATOM     15  H   UNL     1       2.312  -5.305  -0.082  0.00  0.00    +0.174 HD
BRANCH  14  16
ATOM     16  C   UNL     1       1.810  -4.692   1.823  0.00  0.00    +0.090 A 
ATOM     17  C   UNL     1       0.739  -4.810   2.697  0.00  0.00    +0.031 A 
ATOM     18  C   UNL     1       0.931  -4.620   4.053  0.00  0.00    -0.048 A 
ATOM     19  C   UNL     1       2.188  -4.312   4.540  0.00  0.00    +0.007 A 
ATOM     20  C   UNL     1       3.259  -4.193   3.675  0.00  0.00    +0.048 A 
ATOM     21  C   UNL     1       3.077  -4.388   2.315  0.00  0.00    +0.142 A 
ATOM     22  C   UNL     1      -0.233  -4.748   5.002  0.00  0.00    +0.044 C 
BRANCH  21  23
ATOM     23  O   UNL     1       4.131  -4.276   1.463  0.00  0.00    -0.493 OA
ATOM     24  C   UNL     1       5.400  -3.961   2.039  0.00  0.00    +0.277 C 
ENDBRANCH  21  23
ENDBRANCH  14  16
ENDBRANCH   1  14
TORSDOF 5
