REMARK  Name = ZINC59170823
REMARK  10 active torsions:
REMARK  status: ('A' for Active; 'I' for Inactive)
REMARK    1  A    between atoms: C_1  and  C_2
REMARK    2  A    between atoms: C_5  and  N_9
REMARK    3  A    between atoms: C_7  and  C_8
REMARK    4  A    between atoms: C_11  and  C_25
REMARK    5  A    between atoms: C_15  and  C_21
REMARK    6  A    between atoms: C_17  and  O_20
REMARK    7  A    between atoms: C_21  and  C_22
REMARK    8  A    between atoms: C_21  and  C_23
REMARK    9  A    between atoms: C_21  and  C_24
REMARK   10  A    between atoms: C_25  and  N_27
REMARK                            x       y       z     vdW  Elec       q    Type
REMARK                         _______ _______ _______ _____ _____    ______ ____
ROOT
ATOM      1  N   UNL     1      -0.127  -4.298   0.377  0.00  0.00    -0.325 N 
ATOM      2  C   UNL     1      -0.820  -4.844  -0.599  0.00  0.00    +0.209 A 
ATOM      3  C   UNL     1      -0.672  -6.276  -0.928  0.00  0.00    +0.064 A 
ATOM      4  C   UNL     1      -1.760  -6.904  -1.520  0.00  0.00    +0.027 A 
ATOM      5  C   UNL     1      -2.955  -6.093  -1.765  0.00  0.00    +0.022 A 
ATOM      6  C   UNL     1      -4.173  -6.694  -2.107  0.00  0.00    +0.016 A 
ATOM      7  C   UNL     1      -5.276  -5.919  -2.325  0.00  0.00    -0.038 A 
ATOM      8  C   UNL     1      -5.203  -4.538  -2.213  0.00  0.00    +0.053 A 
ATOM      9  C   UNL     1      -4.009  -3.921  -1.879  0.00  0.00    +0.160 A 
ATOM     10  C   UNL     1      -2.873  -4.693  -1.654  0.00  0.00    +0.179 A 
ATOM     11  O   UNL     1      -1.696  -4.110  -1.330  0.00  0.00    -0.435 OA
ATOM     12  H   UNL     1       0.420  -4.854   0.954  0.00  0.00    +0.169 HD
ENDROOT
BRANCH   1  17
ATOM     13  C   UNL     1      -0.340   1.280   1.210  0.00  0.00    +0.044 C 
ATOM     14  C   UNL     1      -0.283  -0.209   0.988  0.00  0.00    -0.047 A 
ATOM     15  C   UNL     1      -0.133  -0.709  -0.294  0.00  0.00    +0.005 A 
ATOM     16  C   UNL     1      -0.080  -2.070  -0.505  0.00  0.00    +0.026 A 
ATOM     17  C   UNL     1      -0.178  -2.946   0.579  0.00  0.00    +0.042 A 
ATOM     18  C   UNL     1      -0.329  -2.435   1.870  0.00  0.00    +0.029 A 
ATOM     19  C   UNL     1      -0.375  -1.070   2.067  0.00  0.00    -0.046 A 
ATOM     20  C   UNL     1      -0.532  -0.516   3.459  0.00  0.00    +0.044 C 
ENDBRANCH   1  17
BRANCH   7  21
ATOM     21  C   UNL     1      -6.585  -6.569  -2.692  0.00  0.00    -0.013 C 
ATOM     22  C   UNL     1      -7.013  -7.521  -1.573  0.00  0.00    +0.015 C 
ATOM     23  C   UNL     1      -7.655  -5.492  -2.881  0.00  0.00    +0.015 C 
ATOM     24  C   UNL     1      -6.417  -7.356  -3.994  0.00  0.00    +0.015 C 
ENDBRANCH   7  21
BRANCH   9  25
ATOM     25  O   UNL     1      -3.947  -2.567  -1.773  0.00  0.00    -0.503 OA
ATOM     26  H   UNL     1      -4.139  -2.233  -0.885  0.00  0.00    +0.292 HD
ENDBRANCH   9  25
BRANCH   3  27
ATOM     27  C   UNL     1       0.573  -7.005  -0.641  0.00  0.00    +0.082 C 
ATOM     28  S   UNL     1       1.942  -6.163  -0.054  0.00  0.00    -0.035 S 
BRANCH  27  29
ATOM     29  N   UNL     1       0.635  -8.337  -0.841  0.00  0.00    -0.352 N 
ATOM     30  H   UNL     1      -0.141  -8.814  -1.174  0.00  0.00    +0.143 HD
ATOM     31  H   UNL     1       1.456  -8.818  -0.652  0.00  0.00    +0.143 HD
ENDBRANCH  27  29
ENDBRANCH   3  27
TORSDOF 5
