REMARK  Name = ZINC20338777
REMARK  6 active torsions:
REMARK  status: ('A' for Active; 'I' for Inactive)
REMARK    1  A    between atoms: C_1  and  C_2
REMARK    2  A    between atoms: C_2  and  C_3
REMARK    3  A    between atoms: C_3  and  N_4
REMARK    4  A    between atoms: C_8  and  N_23
REMARK    5  A    between atoms: C_13  and  C_14
REMARK    6  A    between atoms: C_17  and  C_20
REMARK                            x       y       z     vdW  Elec       q    Type
REMARK                         _______ _______ _______ _____ _____    ______ ____
ROOT
ATOM      1  N   UNL     1       4.074   2.069   0.617  0.00  0.00    -0.262 N 
ATOM      2  C   UNL     1       2.784   1.516   0.601  0.00  0.00    +0.079 A 
ATOM      3  C   UNL     1       1.682   2.323   0.843  0.00  0.00    +0.029 A 
ATOM      4  C   UNL     1       0.411   1.780   0.825  0.00  0.00    +0.025 A 
ATOM      5  C   UNL     1       0.234   0.427   0.564  0.00  0.00    +0.028 A 
ATOM      6  C   UNL     1       1.334  -0.384   0.321  0.00  0.00    +0.071 A 
ATOM      7  C   UNL     1       2.608   0.158   0.339  0.00  0.00    +0.152 A 
ATOM      8  O   UNL     1       3.691  -0.634   0.103  0.00  0.00    -0.449 OA
ATOM      9  C   UNL     1       4.793  -0.005  -0.408  0.00  0.00    +0.191 C 
ATOM     10  C   UNL     1       5.567  -0.591  -1.349  0.00  0.00    +0.059 C 
ATOM     11  C   UNL     1       5.102   1.343   0.115  0.00  0.00    +0.286 C 
ATOM     12  O   UNL     1       6.236   1.784   0.095  0.00  0.00    -0.266 OA
ENDROOT
BRANCH  10  13
ATOM     13  C   UNL     1       6.625   0.183  -2.017  0.00  0.00    -0.021 A 
ATOM     14  C   UNL     1       6.421   1.532  -2.326  0.00  0.00    +0.008 A 
ATOM     15  C   UNL     1       7.420   2.251  -2.947  0.00  0.00    +0.004 A 
ATOM     16  C   UNL     1       8.617   1.639  -3.276  0.00  0.00    -0.050 A 
ATOM     17  C   UNL     1       8.824   0.303  -2.980  0.00  0.00    +0.004 A 
ATOM     18  C   UNL     1       7.837  -0.429  -2.353  0.00  0.00    +0.008 A 
ATOM     19  C   UNL     1       9.700   2.432  -3.961  0.00  0.00    +0.044 C 
ENDBRANCH  10  13
BRANCH   5  20
ATOM     20  N   UNL     1      -1.054  -0.118   0.545  0.00  0.00    -0.358 N 
ATOM     21  H   UNL     1      -1.195  -1.189   0.339  0.00  0.00    +0.142 HD
ATOM     22  H   UNL     1      -1.926   0.524   0.737  0.00  0.00    +0.142 HD
ENDBRANCH   5  20
BRANCH   1  23
ATOM     23  C   UNL     1       4.305   3.407   1.167  0.00  0.00    +0.114 C 
BRANCH  23  25
ATOM     24  C   UNL     1       4.857   4.696   3.235  0.00  0.00    +0.005 C 
ATOM     25  C   UNL     1       4.616   3.298   2.661  0.00  0.00    +0.016 C 
ENDBRANCH  23  25
ENDBRANCH   1  23
TORSDOF 4
