REMARK  Name = ZINC38581350
REMARK  5 active torsions:
REMARK  status: ('A' for Active; 'I' for Inactive)
REMARK    1  A    between atoms: C_7  and  C_10
REMARK    2  A    between atoms: N_11  and  N_12
REMARK    3  A    between atoms: C_23  and  S_28
REMARK    4  A    between atoms: C_25  and  N_27
REMARK    5  A    between atoms: S_28  and  C_31
REMARK                            x       y       z     vdW  Elec       q    Type
REMARK                         _______ _______ _______ _____ _____    ______ ____
ROOT
ATOM      1  N   UNL     1       0.343  -5.344  -0.116  0.00  0.00    -0.186 N 
ATOM      2  C   UNL     1      -1.033  -5.213  -0.221  0.00  0.00    +0.166 A 
ATOM      3  C   UNL     1      -1.663  -6.463  -0.322  0.00  0.00    +0.111 A 
ATOM      4  N   UNL     1      -2.967  -6.559  -0.430  0.00  0.00    -0.245 NA
ATOM      5  C   UNL     1      -3.720  -5.453  -0.443  0.00  0.00    +0.090 A 
ATOM      6  C   UNL     1      -5.118  -5.527  -0.556  0.00  0.00    +0.030 A 
ATOM      7  C   UNL     1      -5.856  -4.383  -0.567  0.00  0.00    +0.002 A 
ATOM      8  C   UNL     1      -5.244  -3.135  -0.467  0.00  0.00    +0.002 A 
ATOM      9  C   UNL     1      -3.892  -3.025  -0.356  0.00  0.00    +0.030 A 
ATOM     10  C   UNL     1      -3.096  -4.184  -0.341  0.00  0.00    +0.091 A 
ATOM     11  N   UNL     1      -1.768  -4.106  -0.234  0.00  0.00    -0.227 NA
ATOM     12  C   UNL     1      -0.595  -7.535  -0.282  0.00  0.00    +0.225 C 
ATOM     13  C   UNL     1       0.725  -6.757  -0.150  0.00  0.00    +0.195 C 
ENDROOT
BRANCH  13  14
ATOM     14  N   UNL     1       1.591  -7.023  -1.306  0.00  0.00    -0.309 NA
ATOM     15  H   UNL     1       2.472  -6.539  -1.216  0.00  0.00    +0.120 HD
ATOM     16  H   UNL     1       1.734  -8.014  -1.430  0.00  0.00    +0.120 HD
ENDBRANCH  13  14
BRANCH  12  17
ATOM     17  S   UNL     1      -0.844  -8.623   1.148  0.00  0.00    +0.015 S 
ATOM     18  O   UNL     1       0.070  -9.710   1.102  0.00  0.00    -0.168 OA
ATOM     19  O   UNL     1      -0.992  -7.850   2.332  0.00  0.00    -0.168 OA
BRANCH  17  20
ATOM     20  C   UNL     1      -2.426  -9.355   0.890  0.00  0.00    +0.126 A 
ATOM     21  C   UNL     1      -2.739 -10.506   0.245  0.00  0.00    +0.035 A 
ATOM     22  C   UNL     1      -4.064 -10.890   0.164  0.00  0.00    +0.009 A 
ATOM     23  C   UNL     1      -5.012 -10.106   0.733  0.00  0.00    +0.047 A 
ATOM     24  S   UNL     1      -4.031  -8.779   1.416  0.00  0.00    -0.078 S 
ENDBRANCH  17  20
ENDBRANCH  12  17
BRANCH   1  26
ATOM     25  C   UNL     1       2.447  -4.595   0.187  0.00  0.00    +0.136 C 
ATOM     26  N   UNL     1       1.171  -4.360  -0.011  0.00  0.00    -0.185 NA
BRANCH  25  33
ATOM     27  C   UNL     1       6.941  -4.471   0.779  0.00  0.00    +0.001 A 
ATOM     28  C   UNL     1       7.477  -3.183   0.713  0.00  0.00    +0.002 A 
ATOM     29  C   UNL     1       6.699  -2.095   0.491  0.00  0.00    +0.026 A 
ATOM     30  C   UNL     1       5.299  -2.252   0.319  0.00  0.00    +0.043 A 
ATOM     31  N   UNL     1       4.344  -1.371   0.096  0.00  0.00    -0.380 N 
ATOM     32  C   UNL     1       3.057  -2.066  -0.002  0.00  0.00    +0.150 C 
ATOM     33  C   UNL     1       3.359  -3.535   0.196  0.00  0.00    +0.000 C 
ATOM     34  C   UNL     1       4.739  -3.611   0.390  0.00  0.00    +0.004 A 
ATOM     35  C   UNL     1       5.611  -4.696   0.624  0.00  0.00    +0.010 A 
ATOM     36  H   UNL     1       4.472  -0.413   0.011  0.00  0.00    +0.160 HD
ENDBRANCH  25  33
ENDBRANCH   1  26
TORSDOF 5
