REMARK  Name = ZINC13095514
REMARK  8 active torsions:
REMARK  status: ('A' for Active; 'I' for Inactive)
REMARK    1  A    between atoms: C_1  and  O_2
REMARK    2  A    between atoms: O_2  and  C_3
REMARK    3  A    between atoms: C_6  and  C_9
REMARK    4  A    between atoms: C_14  and  N_18
REMARK    5  A    between atoms: N_18  and  C_19
REMARK    6  A    between atoms: C_19  and  C_20
REMARK    7  A    between atoms: C_20  and  C_22
REMARK    8  A    between atoms: C_20  and  N_57
REMARK                            x       y       z     vdW  Elec       q    Type
REMARK                         _______ _______ _______ _____ _____    ______ ____
ROOT
ATOM      1  C   UNL     1       7.709   1.164   1.031  0.00  0.00    +0.002 A 
ATOM      2  C   UNL     1       9.004   0.840   1.254  0.00  0.00    +0.056 A 
ATOM      3  S   UNL     1       9.278   1.357   2.938  0.00  0.00    -0.076 S 
ATOM      4  C   UNL     1       7.664   1.992   3.303  0.00  0.00    +0.114 A 
ATOM      5  C   UNL     1       6.946   1.788   2.107  0.00  0.00    +0.055 A 
ATOM      6  C   UNL     1       5.592   2.217   2.127  0.00  0.00    +0.131 A 
ATOM      7  N   UNL     1       5.105   2.768   3.227  0.00  0.00    -0.220 NA
ATOM      8  C   UNL     1       5.835   2.925   4.317  0.00  0.00    +0.224 A 
ATOM      9  N   UNL     1       7.098   2.546   4.358  0.00  0.00    -0.228 NA
ENDROOT
BRANCH   1  13
ATOM     10  C   UNL     1       5.897   0.383  -2.737  0.00  0.00    +0.120 A 
ATOM     11  C   UNL     1       5.388  -0.207  -1.588  0.00  0.00    +0.046 A 
ATOM     12  C   UNL     1       5.973   0.044  -0.365  0.00  0.00    +0.012 A 
ATOM     13  C   UNL     1       7.077   0.891  -0.283  0.00  0.00    -0.016 A 
ATOM     14  C   UNL     1       7.583   1.486  -1.438  0.00  0.00    +0.012 A 
ATOM     15  C   UNL     1       6.996   1.227  -2.659  0.00  0.00    +0.046 A 
BRANCH  10  17
ATOM     16  C   UNL     1       5.960   0.678  -5.095  0.00  0.00    +0.277 C 
ATOM     17  O   UNL     1       5.318   0.134  -3.941  0.00  0.00    -0.495 OA
ENDBRANCH  10  17
ENDBRANCH   1  13
BRANCH   6  18
ATOM     18  N   UNL     1       4.793   2.065   1.008  0.00  0.00    -0.330 N 
ATOM     19  H   UNL     1       5.178   1.747   0.176  0.00  0.00    +0.147 HD
BRANCH  18  20
ATOM     20  C   UNL     1       3.365   2.385   1.078  0.00  0.00    +0.095 C 
BRANCH  20  21
ATOM     21  C   UNL     1       2.747   2.270  -0.317  0.00  0.00    +0.016 C 
BRANCH  21  27
ATOM     22  C   UNL     1       3.385   4.568  -0.731  0.00  0.00    -0.078 C 
ATOM     23  C   UNL     1       4.231   5.471  -1.632  0.00  0.00    -0.019 C 
ATOM     24  C   UNL     1       3.688   5.410  -3.062  0.00  0.00    -0.004 C 
ATOM     25  C   UNL     1       3.704   3.957  -3.545  0.00  0.00    -0.019 C 
ATOM     26  C   UNL     1       2.873   3.098  -2.588  0.00  0.00    -0.078 C 
ATOM     27  N   UNL     1       3.462   3.181  -1.235  0.00  0.00    +0.387 N 
ATOM     28  H   UNL     1       4.449   2.898  -1.283  0.00  0.00    -0.081 HD
ENDBRANCH  21  27
BRANCH  21  29
ATOM     29  C   UNL     1       1.285   2.628  -0.249  0.00  0.00    +0.093 A 
ATOM     30  C   UNL     1       0.258   1.765  -0.356  0.00  0.00    +0.043 A 
ATOM     31  C   UNL     1      -0.929   2.524  -0.243  0.00  0.00    +0.041 A 
ATOM     32  C   UNL     1      -0.557   3.805  -0.066  0.00  0.00    +0.195 A 
ATOM     33  O   UNL     1       0.785   3.862  -0.074  0.00  0.00    -0.469 OA
ENDBRANCH  21  29
ENDBRANCH  20  21
ENDBRANCH  18  20
ENDBRANCH   6  18
TORSDOF 7
