REMARK  Name = ZINC43094380
REMARK  7 active torsions:
REMARK  status: ('A' for Active; 'I' for Inactive)
REMARK    1  A    between atoms: C_1  and  C_2
REMARK    2  A    between atoms: C_2  and  C_4
REMARK    3  A    between atoms: C_2  and  N_22
REMARK    4  A    between atoms: C_4  and  C_6
REMARK    5  A    between atoms: C_4  and  O_13
REMARK    6  A    between atoms: O_13  and  C_14
REMARK    7  A    between atoms: C_17  and  C_20
REMARK                            x       y       z     vdW  Elec       q    Type
REMARK                         _______ _______ _______ _____ _____    ______ ____
ROOT
ATOM      1  C   UNL     1       0.751  -0.518   1.250  0.00  0.00    +0.190 C 
ENDROOT
BRANCH   1   2
ATOM      2  C   UNL     1       0.862  -2.021   1.302  0.00  0.00    +0.005 A 
ATOM      3  C   UNL     1      -0.052  -2.756   2.034  0.00  0.00    +0.008 A 
ATOM      4  C   UNL     1       0.049  -4.134   2.081  0.00  0.00    +0.000 A 
ATOM      5  C   UNL     1       1.064  -4.777   1.396  0.00  0.00    +0.001 A 
ATOM      6  C   UNL     1       1.977  -4.042   0.664  0.00  0.00    +0.015 A 
ATOM      7  C   UNL     1       1.873  -2.664   0.612  0.00  0.00    +0.024 A 
ATOM      8 BR   UNL     1       3.119  -1.659  -0.395  0.00  0.00    -0.050 Br
ENDBRANCH   1   2
BRANCH   1  10
ATOM      9  C   UNL     1      -0.149   1.417  -0.049  0.00  0.00    -0.010 C 
ATOM     10  C   UNL     1      -0.037  -0.108   0.004  0.00  0.00    -0.032 C 
BRANCH  10  11
ATOM     11  N   UNL     1       0.660  -0.589  -1.197  0.00  0.00    +0.382 N 
ATOM     12  H   UNL     1       1.584  -0.185  -1.234  0.00  0.00    -0.089 HD
ATOM     13  H   UNL     1       0.734  -1.595  -1.162  0.00  0.00    -0.089 HD
ATOM     14  H   UNL     1       0.141  -0.319  -2.018  0.00  0.00    -0.089 HD
ENDBRANCH  10  11
ENDBRANCH   1  10
BRANCH   1  15
ATOM     15  O   UNL     1       0.073  -0.050   2.417  0.00  0.00    -0.486 OA
BRANCH  15  16
ATOM     16  C   UNL     1       0.538   1.093   2.983  0.00  0.00    +0.121 A 
ATOM     17  C   UNL     1       0.006   1.536   4.187  0.00  0.00    +0.047 A 
ATOM     18  C   UNL     1       0.475   2.695   4.765  0.00  0.00    +0.022 A 
ATOM     19  C   UNL     1       1.489   3.425   4.138  0.00  0.00    +0.052 A 
ATOM     20  C   UNL     1       2.022   2.975   2.927  0.00  0.00    +0.022 A 
ATOM     21  C   UNL     1       1.550   1.813   2.359  0.00  0.00    +0.047 A 
BRANCH  19  22
ATOM     22  C   UNL     1       1.980   4.631   4.735  0.00  0.00    +0.099 C 
ATOM     23  N   UNL     1       2.369   5.587   5.209  0.00  0.00    -0.191 NA
ENDBRANCH  19  22
ENDBRANCH  15  16
ENDBRANCH   1  15
TORSDOF 6
