REMARK  Name = ZINC20752452
REMARK  6 active torsions:
REMARK  status: ('A' for Active; 'I' for Inactive)
REMARK    1  A    between atoms: C_1  and  C_2
REMARK    2  A    between atoms: C_2  and  N_3
REMARK    3  A    between atoms: N_3  and  C_4
REMARK    4  A    between atoms: N_3  and  S_10
REMARK    5  A    between atoms: S_10  and  C_13
REMARK    6  A    between atoms: C_26  and  C_29
REMARK                            x       y       z     vdW  Elec       q    Type
REMARK                         _______ _______ _______ _____ _____    ______ ____
ROOT
ATOM      1  C   UNL     1      -3.957   2.974   0.091  0.00  0.00    +0.109 A 
ATOM      2  C   UNL     1      -3.961   2.747  -1.274  0.00  0.00    +0.030 A 
ATOM      3  C   UNL     1      -3.143   1.772  -1.808  0.00  0.00    +0.025 A 
ATOM      4  C   UNL     1      -2.318   1.025  -0.975  0.00  0.00    +0.031 A 
ATOM      5  C   UNL     1      -2.313   1.246   0.390  0.00  0.00    -0.018 A 
ATOM      6  C   UNL     1      -3.140   2.230   0.917  0.00  0.00    +0.034 A 
ATOM      7  C   UNL     1      -1.448   0.464   1.342  0.00  0.00    +0.049 C 
ATOM      8  C   UNL     1      -2.373  -0.237   2.328  0.00  0.00    -0.023 C 
ATOM      9  C   UNL     1      -2.595  -1.470   1.948  0.00  0.00    -0.030 C 
ATOM     10  C   UNL     1      -1.852  -1.772   0.659  0.00  0.00    +0.033 C 
ATOM     11  C   UNL     1      -0.728  -0.709   0.652  0.00  0.00    +0.029 C 
ATOM     12  C   UNL     1      -0.310  -0.369  -0.766  0.00  0.00    +0.111 C 
ATOM     13  N   UNL     1      -1.486   0.050  -1.537  0.00  0.00    -0.336 N 
ATOM     14  H   UNL     1      -1.688  -0.400  -2.520  0.00  0.00    +0.147 HD
ENDROOT
BRANCH  12  15
ATOM     15  C   UNL     1       0.698   0.751  -0.738  0.00  0.00    +0.010 A 
ATOM     16  C   UNL     1       2.047   0.689  -0.843  0.00  0.00    +0.013 A 
ATOM     17  C   UNL     1       2.779   1.860  -0.790  0.00  0.00    +0.008 A 
ATOM     18  C   UNL     1       2.125   3.037  -0.633  0.00  0.00    +0.045 A 
ATOM     19  S   UNL     1       0.423   2.506  -0.556  0.00  0.00    -0.100 S 
ENDBRANCH  12  15
BRANCH   1  20
ATOM     20  S   UNL     1      -4.998   4.219   0.777  0.00  0.00    +0.075 S 
ATOM     21  O   UNL     1      -6.068   4.404  -0.140  0.00  0.00    -0.150 OA
ATOM     22  O   UNL     1      -5.212   3.866   2.136  0.00  0.00    -0.150 OA
BRANCH  20  23
ATOM     23  N   UNL     1      -4.132   5.631   0.785  0.00  0.00    -0.203 N 
BRANCH  23  24
ATOM     24  C   UNL     1      -3.445   6.021   1.937  0.00  0.00    +0.051 A 
ATOM     25  C   UNL     1      -2.067   6.189   1.901  0.00  0.00    +0.025 A 
ATOM     26  C   UNL     1      -1.391   6.580   3.041  0.00  0.00    +0.002 A 
ATOM     27  C   UNL     1      -2.083   6.795   4.218  0.00  0.00    +0.000 A 
ATOM     28  C   UNL     1      -3.455   6.623   4.258  0.00  0.00    +0.002 A 
ATOM     29  C   UNL     1      -4.138   6.237   3.121  0.00  0.00    +0.025 A 
ENDBRANCH  23  24
BRANCH  23  31
ATOM     30  C   UNL     1      -5.162   7.555  -0.319  0.00  0.00    +0.026 C 
ATOM     31  C   UNL     1      -4.087   6.470  -0.415  0.00  0.00    +0.128 C 
ENDBRANCH  23  31
ENDBRANCH  20  23
ENDBRANCH   1  20
TORSDOF 5
