REMARK  Name = ZINC35701317
REMARK  14 active torsions:
REMARK  status: ('A' for Active; 'I' for Inactive)
REMARK    1  A    between atoms: C_1  and  C_2
REMARK    2  A    between atoms: C_2  and  N_3
REMARK    3  A    between atoms: N_3  and  C_4
REMARK    4  A    between atoms: C_6  and  C_7
REMARK    5  A    between atoms: C_12  and  C_37
REMARK    6  A    between atoms: C_13  and  C_27
REMARK    7  A    between atoms: C_14  and  C_17
REMARK    8  A    between atoms: C_19  and  O_25
REMARK    9  A    between atoms: C_21  and  O_23
REMARK   10  A    between atoms: O_23  and  C_24
REMARK   11  A    between atoms: O_25  and  C_26
REMARK   12  A    between atoms: C_27  and  O_29
REMARK   13  A    between atoms: O_29  and  C_30
REMARK   14  A    between atoms: C_30  and  C_31
REMARK                            x       y       z     vdW  Elec       q    Type
REMARK                         _______ _______ _______ _____ _____    ______ ____
ROOT
ATOM      1  C   UNL     1       1.452  -3.654  -2.841  0.00  0.00    +0.048 C 
ATOM      2  C   UNL     1       2.101  -4.099  -3.940  0.00  0.00    +0.072 C 
ATOM      3  S   UNL     1       1.990  -5.866  -3.743  0.00  0.00    -0.060 S 
ATOM      4  C   UNL     1       1.139  -5.911  -2.297  0.00  0.00    +0.166 C 
ATOM      5  N   UNL     1       0.713  -6.921  -1.567  0.00  0.00    -0.230 NA
ATOM      6  C   UNL     1       0.044  -6.802  -0.431  0.00  0.00    +0.053 C 
ATOM      7  C   UNL     1      -0.259  -5.553   0.075  0.00  0.00    +0.082 C 
ATOM      8  C   UNL     1       0.199  -4.343  -0.709  0.00  0.00    +0.150 C 
ATOM      9  N   UNL     1       0.948  -4.598  -1.969  0.00  0.00    -0.267 N 
ATOM     10  C   UNL     1      -0.391  -8.037   0.314  0.00  0.00    +0.066 C 
ENDROOT
BRANCH   8  11
ATOM     11  C   UNL     1      -1.018  -3.521  -1.047  0.00  0.00    -0.015 A 
ATOM     12  C   UNL     1      -1.900  -3.960  -2.016  0.00  0.00    +0.051 A 
ATOM     13  C   UNL     1      -3.021  -3.205  -2.328  0.00  0.00    +0.124 A 
ATOM     14  C   UNL     1      -3.256  -2.009  -1.667  0.00  0.00    +0.091 A 
ATOM     15  C   UNL     1      -2.370  -1.571  -0.695  0.00  0.00    +0.124 A 
ATOM     16  C   UNL     1      -1.253  -2.333  -0.382  0.00  0.00    +0.051 A 
BRANCH  15  17
ATOM     17  O   UNL     1      -2.598  -0.399  -0.045  0.00  0.00    -0.495 OA
ATOM     18  C   UNL     1      -3.770   0.330  -0.415  0.00  0.00    +0.277 C 
ENDBRANCH  15  17
BRANCH  13  19
ATOM     19  O   UNL     1      -3.888  -3.636  -3.282  0.00  0.00    -0.495 OA
ATOM     20  C   UNL     1      -5.021  -2.808  -3.551  0.00  0.00    +0.277 C 
ENDBRANCH  13  19
ENDBRANCH   8  11
BRANCH   1  23
ATOM     21  C   UNL     1       1.907  -1.317  -3.374  0.00  0.00    +0.239 C 
ATOM     22  O   UNL     1       2.576  -1.731  -4.477  0.00  0.00    -0.271 OA
ATOM     23  C   UNL     1       1.294  -2.216  -2.581  0.00  0.00    +0.091 C 
BRANCH  21  24
ATOM     24  N   UNL     1       1.855   0.031  -3.061  0.00  0.00    -0.312 N 
ATOM     25  H   UNL     1       1.440   0.322  -2.234  0.00  0.00    +0.149 HD
BRANCH  24  27
ATOM     26  C   UNL     1       2.128   2.428  -3.464  0.00  0.00    +0.024 C 
ATOM     27  C   UNL     1       2.426   1.019  -3.980  0.00  0.00    +0.101 C 
ENDBRANCH  24  27
ENDBRANCH  21  24
ENDBRANCH   1  23
BRANCH   7  28
ATOM     28  C   UNL     1      -0.966  -5.411   1.275  0.00  0.00    +0.339 C 
ATOM     29  O   UNL     1      -1.326  -6.399   1.891  0.00  0.00    -0.245 OA
BRANCH  28  30
ATOM     30  O   UNL     1      -1.250  -4.178   1.751  0.00  0.00    -0.457 OA
BRANCH  30  31
ATOM     31  C   UNL     1      -1.974  -4.108   2.980  0.00  0.00    +0.268 C 
BRANCH  31  32
ATOM     32  C   UNL     1      -2.197  -2.664   3.351  0.00  0.00    -0.010 A 
ATOM     33  C   UNL     1      -1.265  -1.997   4.123  0.00  0.00    +0.007 A 
ATOM     34  C   UNL     1      -1.469  -0.672   4.463  0.00  0.00    +0.000 A 
ATOM     35  C   UNL     1      -2.605  -0.015   4.029  0.00  0.00    +0.000 A 
ATOM     36  C   UNL     1      -3.537  -0.682   3.256  0.00  0.00    +0.000 A 
ATOM     37  C   UNL     1      -3.331  -2.005   2.913  0.00  0.00    +0.007 A 
ENDBRANCH  31  32
ENDBRANCH  30  31
ENDBRANCH  28  30
ENDBRANCH   7  28
TORSDOF 10
