REMARK  Name = ZINC09673463
REMARK  8 active torsions:
REMARK  status: ('A' for Active; 'I' for Inactive)
REMARK    1  A    between atoms: C_1  and  C_2
REMARK    2  A    between atoms: C_5  and  C_8
REMARK    3  A    between atoms: C_15  and  C_18
REMARK    4  A    between atoms: C_23  and  O_24
REMARK    5  A    between atoms: O_24  and  C_25
REMARK    6  A    between atoms: N_28  and  C_31
REMARK    7  A    between atoms: C_34  and  C_38
REMARK    8  A    between atoms: C_35  and  C_37
REMARK                            x       y       z     vdW  Elec       q    Type
REMARK                         _______ _______ _______ _____ _____    ______ ____
ROOT
ATOM      1  C   UNL     1       0.060  -4.266  -0.038  0.00  0.00    +0.261 C 
ATOM      2  O   UNL     1       0.003  -4.875  -1.088  0.00  0.00    -0.269 OA
ATOM      3  N   UNL     1       0.174  -4.937   1.125  0.00  0.00    -0.220 N 
ATOM      4  C   UNL     1       0.322  -6.396   1.287  0.00  0.00    +0.194 C 
ATOM      5  C   UNL     1       1.077  -6.575   2.634  0.00  0.00    +0.130 C 
ATOM      6  C   UNL     1       1.240  -5.118   3.129  0.00  0.00    +0.120 C 
ATOM      7  N   UNL     1       0.181  -4.390   2.391  0.00  0.00    -0.229 NA
ATOM      8  C   UNL     1       0.071  -7.297   3.502  0.00  0.00    +0.234 C 
ATOM      9  O   UNL     1       0.257  -7.642   4.650  0.00  0.00    -0.274 OA
ATOM     10  N   UNL     1      -1.055  -7.497   2.808  0.00  0.00    -0.208 N 
ATOM     11  C   UNL     1      -1.034  -7.013   1.545  0.00  0.00    +0.249 C 
ATOM     12  O   UNL     1      -1.938  -7.081   0.739  0.00  0.00    -0.273 OA
ATOM     13  H   UNL     1       0.380  -3.402   2.357  0.00  0.00    +0.145 HD
ENDROOT
BRANCH  10  14
ATOM     14  C   UNL     1      -2.175  -8.143   3.349  0.00  0.00    +0.044 A 
ATOM     15  C   UNL     1      -2.048  -9.414   3.895  0.00  0.00    +0.024 A 
ATOM     16  C   UNL     1      -3.154 -10.048   4.428  0.00  0.00    +0.005 A 
ATOM     17  C   UNL     1      -4.385  -9.420   4.417  0.00  0.00    -0.047 A 
ATOM     18  C   UNL     1      -4.515  -8.155   3.873  0.00  0.00    -0.046 A 
ATOM     19  C   UNL     1      -3.412  -7.513   3.344  0.00  0.00    +0.027 A 
ATOM     20  C   UNL     1      -5.859  -7.474   3.863  0.00  0.00    +0.044 C 
ATOM     21  C   UNL     1      -5.590 -10.115   4.998  0.00  0.00    +0.044 C 
ENDBRANCH  10  14
BRANCH   1  26
ATOM     22  C   UNL     1      -0.158   1.485  -0.032  0.00  0.00    +0.044 C 
ATOM     23  C   UNL     1      -0.101  -0.021  -0.034  0.00  0.00    -0.050 A 
ATOM     24  C   UNL     1      -0.679  -0.734   1.002  0.00  0.00    +0.004 A 
ATOM     25  C   UNL     1      -0.630  -2.112   1.007  0.00  0.00    +0.013 A 
ATOM     26  C   UNL     1       0.003  -2.789  -0.037  0.00  0.00    +0.038 A 
ATOM     27  C   UNL     1       0.585  -2.064  -1.079  0.00  0.00    +0.013 A 
ATOM     28  C   UNL     1       0.524  -0.686  -1.074  0.00  0.00    +0.004 A 
ENDBRANCH   1  26
BRANCH   6  29
ATOM     29  C   UNL     1       1.016  -5.032   4.617  0.00  0.00    +0.013 A 
ATOM     30  C   UNL     1      -0.232  -4.702   5.110  0.00  0.00    +0.009 A 
ATOM     31  C   UNL     1      -0.439  -4.624   6.475  0.00  0.00    +0.001 A 
ATOM     32  C   UNL     1       0.602  -4.875   7.350  0.00  0.00    +0.004 A 
ATOM     33  C   UNL     1       1.851  -5.206   6.862  0.00  0.00    +0.046 A 
ATOM     34  C   UNL     1       2.060  -5.291   5.492  0.00  0.00    +0.125 A 
BRANCH  34  35
ATOM     35  O   UNL     1       3.287  -5.622   5.010  0.00  0.00    -0.495 OA
ATOM     36  C   UNL     1       4.315  -5.874   5.970  0.00  0.00    +0.277 C 
ENDBRANCH  34  35
ENDBRANCH   6  29
TORSDOF 4
