REMARK  Name = ZINC64208377
REMARK  8 active torsions:
REMARK  status: ('A' for Active; 'I' for Inactive)
REMARK    1  A    between atoms: C_4  and  C_7
REMARK    2  A    between atoms: C_7  and  O_8
REMARK    3  A    between atoms: O_8  and  C_9
REMARK    4  A    between atoms: N_11  and  C_12
REMARK    5  A    between atoms: C_12  and  C_14
REMARK    6  A    between atoms: C_12  and  C_24
REMARK    7  A    between atoms: C_14  and  C_15
REMARK    8  A    between atoms: C_30  and  C_33
REMARK                            x       y       z     vdW  Elec       q    Type
REMARK                         _______ _______ _______ _____ _____    ______ ____
ROOT
ATOM      1  C   UNL     1       7.040  -2.570   2.879  0.00  0.00    +0.166 C 
ENDROOT
BRANCH   1   2
ATOM      2  C   UNL     1       6.994  -3.174   4.259  0.00  0.00    +0.236 C 
ATOM      3  O   UNL     1       6.143  -2.820   5.047  0.00  0.00    -0.274 OA
ATOM      4  N   UNL     1       7.898  -4.107   4.617  0.00  0.00    -0.295 N 
ATOM      5  C   UNL     1       9.009  -4.467   3.722  0.00  0.00    +0.136 C 
ATOM      6  C   UNL     1       9.043  -5.993   3.583  0.00  0.00    +0.179 C 
ATOM      7  O   UNL     1       9.058  -6.585   4.884  0.00  0.00    -0.369 OA
ATOM      8  C   UNL     1       7.895  -6.306   5.667  0.00  0.00    +0.166 C 
ATOM      9  C   UNL     1       7.806  -4.791   5.916  0.00  0.00    +0.144 C 
BRANCH   8  10
ATOM     10  C   UNL     1       7.992  -7.027   6.987  0.00  0.00    -0.017 A 
ATOM     11  C   UNL     1       9.201  -7.088   7.654  0.00  0.00    +0.006 A 
ATOM     12  C   UNL     1       9.290  -7.750   8.864  0.00  0.00    +0.000 A 
ATOM     13  C   UNL     1       8.170  -8.350   9.408  0.00  0.00    +0.000 A 
ATOM     14  C   UNL     1       6.960  -8.288   8.741  0.00  0.00    +0.000 A 
ATOM     15  C   UNL     1       6.870  -7.623   7.533  0.00  0.00    +0.006 A 
ENDBRANCH   8  10
ENDBRANCH   1   2
BRANCH   1  18
ATOM     16  C   UNL     1       5.359  -1.920   1.239  0.00  0.00    +0.401 C 
ATOM     17  O   UNL     1       6.131  -2.249   0.360  0.00  0.00    -0.226 OA
ATOM     18  N   UNL     1       5.718  -2.042   2.532  0.00  0.00    -0.270 N 
ATOM     19  H   UNL     1       5.101  -1.780   3.233  0.00  0.00    +0.153 HD
BRANCH  16  20
ATOM     20  O   UNL     1       4.144  -1.435   0.920  0.00  0.00    -0.446 OA
BRANCH  20  21
ATOM     21  C   UNL     1       3.830  -1.334  -0.470  0.00  0.00    +0.269 C 
BRANCH  21  25
ATOM     22  C   UNL     1      -0.110   0.251  -0.931  0.00  0.00    +0.000 A 
ATOM     23  C   UNL     1       0.976   1.104  -0.875  0.00  0.00    +0.000 A 
ATOM     24  C   UNL     1       2.251   0.592  -0.726  0.00  0.00    +0.007 A 
ATOM     25  C   UNL     1       2.440  -0.775  -0.632  0.00  0.00    -0.010 A 
ATOM     26  C   UNL     1       1.354  -1.628  -0.686  0.00  0.00    +0.007 A 
ATOM     27  C   UNL     1       0.079  -1.115  -0.837  0.00  0.00    +0.000 A 
ENDBRANCH  21  25
ENDBRANCH  20  21
ENDBRANCH  16  20
ENDBRANCH   1  18
BRANCH   1  28
ATOM     28  C   UNL     1       8.065  -1.435   2.853  0.00  0.00    +0.065 C 
BRANCH  28  29
ATOM     29  C   UNL     1       8.214  -0.924   1.443  0.00  0.00    -0.039 C 
ATOM     30  C   UNL     1       7.576   0.132   0.888  0.00  0.00    -0.001 A 
ATOM     31  C   UNL     1       6.589   1.084   1.412  0.00  0.00    +0.010 A 
ATOM     32  C   UNL     1       6.121   2.057   0.599  0.00  0.00    +0.001 A 
ATOM     33  C   UNL     1       6.553   2.180  -0.729  0.00  0.00    +0.002 A 
ATOM     34  C   UNL     1       7.457   1.343  -1.282  0.00  0.00    +0.026 A 
ATOM     35  C   UNL     1       8.016   0.282  -0.517  0.00  0.00    +0.043 A 
ATOM     36  N   UNL     1       8.893  -0.644  -0.820  0.00  0.00    -0.380 N 
ATOM     37  C   UNL     1       9.112  -1.485   0.363  0.00  0.00    +0.144 C 
ATOM     38  H   UNL     1       9.327  -0.753  -1.680  0.00  0.00    +0.160 HD
ENDBRANCH  28  29
ENDBRANCH   1  28
TORSDOF 8
