REMARK  Name = ZINC64676303
REMARK  6 active torsions:
REMARK  status: ('A' for Active; 'I' for Inactive)
REMARK    1  A    between atoms: C_3  and  C_8
REMARK    2  A    between atoms: C_11  and  C_16
REMARK    3  A    between atoms: C_16  and  C_17
REMARK    4  A    between atoms: N_19  and  C_20
REMARK    5  A    between atoms: C_20  and  C_21
REMARK    6  A    between atoms: C_21  and  C_22
REMARK                            x       y       z     vdW  Elec       q    Type
REMARK                         _______ _______ _______ _____ _____    ______ ____
ROOT
ATOM      1  C   UNL     1       3.660   2.165  -0.022  0.00  0.00    +0.090 A 
ATOM      2  C   UNL     1       4.904   1.628  -0.042  0.00  0.00    +0.121 A 
ATOM      3  N   UNL     1       5.815   2.678  -0.043  0.00  0.00    -0.296 N 
ATOM      4  C   UNL     1       7.183   2.849  -0.058  0.00  0.00    +0.041 A 
ATOM      5  C   UNL     1       7.718   4.069  -0.052  0.00  0.00    +0.070 A 
ATOM      6  S   UNL     1       6.266   5.109  -0.025  0.00  0.00    -0.057 S 
ATOM      7  C   UNL     1       5.048   3.814  -0.023  0.00  0.00    +0.178 A 
ATOM      8  N   UNL     1       3.784   3.509  -0.017  0.00  0.00    -0.221 NA
ENDROOT
BRANCH   1  11
ATOM      9  C   UNL     1      -0.017   1.379   0.010  0.00  0.00    +0.002 A 
ATOM     10  C   UNL     1       1.168   2.088   0.002  0.00  0.00    +0.010 A 
ATOM     11  C   UNL     1       2.384   1.408  -0.013  0.00  0.00    +0.003 A 
ATOM     12  C   UNL     1       2.398   0.015  -0.021  0.00  0.00    +0.025 A 
ATOM     13  C   UNL     1       1.207  -0.685  -0.013  0.00  0.00    +0.019 A 
ATOM     14  C   UNL     1       0.002  -0.004   0.002  0.00  0.00    +0.015 A 
ATOM     15 BR   UNL     1       1.223  -2.576  -0.024  0.00  0.00    -0.050 Br
ENDBRANCH   1  11
BRANCH   4  16
ATOM     16  C   UNL     1       8.083   1.641  -0.080  0.00  0.00    +0.150 C 
BRANCH  16  17
ATOM     17  C   UNL     1       8.301   1.151   1.328  0.00  0.00    +0.219 C 
ATOM     18  O   UNL     1       7.777   1.726   2.258  0.00  0.00    -0.275 OA
ATOM     19  N   UNL     1       9.079   0.074   1.554  0.00  0.00    -0.315 N 
ATOM     20  H   UNL     1       9.498  -0.386   0.810  0.00  0.00    +0.149 HD
BRANCH  19  21
ATOM     21  C   UNL     1       9.291  -0.403   2.923  0.00  0.00    +0.108 C 
BRANCH  21  22
ATOM     22  C   UNL     1      10.205  -1.629   2.901  0.00  0.00    +0.049 C 
BRANCH  22  23
ATOM     23  C   UNL     1      10.423  -2.119   4.309  0.00  0.00    -0.072 C 
ATOM     24  C   UNL     1       9.662  -3.071   4.745  0.00  0.00    -0.028 C 
ATOM     25  C   UNL     1       9.752  -3.654   6.125  0.00  0.00    +0.027 C 
ATOM     26  C   UNL     1      11.093  -3.289   6.765  0.00  0.00    +0.004 C 
ATOM     27  C   UNL     1      11.312  -1.779   6.604  0.00  0.00    +0.005 C 
ATOM     28  C   UNL     1      11.513  -1.478   5.116  0.00  0.00    +0.030 C 
ENDBRANCH  22  23
ENDBRANCH  21  22
ENDBRANCH  19  21
ENDBRANCH  16  17
ENDBRANCH   4  16
TORSDOF 6
