REMARK  Name = ZINC63919405
REMARK  4 active torsions:
REMARK  status: ('A' for Active; 'I' for Inactive)
REMARK    1  A    between atoms: N_11  and  C_15
REMARK    2  A    between atoms: C_15  and  C_16
REMARK    3  A    between atoms: N_18  and  C_19
REMARK    4  A    between atoms: C_23  and  C_25
REMARK                            x       y       z     vdW  Elec       q    Type
REMARK                         _______ _______ _______ _____ _____    ______ ____
ROOT
ATOM      1  C   UNL     1       0.368  -3.135  -0.018  0.00  0.00    +0.227 C 
ENDROOT
BRANCH   1  12
ATOM      2  C   UNL     1      -0.025   1.379   0.035  0.00  0.00    +0.002 A 
ATOM      3  C   UNL     1       1.114   2.129   0.027  0.00  0.00    +0.009 A 
ATOM      4  C   UNL     1       2.357   1.474   0.003  0.00  0.00    -0.014 A 
ATOM      5  C   UNL     1       3.586   2.155  -0.006  0.00  0.00    +0.009 A 
ATOM      6  C   UNL     1       4.751   1.448  -0.030  0.00  0.00    +0.003 A 
ATOM      7  C   UNL     1       4.753   0.048  -0.047  0.00  0.00    +0.029 A 
ATOM      8  C   UNL     1       3.587  -0.625  -0.038  0.00  0.00    +0.118 A 
ATOM      9  C   UNL     1       2.369   0.064  -0.013  0.00  0.00    +0.031 A 
ATOM     10  C   UNL     1       1.206  -0.704  -0.004  0.00  0.00    +0.061 A 
ATOM     11  C   UNL     1      -0.002  -0.010   0.020  0.00  0.00    +0.025 A 
ATOM     12  N   UNL     1       1.401  -2.095  -0.022  0.00  0.00    -0.194 N 
ATOM     13  S   UNL     1       3.063  -2.315  -0.050  0.00  0.00    +0.076 S 
ATOM     14  O   UNL     1       3.443  -2.896   1.190  0.00  0.00    -0.150 OA
ATOM     15  O   UNL     1       3.407  -2.867  -1.313  0.00  0.00    -0.150 OA
ENDBRANCH   1  12
BRANCH   1  16
ATOM     16  C   UNL     1      -0.094  -3.389  -1.429  0.00  0.00    +0.236 C 
ATOM     17  O   UNL     1       0.390  -2.763  -2.348  0.00  0.00    -0.274 OA
ATOM     18  N   UNL     1      -1.047  -4.311  -1.671  0.00  0.00    -0.284 N 
ATOM     19  H   UNL     1      -1.387  -4.859  -0.945  0.00  0.00    +0.155 HD
BRANCH  18  20
ATOM     20  C   UNL     1      -1.546  -4.479  -2.967  0.00  0.00    +0.034 A 
ATOM     21  C   UNL     1      -2.886  -4.795  -3.161  0.00  0.00    +0.023 A 
ATOM     22  C   UNL     1      -3.385  -4.963  -4.439  0.00  0.00    +0.002 A 
ATOM     23  C   UNL     1      -2.557  -4.817  -5.533  0.00  0.00    +0.010 A 
ATOM     24  C   UNL     1      -1.207  -4.500  -5.350  0.00  0.00    +0.000 A 
ATOM     25  C   UNL     1      -0.705  -4.326  -4.058  0.00  0.00    +0.033 A 
BRANCH  24  26
ATOM     26  C   UNL     1      -0.321  -4.344  -6.515  0.00  0.00    +0.076 C 
ATOM     27  N   UNL     1       0.952  -4.057  -6.502  0.00  0.00    -0.154 NA
ATOM     28  N   UNL     1       1.487  -3.985  -7.784  0.00  0.00    -0.161 NA
ATOM     29  C   UNL     1       0.606  -4.219  -8.702  0.00  0.00    +0.114 C 
ATOM     30  C   UNL     1      -0.696  -4.491  -7.976  0.00  0.00    +0.107 C 
ENDBRANCH  24  26
ENDBRANCH  18  20
ENDBRANCH   1  16
TORSDOF 4
