REMARK  Name = ZINC39360029
REMARK  8 active torsions:
REMARK  status: ('A' for Active; 'I' for Inactive)
REMARK    1  A    between atoms: C_1  and  C_2
REMARK    2  A    between atoms: C_2  and  N_3
REMARK    3  A    between atoms: N_3  and  C_4
REMARK    4  A    between atoms: C_4  and  C_5
REMARK    5  A    between atoms: C_6  and  C_8
REMARK    6  A    between atoms: N_10  and  C_13
REMARK    7  A    between atoms: N_18  and  C_20
REMARK    8  A    between atoms: C_20  and  C_21
REMARK                            x       y       z     vdW  Elec       q    Type
REMARK                         _______ _______ _______ _____ _____    ______ ____
ROOT
ATOM      1  C   UNL     1       5.382  -0.229  -2.501  0.00  0.00    +0.075 C 
ATOM      2  C   UNL     1       5.257  -1.141  -3.725  0.00  0.00    +0.020 C 
ATOM      3  C   UNL     1       6.575  -1.117  -4.504  0.00  0.00    -0.017 C 
ATOM      4  C   UNL     1       6.908   0.326  -4.889  0.00  0.00    -0.078 C 
ATOM      5  N   UNL     1       7.040   1.141  -3.676  0.00  0.00    +0.385 N 
ATOM      6  C   UNL     1       5.760   1.182  -2.959  0.00  0.00    -0.054 C 
ATOM      7  H   UNL     1       7.746   0.740  -3.077  0.00  0.00    -0.081 HD
ENDROOT
BRANCH   1  10
ATOM      8  C   UNL     1       2.594  -0.387  -0.188  0.00  0.00    +0.120 C 
ATOM      9  C   UNL     1       3.898  -0.571  -0.487  0.00  0.00    +0.119 C 
ATOM     10  N   UNL     1       4.102  -0.186  -1.790  0.00  0.00    -0.255 N 
ATOM     11  N   UNL     1       2.916   0.243  -2.312  0.00  0.00    -0.161 NA
ATOM     12  N   UNL     1       1.960   0.124  -1.342  0.00  0.00    -0.259 N 
ATOM     13  H   UNL     1       2.988   1.194  -2.639  0.00  0.00    +0.168 HD
ATOM     14  H   UNL     1       1.021   0.351  -1.429  0.00  0.00    +0.168 HD
BRANCH   8  16
ATOM     15  N   UNL     1       1.508  -1.913   1.365  0.00  0.00    -0.297 N 
ATOM     16  C   UNL     1       1.955  -0.671   1.095  0.00  0.00    +0.263 C 
ATOM     17  O   UNL     1       1.825   0.215   1.921  0.00  0.00    -0.269 OA
BRANCH  15  19
ATOM     18  C   UNL     1       1.730  -2.676   3.678  0.00  0.00    +0.024 C 
ATOM     19  C   UNL     1       0.766  -2.173   2.601  0.00  0.00    +0.105 C 
ENDBRANCH  15  19
BRANCH  15  20
ATOM     20  C   UNL     1       1.763  -3.005   0.421  0.00  0.00    +0.105 C 
ATOM     21  C   UNL     1       0.614  -3.087  -0.587  0.00  0.00    +0.024 C 
ENDBRANCH  15  20
ENDBRANCH   8  16
ENDBRANCH   1  10
BRANCH   5  22
ATOM     22  C   UNL     1       7.435   2.507  -4.046  0.00  0.00    -0.025 C 
BRANCH  22  23
ATOM     23  C   UNL     1       8.810   2.482  -4.663  0.00  0.00    +0.000 A 
ATOM     24  H   UNL     1      10.058   2.567  -2.997  0.00  0.00    +0.166 HD
ATOM     25  C   UNL     1       9.063   2.425  -5.980  0.00  0.00    +0.029 A 
ATOM     26  C   UNL     1      10.520   2.420  -6.136  0.00  0.00    -0.000 A 
ATOM     27  C   UNL     1      11.377   2.374  -7.237  0.00  0.00    +0.010 A 
ATOM     28  C   UNL     1      12.730   2.384  -7.044  0.00  0.00    +0.001 A 
ATOM     29  C   UNL     1      13.259   2.441  -5.762  0.00  0.00    +0.002 A 
ATOM     30  C   UNL     1      12.431   2.487  -4.661  0.00  0.00    +0.026 A 
ATOM     31  C   UNL     1      11.051   2.478  -4.835  0.00  0.00    +0.047 A 
ATOM     32  N   UNL     1       9.986   2.520  -3.963  0.00  0.00    -0.360 N 
ENDBRANCH  22  23
ENDBRANCH   5  22
TORSDOF 6
