REMARK  Name = ZINC20412992
REMARK  6 active torsions:
REMARK  status: ('A' for Active; 'I' for Inactive)
REMARK    1  A    between atoms: C_1  and  C_2
REMARK    2  A    between atoms: C_3  and  C_27
REMARK    3  A    between atoms: C_4  and  C_12
REMARK    4  A    between atoms: C_15  and  C_17
REMARK    5  A    between atoms: C_17  and  O_18
REMARK    6  A    between atoms: O_18  and  C_19
REMARK                            x       y       z     vdW  Elec       q    Type
REMARK                         _______ _______ _______ _____ _____    ______ ____
ROOT
ATOM      1  C   UNL     1      -4.902   3.067  -2.471  0.00  0.00    +0.061 C 
ATOM      2  C   UNL     1      -4.210   2.749  -1.171  0.00  0.00    +0.018 C 
ATOM      3  C   UNL     1      -3.334   1.735  -1.134  0.00  0.00    +0.063 C 
ATOM      4  C   UNL     1      -2.582   1.343   0.109  0.00  0.00    +0.213 C 
ATOM      5  N   UNL     1      -3.163   2.021   1.264  0.00  0.00    -0.218 N 
ATOM      6  C   UNL     1      -4.056   3.038   1.166  0.00  0.00    +0.219 A 
ATOM      7  N   UNL     1      -4.364   3.420   2.375  0.00  0.00    -0.201 NA
ATOM      8  C   UNL     1      -3.699   2.675   3.263  0.00  0.00    +0.247 A 
ATOM      9  N   UNL     1      -2.954   1.807   2.625  0.00  0.00    -0.156 NA
ATOM     10  N   UNL     1      -4.498   3.508  -0.063  0.00  0.00    -0.287 N 
ATOM     11  H   UNL     1      -5.058   4.449  -0.171  0.00  0.00    +0.155 HD
ENDROOT
BRANCH   4  12
ATOM     12  C   UNL     1      -1.135   1.741  -0.032  0.00  0.00    +0.135 A 
ATOM     13  C   UNL     1      -0.082   0.906   0.007  0.00  0.00    +0.047 A 
ATOM     14  C   UNL     1       1.076   1.698  -0.171  0.00  0.00    +0.048 A 
ATOM     15  C   UNL     1       0.660   2.971  -0.304  0.00  0.00    +0.143 A 
ATOM     16  O   UNL     1      -0.680   2.991  -0.216  0.00  0.00    -0.459 OA
BRANCH  15  17
ATOM     17  C   UNL     1       1.548   4.170  -0.515  0.00  0.00    +0.303 C 
BRANCH  17  18
ATOM     18  O   UNL     1       1.739   4.381  -1.915  0.00  0.00    -0.481 OA
BRANCH  18  19
ATOM     19  C   UNL     1       2.521   5.432  -2.280  0.00  0.00    +0.156 A 
ATOM     20  C   UNL     1       3.092   6.242  -1.311  0.00  0.00    +0.051 A 
ATOM     21  C   UNL     1       3.887   7.309  -1.683  0.00  0.00    +0.042 A 
ATOM     22  C   UNL     1       4.114   7.571  -3.023  0.00  0.00    +0.126 A 
ATOM     23  C   UNL     1       3.545   6.764  -3.994  0.00  0.00    +0.080 A 
ATOM     24  C   UNL     1       2.753   5.691  -3.625  0.00  0.00    +0.168 A 
ATOM     25  F   UNL     1       2.203   4.901  -4.571  0.00  0.00    -0.202 F 
ATOM     26  F   UNL     1       4.892   8.615  -3.385  0.00  0.00    -0.205 F 
ENDBRANCH  18  19
ENDBRANCH  17  18
ENDBRANCH  15  17
ENDBRANCH   4  12
BRANCH   3  27
ATOM     27  C   UNL     1      -3.107   0.998  -2.321  0.00  0.00    +0.241 C 
ATOM     28  O   UNL     1      -3.669  -0.069  -2.492  0.00  0.00    -0.271 OA
ATOM     29  N   UNL     1      -2.268   1.476  -3.261  0.00  0.00    -0.325 N 
ATOM     30  H   UNL     1      -2.092   0.903  -4.183  0.00  0.00    +0.145 HD
ATOM     31  H   UNL     1      -1.760   2.439  -3.106  0.00  0.00    +0.145 HD
ENDBRANCH   3  27
TORSDOF 5
