REMARK  Name = ZINC39934418
REMARK  7 active torsions:
REMARK  status: ('A' for Active; 'I' for Inactive)
REMARK    1  A    between atoms: C_3  and  C_6
REMARK    2  A    between atoms: C_10  and  C_14
REMARK    3  A    between atoms: C_14  and  N_15
REMARK    4  A    between atoms: N_18  and  C_21
REMARK    5  A    between atoms: C_21  and  C_22
REMARK    6  A    between atoms: N_24  and  C_25
REMARK    7  A    between atoms: C_25  and  C_30
REMARK                            x       y       z     vdW  Elec       q    Type
REMARK                         _______ _______ _______ _____ _____    ______ ____
ROOT
ATOM      1  N   UNL     1       6.796  -0.059   5.196  0.00  0.00    -0.293 NA
ATOM      2  C   UNL     1       5.779   0.758   5.871  0.00  0.00    +0.100 C 
ATOM      3  C   UNL     1       5.114  -0.069   6.974  0.00  0.00    +0.100 C 
ATOM      4  N   UNL     1       6.136  -0.523   7.926  0.00  0.00    -0.292 NA
ATOM      5  C   UNL     1       7.154  -1.341   7.251  0.00  0.00    +0.100 C 
ATOM      6  C   UNL     1       7.819  -0.513   6.149  0.00  0.00    +0.100 C 
ENDROOT
BRANCH   1   7
ATOM      7  C   UNL     1       7.406   0.676   4.080  0.00  0.00    +0.158 C 
BRANCH   7  12
ATOM      8  C   UNL     1       3.665   1.643  -0.025  0.00  0.00    -0.009 C 
ATOM      9  C   UNL     1       4.518   1.361   1.034  0.00  0.00    +0.076 C 
ATOM     10  C   UNL     1       5.867   1.797   0.944  0.00  0.00    +0.112 C 
ATOM     11  N   UNL     1       6.725   1.561   1.914  0.00  0.00    -0.226 NA
ATOM     12  C   UNL     1       6.372   0.911   3.009  0.00  0.00    +0.138 C 
ATOM     13  N   UNL     1       5.152   0.462   3.198  0.00  0.00    -0.160 NA
ATOM     14  C   UNL     1       4.186   0.635   2.291  0.00  0.00    +0.272 C 
ATOM     15  O   UNL     1       3.059   0.210   2.488  0.00  0.00    -0.268 OA
ATOM     16  S   UNL     1       5.996   2.619  -0.625  0.00  0.00    -0.100 S 
ATOM     17  C   UNL     1       4.263   2.395  -1.193  0.00  0.00    +0.113 C 
BRANCH   8  20
ATOM     18  C   UNL     1      -0.016   1.358   0.009  0.00  0.00    +0.008 A 
ATOM     19  C   UNL     1       1.168   2.041   0.002  0.00  0.00    +0.016 A 
ATOM     20  C   UNL     1       2.323   1.248  -0.013  0.00  0.00    +0.017 A 
ATOM     21  S   UNL     1       1.635  -0.398  -0.016  0.00  0.00    -0.097 S 
ATOM     22  C   UNL     1       0.002  -0.004   0.002  0.00  0.00    +0.046 A 
ENDBRANCH   8  20
ENDBRANCH   7  12
ENDBRANCH   1   7
BRANCH   4  23
ATOM     23  C   UNL     1       5.527  -1.258   9.043  0.00  0.00    +0.180 C 
BRANCH  23  24
ATOM     24  C   UNL     1       6.561  -1.494  10.114  0.00  0.00    +0.228 C 
ATOM     25  O   UNL     1       7.694  -1.089   9.961  0.00  0.00    -0.274 OA
ATOM     26  N   UNL     1       6.227  -2.154  11.240  0.00  0.00    -0.296 N 
ATOM     27  H   UNL     1       5.320  -2.478  11.361  0.00  0.00    +0.150 HD
BRANCH  26  28
ATOM     28  C   UNL     1       7.232  -2.382  12.281  0.00  0.00    +0.121 C 
ATOM     29  C   UNL     1       8.370  -3.267  11.731  0.00  0.00    +0.041 C 
ATOM     30  C   UNL     1       8.757  -4.174  12.925  0.00  0.00    +0.003 C 
ATOM     31  C   UNL     1       7.387  -4.477  13.582  0.00  0.00    +0.003 C 
ATOM     32  C   UNL     1       6.607  -3.152  13.457  0.00  0.00    +0.041 C 
BRANCH  28  33
ATOM     33  C   UNL     1       7.773  -1.096  12.750  0.00  0.00    +0.088 C 
ATOM     34  N   UNL     1       8.190  -0.104  13.112  0.00  0.00    -0.194 NA
ENDBRANCH  28  33
ENDBRANCH  26  28
ENDBRANCH  23  24
ENDBRANCH   4  23
TORSDOF 7
