REMARK  Name = ZINC09046579
REMARK  15 active torsions:
REMARK  status: ('A' for Active; 'I' for Inactive)
REMARK    1  A    between atoms: C_1  and  C_2
REMARK    2  A    between atoms: C_2  and  C_3
REMARK    3  A    between atoms: C_3  and  O_4
REMARK    4  A    between atoms: O_4  and  C_5
REMARK    5  A    between atoms: C_8  and  C_11
REMARK    6  A    between atoms: C_14  and  C_15
REMARK    7  A    between atoms: C_14  and  O_20
REMARK    8  A    between atoms: N_25  and  C_26
REMARK    9  A    between atoms: C_26  and  C_27
REMARK   10  A    between atoms: C_27  and  C_28
REMARK   11  A    between atoms: C_28  and  N_64
REMARK   12  A    between atoms: C_29  and  C_30
REMARK   13  A    between atoms: C_29  and  N_64
REMARK   14  A    between atoms: C_31  and  C_32
REMARK   15  A    between atoms: C_31  and  N_64
REMARK                            x       y       z     vdW  Elec       q    Type
REMARK                         _______ _______ _______ _____ _____    ______ ____
ROOT
ATOM      1  C   UNL     1       2.961  -4.532  -4.793  0.00  0.00    +0.144 C 
ATOM      2  C   UNL     1       4.457  -4.657  -4.615  0.00  0.00    +0.072 C 
ATOM      3  C   UNL     1       5.121  -5.373  -3.629  0.00  0.00    +0.140 C 
ATOM      4  C   UNL     1       5.036  -3.909  -5.643  0.00  0.00    +0.249 C 
ATOM      5  O   UNL     1       6.231  -3.765  -5.836  0.00  0.00    -0.282 OA
ATOM      6  C   UNL     1       3.945  -3.317  -6.461  0.00  0.00    +0.288 C 
ATOM      7  O   UNL     1       4.110  -2.609  -7.434  0.00  0.00    -0.266 OA
ATOM      8  N   UNL     1       2.749  -3.680  -5.966  0.00  0.00    -0.284 N 
ENDROOT
BRANCH   1  12
ATOM      9  C   UNL     1       1.222  -2.721  -1.335  0.00  0.00    +0.121 A 
ATOM     10  C   UNL     1       1.862  -1.936  -2.283  0.00  0.00    +0.046 A 
ATOM     11  C   UNL     1       2.429  -2.525  -3.397  0.00  0.00    +0.009 A 
ATOM     12  C   UNL     1       2.348  -3.893  -3.573  0.00  0.00    -0.022 A 
ATOM     13  C   UNL     1       1.706  -4.678  -2.633  0.00  0.00    +0.009 A 
ATOM     14  C   UNL     1       1.143  -4.094  -1.514  0.00  0.00    +0.046 A 
BRANCH   9  15
ATOM     15  O   UNL     1       0.669  -2.145  -0.235  0.00  0.00    -0.492 OA
BRANCH  15  16
ATOM     16  C   UNL     1       0.790  -0.726  -0.116  0.00  0.00    +0.229 C 
BRANCH  16  18
ATOM     17  C   UNL     1       0.241   1.256   1.303  0.00  0.00    +0.007 C 
ATOM     18  C   UNL     1       0.112  -0.263   1.176  0.00  0.00    +0.038 C 
ENDBRANCH  16  18
ENDBRANCH  15  16
ENDBRANCH   9  15
ENDBRANCH   1  12
BRANCH   3  19
ATOM     19  C   UNL     1       6.532  -5.488  -3.666  0.00  0.00    +0.054 A 
ATOM     20  C   UNL     1       7.457  -5.278  -2.648  0.00  0.00    +0.019 A 
ATOM     21  C   UNL     1       8.779  -5.462  -2.960  0.00  0.00    +0.008 A 
ATOM     22  C   UNL     1       9.118  -5.833  -4.225  0.00  0.00    +0.046 A 
ATOM     23  S   UNL     1       7.587  -5.946  -5.030  0.00  0.00    -0.094 S 
ENDBRANCH   3  19
BRANCH   3  24
ATOM     24  O   UNL     1       4.422  -5.961  -2.632  0.00  0.00    -0.505 OA
ATOM     25  H   UNL     1       5.053  -6.430  -2.014  0.00  0.00    +0.292 HD
ENDBRANCH   3  24
BRANCH   8  26
ATOM     26  C   UNL     1       1.447  -3.288  -6.511  0.00  0.00    +0.107 C 
BRANCH  26  27
ATOM     27  C   UNL     1       0.990  -1.984  -5.853  0.00  0.00    +0.000 C 
BRANCH  27  28
ATOM     28  C   UNL     1      -0.370  -1.575  -6.421  0.00  0.00    -0.077 C 
BRANCH  28  29
ATOM     29  N   UNL     1      -0.787  -0.304  -5.792  0.00  0.00    +0.379 N 
ATOM     30  H   UNL     1      -0.025   0.378  -5.880  0.00  0.00    -0.082 HD
BRANCH  29  31
ATOM     31  C   UNL     1      -1.987   0.226  -6.472  0.00  0.00    -0.082 C 
ATOM     32  C   UNL     1      -1.558   0.872  -7.791  0.00  0.00    -0.017 C 
ENDBRANCH  29  31
BRANCH  29  33
ATOM     33  C   UNL     1      -1.074  -0.522  -4.358  0.00  0.00    -0.082 C 
ATOM     34  C   UNL     1      -1.196   0.839  -3.669  0.00  0.00    -0.017 C 
ENDBRANCH  29  33
ENDBRANCH  28  29
ENDBRANCH  27  28
ENDBRANCH  26  27
ENDBRANCH   8  26
TORSDOF 12
