REMARK  Name = ZINC17178368
REMARK  4 active torsions:
REMARK  status: ('A' for Active; 'I' for Inactive)
REMARK    1  A    between atoms: C_4  and  C_7
REMARK    2  A    between atoms: C_7  and  C_27
REMARK    3  A    between atoms: N_11  and  C_21
REMARK    4  A    between atoms: N_13  and  C_14
REMARK                            x       y       z     vdW  Elec       q    Type
REMARK                         _______ _______ _______ _____ _____    ______ ____
ROOT
ATOM      1  C   UNL     1       1.997   0.002   0.332  0.00  0.00    +0.210 C 
ATOM      2  N   UNL     1       1.768  -1.311   0.938  0.00  0.00    -0.273 N 
ATOM      3  C   UNL     1       2.411  -1.775   2.001  0.00  0.00    +0.310 C 
ATOM      4  O   UNL     1       2.021  -2.846   2.426  0.00  0.00    -0.252 OA
ATOM      5  N   UNL     1       3.427  -1.226   2.667  0.00  0.00    -0.232 N 
ATOM      6  C   UNL     1       3.980  -0.011   2.278  0.00  0.00    +0.162 C 
ATOM      7  N   UNL     1       4.629   0.751   3.112  0.00  0.00    -0.260 NA
ATOM      8  S   UNL     1       3.751   0.439   0.576  0.00  0.00    -0.051 S 
ATOM      9  H   UNL     1       1.097  -1.883   0.533  0.00  0.00    +0.152 HD
ENDROOT
BRANCH   1  13
ATOM     10  C   UNL     1      -0.493   2.917   2.216  0.00  0.00    +0.000 A 
ATOM     11  C   UNL     1       0.697   3.302   1.627  0.00  0.00    +0.000 A 
ATOM     12  C   UNL     1       1.503   2.358   1.017  0.00  0.00    +0.007 A 
ATOM     13  C   UNL     1       1.119   1.030   0.997  0.00  0.00    -0.005 A 
ATOM     14  C   UNL     1      -0.070   0.646   1.588  0.00  0.00    +0.007 A 
ATOM     15  C   UNL     1      -0.877   1.589   2.196  0.00  0.00    +0.000 A 
ENDBRANCH   1  13
BRANCH   7  16
ATOM     16  C   UNL     1       4.398   0.623   4.553  0.00  0.00    +0.108 C 
ATOM     17  C   UNL     1       3.770   1.912   5.086  0.00  0.00    +0.027 C 
ATOM     18  C   UNL     1       3.529   1.778   6.591  0.00  0.00    +0.002 C 
ATOM     19  C   UNL     1       4.861   1.528   7.301  0.00  0.00    +0.000 C 
ATOM     20  C   UNL     1       5.489   0.238   6.768  0.00  0.00    +0.002 C 
ATOM     21  C   UNL     1       5.730   0.372   5.263  0.00  0.00    +0.027 C 
ENDBRANCH   7  16
BRANCH   5  22
ATOM     22  C   UNL     1       3.973  -1.919   3.837  0.00  0.00    +0.085 C 
ATOM     23  C   UNL     1       4.576  -3.256   3.402  0.00  0.00    +0.023 C 
ATOM     24  C   UNL     1       5.146  -3.980   4.624  0.00  0.00    +0.002 C 
ATOM     25  C   UNL     1       4.028  -4.230   5.637  0.00  0.00    +0.000 C 
ATOM     26  C   UNL     1       3.425  -2.893   6.071  0.00  0.00    +0.002 C 
ATOM     27  C   UNL     1       2.854  -2.169   4.850  0.00  0.00    +0.023 C 
ENDBRANCH   5  22
BRANCH   1  28
ATOM     28  C   UNL     1       1.682  -0.056  -1.164  0.00  0.00    +0.425 C 
ATOM     29  F   UNL     1       1.919   1.198  -1.740  0.00  0.00    -0.167 F 
ATOM     30  F   UNL     1       2.500  -1.012  -1.776  0.00  0.00    -0.167 F 
ATOM     31  F   UNL     1       0.340  -0.406  -1.345  0.00  0.00    -0.167 F 
ENDBRANCH   1  28
TORSDOF 4
