REMARK  Name = ZINC59941922
REMARK  7 active torsions:
REMARK  status: ('A' for Active; 'I' for Inactive)
REMARK    1  A    between atoms: C_4  and  C_7
REMARK    2  A    between atoms: C_7  and  C_8
REMARK    3  A    between atoms: C_12  and  S_16
REMARK    4  A    between atoms: S_16  and  C_17
REMARK    5  A    between atoms: C_17  and  C_18
REMARK    6  A    between atoms: N_20  and  C_21
REMARK    7  A    between atoms: C_26  and  C_27
REMARK                            x       y       z     vdW  Elec       q    Type
REMARK                         _______ _______ _______ _____ _____    ______ ____
ROOT
ATOM      1  C   UNL     1       4.209  -0.981   1.359  0.00  0.00    +0.087 A 
ATOM      2  C   UNL     1       4.918  -0.002   2.065  0.00  0.00    +0.259 A 
ATOM      3  O   UNL     1       5.188   1.068   1.543  0.00  0.00    -0.267 OA
ATOM      4  N   UNL     1       5.297  -0.262   3.334  0.00  0.00    -0.302 N 
ATOM      5  C   UNL     1       4.990  -1.458   3.907  0.00  0.00    +0.173 A 
ATOM      6  N   UNL     1       4.324  -2.383   3.246  0.00  0.00    -0.185 NA
ATOM      7  C   UNL     1       3.918  -2.179   1.990  0.00  0.00    +0.281 A 
ATOM      8  O   UNL     1       3.229  -3.142   1.334  0.00  0.00    -0.265 OA
ATOM      9  H   UNL     1       5.789   0.405   3.839  0.00  0.00    +0.171 HD
ENDROOT
BRANCH   1  10
ATOM     10  C   UNL     1       3.766  -0.734  -0.060  0.00  0.00    +0.081 C 
BRANCH  10  14
ATOM     11  C   UNL     1       0.037   1.350  -0.048  0.00  0.00    +0.000 A 
ATOM     12  C   UNL     1       1.224   2.058  -0.049  0.00  0.00    +0.000 A 
ATOM     13  C   UNL     1       2.431   1.383  -0.053  0.00  0.00    +0.004 A 
ATOM     14  C   UNL     1       2.451   0.001  -0.055  0.00  0.00    -0.043 A 
ATOM     15  C   UNL     1       1.264  -0.707  -0.053  0.00  0.00    +0.004 A 
ATOM     16  C   UNL     1       0.057  -0.033  -0.051  0.00  0.00    +0.000 A 
ENDBRANCH  10  14
ENDBRANCH   1  10
BRANCH   5  17
ATOM     17  S   UNL     1       5.495  -1.777   5.565  0.00  0.00    -0.078 S 
BRANCH  17  18
ATOM     18  C   UNL     1       4.882  -3.452   5.896  0.00  0.00    +0.173 C 
BRANCH  18  19
ATOM     19  C   UNL     1       5.252  -3.853   7.301  0.00  0.00    +0.227 C 
ATOM     20  O   UNL     1       5.867  -3.085   8.009  0.00  0.00    -0.275 OA
ATOM     21  N   UNL     1       4.897  -5.066   7.771  0.00  0.00    -0.284 N 
ATOM     22  H   UNL     1       4.337  -5.649   7.235  0.00  0.00    +0.155 HD
BRANCH  21  23
ATOM     23  C   UNL     1       5.338  -5.484   9.031  0.00  0.00    +0.045 A 
ATOM     24  C   UNL     1       6.499  -4.949   9.575  0.00  0.00    +0.024 A 
ATOM     25  C   UNL     1       6.931  -5.364  10.819  0.00  0.00    +0.002 A 
ATOM     26  C   UNL     1       6.211  -6.312  11.523  0.00  0.00    +0.001 A 
ATOM     27  C   UNL     1       5.056  -6.847  10.984  0.00  0.00    +0.014 A 
ATOM     28  C   UNL     1       4.614  -6.431   9.742  0.00  0.00    +0.076 A 
BRANCH  28  29
ATOM     29  C   UNL     1       3.351  -7.009   9.159  0.00  0.00    +0.419 C 
ATOM     30  F   UNL     1       2.804  -7.934  10.055  0.00  0.00    -0.166 F 
ATOM     31  F   UNL     1       2.430  -5.981   8.930  0.00  0.00    -0.166 F 
ATOM     32  F   UNL     1       3.646  -7.649   7.950  0.00  0.00    -0.166 F 
ENDBRANCH  28  29
ENDBRANCH  21  23
ENDBRANCH  18  19
ENDBRANCH  17  18
ENDBRANCH   5  17
TORSDOF 7
