REMARK  Name = ZINC34772226
REMARK  9 active torsions:
REMARK  status: ('A' for Active; 'I' for Inactive)
REMARK    1  A    between atoms: C_4  and  C_7
REMARK    2  A    between atoms: C_7  and  C_8
REMARK    3  A    between atoms: C_7  and  N_14
REMARK    4  A    between atoms: C_15  and  C_17
REMARK    5  A    between atoms: C_17  and  C_18
REMARK    6  A    between atoms: C_24  and  C_26
REMARK    7  A    between atoms: C_26  and  N_27
REMARK    8  A    between atoms: N_27  and  C_28
REMARK    9  A    between atoms: C_31  and  C_33
REMARK                            x       y       z     vdW  Elec       q    Type
REMARK                         _______ _______ _______ _____ _____    ______ ____
ROOT
ATOM      1  C   UNL     1       5.991  -3.926  -2.927  0.00  0.00    +0.059 A 
ATOM      2  C   UNL     1       6.490  -5.178  -2.780  0.00  0.00    +0.072 A 
ATOM      3  S   UNL     1       8.090  -4.991  -3.550  0.00  0.00    -0.060 S 
ATOM      4  C   UNL     1       7.957  -3.367  -3.971  0.00  0.00    +0.165 A 
ATOM      5  N   UNL     1       6.758  -3.042  -3.537  0.00  0.00    -0.229 NA
ATOM      6  N   UNL     1       8.886  -2.565  -4.623  0.00  0.00    -0.263 N 
ATOM      7  C   UNL     1      10.073  -3.080  -5.001  0.00  0.00    +0.236 C 
ATOM      8  O   UNL     1      10.330  -4.243  -4.772  0.00  0.00    -0.274 OA
ATOM      9  H   UNL     1       8.681  -1.635  -4.806  0.00  0.00    +0.157 HD
ENDROOT
BRANCH   1  10
ATOM     10  C   UNL     1       4.619  -3.561  -2.422  0.00  0.00    +0.151 C 
BRANCH  10  12
ATOM     11  N   UNL     1       3.611  -1.865  -0.930  0.00  0.00    -0.304 N 
ATOM     12  C   UNL     1       4.721  -2.370  -1.504  0.00  0.00    +0.220 C 
ATOM     13  O   UNL     1       5.802  -1.868  -1.281  0.00  0.00    -0.275 OA
ATOM     14  H   UNL     1       2.747  -2.267  -1.108  0.00  0.00    +0.150 HD
BRANCH  11  15
ATOM     15  C   UNL     1       3.711  -0.707  -0.038  0.00  0.00    +0.134 C 
BRANCH  15  19
ATOM     16  C   UNL     1      -0.017   1.378   0.010  0.00  0.00    +0.000 A 
ATOM     17  C   UNL     1       1.171   2.086   0.002  0.00  0.00    +0.000 A 
ATOM     18  C   UNL     1       2.377   1.411  -0.013  0.00  0.00    +0.006 A 
ATOM     19  C   UNL     1       2.396   0.029  -0.020  0.00  0.00    -0.023 A 
ATOM     20  C   UNL     1       1.208  -0.679  -0.012  0.00  0.00    +0.006 A 
ATOM     21  C   UNL     1       0.002  -0.004   0.002  0.00  0.00    +0.000 A 
ENDBRANCH  15  19
BRANCH  15  22
ATOM     22  C   UNL     1       4.044  -1.175   1.356  0.00  0.00    -0.023 A 
ATOM     23  C   UNL     1       3.455  -2.320   1.860  0.00  0.00    +0.006 A 
ATOM     24  C   UNL     1       3.760  -2.748   3.138  0.00  0.00    +0.000 A 
ATOM     25  C   UNL     1       4.654  -2.033   3.912  0.00  0.00    +0.000 A 
ATOM     26  C   UNL     1       5.243  -0.888   3.408  0.00  0.00    +0.000 A 
ATOM     27  C   UNL     1       4.941  -0.462   2.128  0.00  0.00    +0.006 A 
ENDBRANCH  15  22
ENDBRANCH  11  15
ENDBRANCH  10  12
ENDBRANCH   1  10
BRANCH   7  28
ATOM     28  C   UNL     1      11.081  -2.210  -5.708  0.00  0.00    +0.204 C 
BRANCH  28  29
ATOM     29  N   UNL     1      12.279  -2.998  -6.011  0.00  0.00    -0.289 N 
ATOM     30  C   UNL     1      13.289  -3.056  -5.121  0.00  0.00    +0.219 C 
ATOM     31  O   UNL     1      13.207  -2.457  -4.070  0.00  0.00    -0.275 OA
BRANCH  30  32
ATOM     32  C   UNL     1      14.521  -3.866  -5.432  0.00  0.00    +0.075 C 
ATOM     33  C   UNL     1      14.129  -5.330  -5.642  0.00  0.00    +0.013 C 
ATOM     34  C   UNL     1      15.380  -6.153  -5.958  0.00  0.00    +0.001 C 
ATOM     35  C   UNL     1      16.365  -6.051  -4.792  0.00  0.00    +0.000 C 
ATOM     36  C   UNL     1      16.757  -4.587  -4.581  0.00  0.00    +0.001 C 
ATOM     37  C   UNL     1      15.506  -3.765  -4.266  0.00  0.00    +0.013 C 
ENDBRANCH  30  32
BRANCH  29  38
ATOM     38  C   UNL     1      12.378  -3.722  -7.280  0.00  0.00    +0.077 C 
ATOM     39  C   UNL     1      11.297  -3.458  -8.330  0.00  0.00    +0.024 C 
ATOM     40  C   UNL     1      11.318  -4.787  -7.571  0.00  0.00    +0.024 C 
ENDBRANCH  29  38
ENDBRANCH  28  29
ENDBRANCH   7  28
TORSDOF 9
