REMARK  Name = ZINC53733587
REMARK  9 active torsions:
REMARK  status: ('A' for Active; 'I' for Inactive)
REMARK    1  A    between atoms: C_1  and  C_2
REMARK    2  A    between atoms: C_2  and  C_4
REMARK    3  A    between atoms: C_2  and  N_16
REMARK    4  A    between atoms: N_19  and  C_20
REMARK    5  A    between atoms: C_20  and  C_21
REMARK    6  A    between atoms: C_24  and  O_29
REMARK    7  A    between atoms: C_25  and  O_27
REMARK    8  A    between atoms: O_27  and  C_28
REMARK    9  A    between atoms: O_29  and  C_30
REMARK                            x       y       z     vdW  Elec       q    Type
REMARK                         _______ _______ _______ _____ _____    ______ ____
ROOT
ATOM      1  N   UNL     1       0.688  -0.476  -1.203  0.00  0.00    -0.293 N 
ATOM      2  C   UNL     1       0.006  -0.608  -2.358  0.00  0.00    +0.300 C 
ATOM      3  O   UNL     1      -1.178  -0.335  -2.400  0.00  0.00    -0.253 OA
ATOM      4  N   UNL     1       0.637  -1.043  -3.467  0.00  0.00    -0.295 N 
ATOM      5  H   UNL     1       1.632  -0.695  -1.170  0.00  0.00    +0.151 HD
ATOM      6  H   UNL     1       1.582  -1.261  -3.434  0.00  0.00    +0.151 HD
ENDROOT
BRANCH   1   8
ATOM      7  C   UNL     1      -0.019   1.526   0.010  0.00  0.00    +0.033 C 
ATOM      8  C   UNL     1       0.002  -0.004   0.002  0.00  0.00    +0.102 C 
BRANCH   8   9
ATOM      9  C   UNL     1       0.731  -0.503   1.223  0.00  0.00    -0.025 A 
ATOM     10  C   UNL     1       2.115  -0.512   1.244  0.00  0.00    +0.007 A 
ATOM     11  C   UNL     1       2.792  -0.968   2.358  0.00  0.00    +0.028 A 
ATOM     12  C   UNL     1       2.082  -1.418   3.461  0.00  0.00    +0.067 A 
ATOM     13  C   UNL     1       0.686  -1.409   3.440  0.00  0.00    +0.067 A 
ATOM     14  C   UNL     1       0.015  -0.944   2.319  0.00  0.00    +0.033 A 
ATOM     15  N   UNL     1       0.262  -1.910   4.668  0.00  0.00    -0.306 N 
ATOM     16  H   UNL     1      -0.660  -2.023   4.947  0.00  0.00    +0.170 HD
ATOM     17  C   UNL     1       1.350  -2.210   5.402  0.00  0.00    +0.325 A 
ATOM     18  O   UNL     1       1.330  -2.670   6.529  0.00  0.00    -0.247 OA
ATOM     19  N   UNL     1       2.463  -1.924   4.701  0.00  0.00    -0.306 N 
ATOM     20  H   UNL     1       3.375  -2.050   5.007  0.00  0.00    +0.170 HD
ENDBRANCH   8   9
ENDBRANCH   1   8
BRANCH   4  21
ATOM     21  C   UNL     1      -0.104  -1.186  -4.723  0.00  0.00    +0.141 C 
BRANCH  21  22
ATOM     22  C   UNL     1       0.825  -1.684  -5.800  0.00  0.00    -0.027 A 
ATOM     23  C   UNL     1       1.526  -0.781  -6.579  0.00  0.00    +0.009 A 
ATOM     24  C   UNL     1       2.379  -1.233  -7.568  0.00  0.00    +0.050 A 
ATOM     25  C   UNL     1       2.533  -2.593  -7.781  0.00  0.00    +0.162 A 
ATOM     26  C   UNL     1       1.829  -3.502  -6.998  0.00  0.00    +0.162 A 
ATOM     27  C   UNL     1       0.979  -3.042  -6.005  0.00  0.00    +0.054 A 
BRANCH  26  28
ATOM     28  O   UNL     1       1.977  -4.838  -7.203  0.00  0.00    -0.491 OA
ATOM     29  C   UNL     1       1.222  -5.712  -6.362  0.00  0.00    +0.277 C 
ENDBRANCH  26  28
BRANCH  25  30
ATOM     30  O   UNL     1       3.372  -3.039  -8.755  0.00  0.00    -0.491 OA
ATOM     31  C   UNL     1       4.062  -2.050  -9.520  0.00  0.00    +0.277 C 
ENDBRANCH  25  30
ENDBRANCH  21  22
ENDBRANCH   4  21
TORSDOF 6
