REMARK  Name = ZINC48691741
REMARK  6 active torsions:
REMARK  status: ('A' for Active; 'I' for Inactive)
REMARK    1  A    between atoms: C_1  and  C_2
REMARK    2  A    between atoms: C_5  and  C_8
REMARK    3  A    between atoms: C_8  and  N_9
REMARK    4  A    between atoms: C_10  and  C_12
REMARK    5  A    between atoms: N_14  and  C_15
REMARK    6  A    between atoms: C_18  and  N_22
REMARK                            x       y       z     vdW  Elec       q    Type
REMARK                         _______ _______ _______ _____ _____    ______ ____
ROOT
ATOM      1  C   UNL     1       3.125  -6.547  -0.045  0.00  0.00    +0.303 C 
ATOM      2  O   UNL     1       4.038  -5.747  -0.050  0.00  0.00    -0.265 OA
ATOM      3  N   UNL     1       3.388  -7.869  -0.059  0.00  0.00    -0.276 N 
ATOM      4  H   UNL     1       2.662  -8.508   0.010  0.00  0.00    +0.155 HD
ENDROOT
BRANCH   3   5
ATOM      5  C   UNL     1       4.706  -8.318  -0.175  0.00  0.00    +0.052 A 
ATOM      6  C   UNL     1       5.740  -7.601   0.415  0.00  0.00    +0.027 A 
ATOM      7  C   UNL     1       7.042  -8.048   0.299  0.00  0.00    +0.034 A 
ATOM      8  C   UNL     1       7.318  -9.207  -0.403  0.00  0.00    +0.128 A 
ATOM      9  C   UNL     1       6.292  -9.923  -0.992  0.00  0.00    +0.054 A 
ATOM     10  C   UNL     1       4.986  -9.486  -0.875  0.00  0.00    +0.064 A 
ATOM     11 CL   UNL     1       3.697 -10.390  -1.608  0.00  0.00    -0.082 Cl
BRANCH   8  12
ATOM     12  N   UNL     1       8.714  -9.682  -0.525  0.00  0.00    +0.056 N 
ATOM     13  O   UNL     1       9.612  -9.056  -0.011  0.00  0.00    -0.126 OA
ATOM     14  O   UNL     1       8.957 -10.695  -1.139  0.00  0.00    -0.126 OA
ENDBRANCH   8  12
ENDBRANCH   3   5
BRANCH   1  16
ATOM     15  N   UNL     1       1.448  -4.745  -0.008  0.00  0.00    -0.303 N 
ATOM     16  C   UNL     1       1.711  -6.067  -0.023  0.00  0.00    +0.300 C 
ATOM     17  O   UNL     1       0.799  -6.867  -0.018  0.00  0.00    -0.265 OA
ATOM     18  H   UNL     1       2.178  -4.106  -0.012  0.00  0.00    +0.149 HD
BRANCH  15  19
ATOM     19  C   UNL     1       0.061  -4.274   0.013  0.00  0.00    +0.140 C 
BRANCH  19  24
ATOM     20  C   UNL     1      -0.014   1.504   0.063  0.00  0.00    +0.044 C 
ATOM     21  C   UNL     1       0.005  -0.003   0.050  0.00  0.00    -0.050 A 
ATOM     22  C   UNL     1       0.000  -0.684  -1.153  0.00  0.00    +0.003 A 
ATOM     23  C   UNL     1       0.019  -2.066  -1.165  0.00  0.00    +0.005 A 
ATOM     24  C   UNL     1       0.042  -2.768   0.026  0.00  0.00    -0.030 A 
ATOM     25  C   UNL     1       0.048  -2.087   1.229  0.00  0.00    +0.005 A 
ATOM     26  C   UNL     1       0.034  -0.704   1.241  0.00  0.00    +0.003 A 
ENDBRANCH  19  24
ENDBRANCH  15  19
ENDBRANCH   1  16
TORSDOF 5
