REMARK  Name = ZINC38054336
REMARK  7 active torsions:
REMARK  status: ('A' for Active; 'I' for Inactive)
REMARK    1  A    between atoms: C_3  and  N_10
REMARK    2  A    between atoms: C_6  and  C_7
REMARK    3  A    between atoms: C_7  and  N_9
REMARK    4  A    between atoms: C_11  and  C_13
REMARK    5  A    between atoms: C_13  and  C_14
REMARK    6  A    between atoms: C_14  and  C_15
REMARK    7  A    between atoms: C_15  and  N_16
REMARK                            x       y       z     vdW  Elec       q    Type
REMARK                         _______ _______ _______ _____ _____    ______ ____
ROOT
ATOM      1  N   UNL     1       3.579   2.133  -0.021  0.00  0.00    -0.285 N 
ATOM      2  C   UNL     1       4.754   1.480   0.066  0.00  0.00    +0.217 C 
ATOM      3  O   UNL     1       4.776   0.267   0.060  0.00  0.00    -0.275 OA
ATOM      4  H   UNL     1       3.565   3.100  -0.093  0.00  0.00    +0.155 HD
ENDROOT
BRANCH   1   7
ATOM      5  C   UNL     1       0.109   1.170  -0.734  0.00  0.00    +0.012 A 
ATOM      6  C   UNL     1       1.293   1.873  -0.745  0.00  0.00    +0.024 A 
ATOM      7  C   UNL     1       2.381   1.418  -0.007  0.00  0.00    +0.033 A 
ATOM      8  C   UNL     1       2.278   0.251   0.744  0.00  0.00    +0.024 A 
ATOM      9  C   UNL     1       1.097  -0.457   0.759  0.00  0.00    +0.012 A 
ATOM     10  C   UNL     1       0.002  -0.003   0.019  0.00  0.00    +0.003 A 
BRANCH  10  11
ATOM     11  C   UNL     1      -1.264  -0.758   0.034  0.00  0.00    +0.077 C 
ATOM     12  S   UNL     1      -2.231  -0.835  -1.377  0.00  0.00    -0.035 S 
BRANCH  11  13
ATOM     13  N   UNL     1      -1.660  -1.389   1.157  0.00  0.00    -0.352 N 
ATOM     14  H   UNL     1      -1.112  -1.346   1.956  0.00  0.00    +0.143 HD
ATOM     15  H   UNL     1      -2.493  -1.886   1.167  0.00  0.00    +0.143 HD
ENDBRANCH  11  13
ENDBRANCH  10  11
ENDBRANCH   1   7
BRANCH   2  16
ATOM     16  C   UNL     1       6.041   2.257   0.172  0.00  0.00    +0.098 C 
BRANCH  16  17
ATOM     17  C   UNL     1       7.219   1.283   0.257  0.00  0.00    +0.032 C 
BRANCH  17  18
ATOM     18  C   UNL     1       8.526   2.072   0.364  0.00  0.00    +0.144 C 
BRANCH  18  19
ATOM     19  N   UNL     1       9.653   1.140   0.445  0.00  0.00    -0.270 N 
ATOM     20  C   UNL     1      10.733   1.127  -0.365  0.00  0.00    +0.123 A 
ATOM     21  C   UNL     1      11.540   0.118   0.040  0.00  0.00    +0.055 A 
ATOM     22  C   UNL     1      10.932  -0.507   1.134  0.00  0.00    +0.149 A 
ATOM     23  N   UNL     1       9.804   0.108   1.381  0.00  0.00    -0.179 NA
ATOM     24 BR   UNL     1      13.195  -0.363  -0.738  0.00  0.00    -0.047 Br
ENDBRANCH  18  19
ENDBRANCH  17  18
ENDBRANCH  16  17
ENDBRANCH   2  16
TORSDOF 7
