REMARK  Name = ZINC38984188
REMARK  9 active torsions:
REMARK  status: ('A' for Active; 'I' for Inactive)
REMARK    1  A    between atoms: C_1  and  C_2
REMARK    2  A    between atoms: C_2  and  O_3
REMARK    3  A    between atoms: O_3  and  C_4
REMARK    4  A    between atoms: C_9  and  N_10
REMARK    5  A    between atoms: N_10  and  C_11
REMARK    6  A    between atoms: N_14  and  S_15
REMARK    7  A    between atoms: S_15  and  C_18
REMARK    8  A    between atoms: C_21  and  O_24
REMARK    9  A    between atoms: O_24  and  C_25
REMARK                            x       y       z     vdW  Elec       q    Type
REMARK                         _______ _______ _______ _____ _____    ______ ____
ROOT
ATOM      1  C   UNL     1      -5.244  -2.145  -0.069  0.00  0.00    +0.237 C 
ATOM      2  C   UNL     1      -6.121  -1.455   0.951  0.00  0.00    +0.192 C 
ATOM      3  N   UNL     1      -5.807  -1.476   2.212  0.00  0.00    -0.110 NA
ATOM      4  N   UNL     1      -7.229  -0.820   0.535  0.00  0.00    -0.226 NA
ATOM      5  C   UNL     1      -7.567  -0.785  -0.737  0.00  0.00    +0.089 A 
ATOM      6  C   UNL     1      -8.745  -0.105  -1.141  0.00  0.00    +0.030 A 
ATOM      7  C   UNL     1      -9.097  -0.065  -2.444  0.00  0.00    +0.002 A 
ATOM      8  C   UNL     1      -8.340  -0.680  -3.455  0.00  0.00    +0.002 A 
ATOM      9  C   UNL     1      -7.202  -1.354  -3.180  0.00  0.00    +0.027 A 
ATOM     10  C   UNL     1      -6.748  -1.443  -1.784  0.00  0.00    +0.063 A 
ATOM     11  N   UNL     1      -5.654  -2.083  -1.481  0.00  0.00    -0.359 N 
ATOM     12  H   UNL     1      -5.123  -2.510  -2.171  0.00  0.00    +0.162 HD
ENDROOT
BRANCH   3  13
ATOM     13  S   UNL     1      -6.777  -0.716   3.319  0.00  0.00    +0.100 S 
ATOM     14  O   UNL     1      -6.699   0.675   3.041  0.00  0.00    -0.146 OA
ATOM     15  O   UNL     1      -8.010  -1.423   3.332  0.00  0.00    -0.146 OA
BRANCH  13  16
ATOM     16  C   UNL     1      -6.044  -0.954   4.904  0.00  0.00    +0.113 A 
ATOM     17  C   UNL     1      -6.383  -2.059   5.662  0.00  0.00    +0.032 A 
ATOM     18  C   UNL     1      -5.810  -2.248   6.905  0.00  0.00    +0.047 A 
ATOM     19  C   UNL     1      -4.893  -1.327   7.392  0.00  0.00    +0.120 A 
ATOM     20  C   UNL     1      -4.554  -0.219   6.629  0.00  0.00    +0.047 A 
ATOM     21  C   UNL     1      -5.126  -0.038   5.384  0.00  0.00    +0.032 A 
BRANCH  19  22
ATOM     22  O   UNL     1      -4.329  -1.510   8.614  0.00  0.00    -0.495 OA
ATOM     23  C   UNL     1      -3.393  -0.522   9.051  0.00  0.00    +0.277 C 
ENDBRANCH  19  22
ENDBRANCH  13  16
ENDBRANCH   3  13
BRANCH   1  24
ATOM     24  N   UNL     1      -3.901  -1.567   0.031  0.00  0.00    -0.315 N 
ATOM     25  H   UNL     1      -3.784  -0.605   0.004  0.00  0.00    +0.149 HD
BRANCH  24  31
ATOM     26  C   UNL     1      -1.526  -1.857   0.393  0.00  0.00    +0.141 A 
ATOM     27  C   UNL     1      -0.429  -2.690   0.532  0.00  0.00    +0.047 A 
ATOM     28  C   UNL     1      -0.585  -4.061   0.442  0.00  0.00    +0.004 A 
ATOM     29  C   UNL     1      -1.836  -4.604   0.213  0.00  0.00    +0.002 A 
ATOM     30  C   UNL     1      -2.936  -3.780   0.073  0.00  0.00    +0.026 A 
ATOM     31  C   UNL     1      -2.788  -2.404   0.167  0.00  0.00    +0.071 A 
BRANCH  26  32
ATOM     32  O   UNL     1      -1.374  -0.508   0.480  0.00  0.00    -0.490 OA
BRANCH  32  34
ATOM     33  C   UNL     1      -0.079   1.510   0.780  0.00  0.00    +0.048 C 
ATOM     34  C   UNL     1      -0.052  -0.018   0.712  0.00  0.00    +0.226 C 
ENDBRANCH  32  34
ENDBRANCH  26  32
ENDBRANCH  24  31
ENDBRANCH   1  24
TORSDOF 7
