REMARK  Name = ZINC06441799
REMARK  9 active torsions:
REMARK  status: ('A' for Active; 'I' for Inactive)
REMARK    1  A    between atoms: C_1  and  C_2
REMARK    2  A    between atoms: C_8  and  C_15
REMARK    3  A    between atoms: C_9  and  O_14
REMARK    4  A    between atoms: C_11  and  C_13
REMARK    5  A    between atoms: C_20  and  O_29
REMARK    6  A    between atoms: C_22  and  O_27
REMARK    7  A    between atoms: C_24  and  C_25
REMARK    8  A    between atoms: C_25  and  O_26
REMARK    9  A    between atoms: O_27  and  C_28
REMARK                            x       y       z     vdW  Elec       q    Type
REMARK                         _______ _______ _______ _____ _____    ______ ____
ROOT
ATOM      1  C   UNL     1       5.775   3.187   0.438  0.00  0.00    -0.001 A 
ATOM      2  C   UNL     1       6.407   3.815  -0.663  0.00  0.00    -0.003 A 
ATOM      3  C   UNL     1       5.699   4.098  -1.839  0.00  0.00    +0.009 A 
ATOM      4  C   UNL     1       6.328   4.708  -2.882  0.00  0.00    +0.004 A 
ATOM      5  C   UNL     1       7.671   5.063  -2.800  0.00  0.00    +0.046 A 
ATOM      6  C   UNL     1       8.398   4.806  -1.659  0.00  0.00    +0.128 A 
ATOM      7  C   UNL     1       7.771   4.176  -0.565  0.00  0.00    +0.066 A 
ATOM      8  C   UNL     1       8.482   3.897   0.619  0.00  0.00    +0.132 A 
ATOM      9  C   UNL     1       7.843   3.281   1.673  0.00  0.00    +0.053 A 
ATOM     10  C   UNL     1       6.502   2.928   1.587  0.00  0.00    -0.010 A 
ENDROOT
BRANCH   1  17
ATOM     11  C   UNL     1      -1.437  -0.091  -0.323  0.00  0.00    -0.013 C 
ATOM     12  C   UNL     1       0.026   0.228  -0.009  0.00  0.00    -0.070 C 
ATOM     13  C   UNL     1       0.202   1.740   0.134  0.00  0.00    +0.019 C 
ATOM     14  C   UNL     1       1.669   2.083   0.203  0.00  0.00    -0.044 A 
ATOM     15  C   UNL     1       2.031   3.336   0.681  0.00  0.00    +0.004 A 
ATOM     16  C   UNL     1       3.357   3.701   0.761  0.00  0.00    +0.012 A 
ATOM     17  C   UNL     1       4.346   2.805   0.359  0.00  0.00    +0.025 A 
ATOM     18  C   UNL     1       3.981   1.545  -0.121  0.00  0.00    +0.126 A 
ATOM     19  C   UNL     1       2.639   1.188  -0.196  0.00  0.00    -0.016 A 
ATOM     20  C   UNL     1       2.292  -0.182  -0.716  0.00  0.00    -0.040 C 
ATOM     21  C   UNL     1       3.169  -0.498  -1.930  0.00  0.00    -0.009 C 
ATOM     22  N   UNL     1       0.880  -0.241  -1.115  0.00  0.00    +0.385 N 
ATOM     23  H   UNL     1       0.732   0.357  -1.937  0.00  0.00    -0.085 HD
ATOM     24  H   UNL     1       0.632  -1.210  -1.349  0.00  0.00    -0.085 HD
BRANCH  18  25
ATOM     25  O   UNL     1       4.939   0.666  -0.515  0.00  0.00    -0.506 OA
ATOM     26  H   UNL     1       5.238   0.793  -1.425  0.00  0.00    +0.292 HD
ENDBRANCH  18  25
ENDBRANCH   1  17
BRANCH   8  27
ATOM     27  O   UNL     1       9.793   4.234   0.722  0.00  0.00    -0.494 OA
ATOM     28  C   UNL     1      10.449   3.921   1.951  0.00  0.00    +0.277 C 
ENDBRANCH   8  27
BRANCH   6  29
ATOM     29  O   UNL     1       9.708   5.156  -1.589  0.00  0.00    -0.506 OA
ATOM     30  H   UNL     1      10.316   4.468  -1.892  0.00  0.00    +0.292 HD
ENDBRANCH   6  29
BRANCH  10  31
ATOM     31  C   UNL     1       5.832   2.255   2.757  0.00  0.00    +0.191 C 
BRANCH  31  32
ATOM     32  O   UNL     1       6.775   2.095   3.818  0.00  0.00    -0.390 OA
ATOM     33  H   UNL     1       6.412   1.667   4.606  0.00  0.00    +0.210 HD
ENDBRANCH  31  32
ENDBRANCH  10  31
TORSDOF 6
