REMARK  Name = ZINC35806896
REMARK  6 active torsions:
REMARK  status: ('A' for Active; 'I' for Inactive)
REMARK    1  A    between atoms: C_1  and  C_2
REMARK    2  A    between atoms: C_2  and  C_3
REMARK    3  A    between atoms: C_23  and  C_31
REMARK    4  A    between atoms: C_31  and  C_33
REMARK    5  A    between atoms: C_37  and  O_39
REMARK    6  A    between atoms: O_39  and  C_40
REMARK                            x       y       z     vdW  Elec       q    Type
REMARK                         _______ _______ _______ _____ _____    ______ ____
ROOT
ATOM      1  C   UNL     1      -1.353  -0.459  -0.106  0.00  0.00    -0.026 A 
ATOM      2  C   UNL     1      -1.906  -0.826   1.104  0.00  0.00    +0.005 A 
ATOM      3  C   UNL     1      -3.189  -1.337   1.159  0.00  0.00    +0.001 A 
ATOM      4  C   UNL     1      -3.924  -1.482  -0.005  0.00  0.00    +0.004 A 
ATOM      5  C   UNL     1      -3.375  -1.117  -1.214  0.00  0.00    -0.026 A 
ATOM      6  C   UNL     1      -2.087  -0.596  -1.282  0.00  0.00    +0.039 A 
ATOM      7  N   UNL     1      -1.758  -0.295  -2.604  0.00  0.00    -0.286 N 
ATOM      8  C   UNL     1      -2.761  -0.578  -3.455  0.00  0.00    +0.212 C 
ATOM      9  O   UNL     1      -2.755  -0.419  -4.658  0.00  0.00    -0.277 OA
ATOM     10  C   UNL     1      -3.890  -1.142  -2.630  0.00  0.00    +0.060 C 
ATOM     11  C   UNL     1      -4.254  -2.557  -3.061  0.00  0.00    +0.085 C 
ATOM     12  C   UNL     1      -3.709  -2.889  -4.421  0.00  0.00    -0.011 A 
ATOM     13  C   UNL     1      -3.863  -2.324  -5.668  0.00  0.00    +0.006 A 
ATOM     14  C   UNL     1      -3.215  -2.870  -6.761  0.00  0.00    +0.000 A 
ATOM     15  C   UNL     1      -2.413  -3.985  -6.599  0.00  0.00    +0.002 A 
ATOM     16  C   UNL     1      -2.256  -4.555  -5.352  0.00  0.00    +0.023 A 
ATOM     17  C   UNL     1      -2.905  -4.011  -4.246  0.00  0.00    +0.038 A 
ATOM     18  N   UNL     1      -2.903  -4.399  -2.905  0.00  0.00    -0.285 N 
ATOM     19  C   UNL     1      -3.670  -3.595  -2.143  0.00  0.00    +0.228 C 
ATOM     20  O   UNL     1      -3.854  -3.691  -0.947  0.00  0.00    -0.275 OA
ATOM     21  C   UNL     1      -5.789  -2.604  -3.049  0.00  0.00    +0.066 C 
ATOM     22  C   UNL     1      -6.195  -1.137  -3.276  0.00  0.00    -0.055 C 
ATOM     23  N   UNL     1      -5.088  -0.299  -2.761  0.00  0.00    +0.395 N 
ATOM     24  C   UNL     1      -5.497   0.140  -1.401  0.00  0.00    -0.076 C 
ATOM     25  C   UNL     1      -7.027   0.340  -1.515  0.00  0.00    -0.020 C 
ATOM     26  C   UNL     1      -7.465  -0.807  -2.479  0.00  0.00    -0.016 C 
ATOM     27  H   UNL     1      -0.904   0.075  -2.878  0.00  0.00    +0.155 HD
ATOM     28  H   UNL     1      -2.407  -5.158  -2.562  0.00  0.00    +0.155 HD
ATOM     29  H   UNL     1      -4.914   0.485  -3.373  0.00  0.00    -0.079 HD
ENDROOT
BRANCH   1  31
ATOM     30  C   UNL     1      -0.011   1.627  -0.125  0.00  0.00    +0.009 C 
ATOM     31  C   UNL     1       0.046   0.098  -0.155  0.00  0.00    +0.033 C 
ENDBRANCH   1  31
BRANCH  21  32
ATOM     32  C   UNL     1      -6.302  -3.478  -4.163  0.00  0.00    +0.166 C 
ATOM     33  O   UNL     1      -6.590  -2.989  -5.235  0.00  0.00    -0.292 OA
BRANCH  32  34
ATOM     34  C   UNL     1      -6.454  -4.927  -3.952  0.00  0.00    +0.021 A 
ATOM     35  C   UNL     1      -6.242  -5.478  -2.684  0.00  0.00    +0.011 A 
ATOM     36  C   UNL     1      -6.386  -6.835  -2.490  0.00  0.00    +0.004 A 
ATOM     37  C   UNL     1      -6.738  -7.656  -3.547  0.00  0.00    +0.045 A 
ATOM     38  C   UNL     1      -6.951  -7.120  -4.810  0.00  0.00    +0.121 A 
ATOM     39  C   UNL     1      -6.816  -5.758  -5.016  0.00  0.00    +0.057 A 
BRANCH  38  40
ATOM     40  O   UNL     1      -7.296  -7.932  -5.843  0.00  0.00    -0.495 OA
ATOM     41  C   UNL     1      -7.423  -9.326  -5.557  0.00  0.00    +0.277 C 
ENDBRANCH  38  40
ENDBRANCH  32  34
ENDBRANCH  21  32
TORSDOF 4
