REMARK  Name = ZINC25578371
REMARK  4 active torsions:
REMARK  status: ('A' for Active; 'I' for Inactive)
REMARK    1  A    between atoms: C_1  and  C_2
REMARK    2  A    between atoms: C_2  and  C_3
REMARK    3  A    between atoms: C_3  and  N_4
REMARK    4  A    between atoms: C_14  and  C_16
REMARK                            x       y       z     vdW  Elec       q    Type
REMARK                         _______ _______ _______ _____ _____    ______ ____
ROOT
ATOM      1  N   UNL     1       6.240   2.300  -1.356  0.00  0.00    +0.380 N 
ATOM      2  C   UNL     1       6.053   2.239   0.099  0.00  0.00    -0.073 C 
ATOM      3  C   UNL     1       4.716   1.562   0.414  0.00  0.00    +0.052 C 
ATOM      4  C   UNL     1       3.584   2.353  -0.240  0.00  0.00    +0.190 C 
ATOM      5  C   UNL     1       3.826   2.456  -1.744  0.00  0.00    +0.052 C 
ATOM      6  C   UNL     1       5.191   3.105  -1.994  0.00  0.00    -0.073 C 
ATOM      7  N   UNL     1       3.506   3.693   0.348  0.00  0.00    -0.207 N 
ATOM      8  C   UNL     1       2.419   4.625  -0.031  0.00  0.00    +0.136 C 
ATOM      9  C   UNL     1       2.471   5.678   1.084  0.00  0.00    +0.086 C 
ATOM     10  C   UNL     1       3.776   5.381   1.795  0.00  0.00    +0.068 C 
ATOM     11  N   UNL     1       4.287   4.292   1.320  0.00  0.00    -0.185 NA
ATOM     12  C   UNL     1       1.142   3.826   0.006  0.00  0.00    +0.019 A 
ATOM     13  C   UNL     1      -0.070   4.491   0.031  0.00  0.00    +0.029 A 
ATOM     14  C   UNL     1      -1.256   3.783   0.040  0.00  0.00    +0.043 A 
ATOM     15  C   UNL     1      -1.228   2.399   0.021  0.00  0.00    +0.043 A 
ATOM     16  C   UNL     1      -0.021   1.732   0.012  0.00  0.00    +0.084 A 
ATOM     17  C   UNL     1       1.181   2.440   0.004  0.00  0.00    +0.147 A 
ATOM     18  O   UNL     1       2.331   1.717   0.014  0.00  0.00    -0.465 OA
ATOM     19 CL   UNL     1       0.002  -0.004   0.002  0.00  0.00    -0.080 Cl
ATOM     20 CL   UNL     1      -2.775   4.624   0.067  0.00  0.00    -0.083 Cl
ATOM     21  H   UNL     1       6.160   1.275  -1.747  0.00  0.00    -0.082 HD
ENDROOT
BRANCH  10  22
ATOM     22  C   UNL     1       4.371   6.207   2.862  0.00  0.00    -0.002 A 
ATOM     23  C   UNL     1       3.715   7.377   3.287  0.00  0.00    +0.010 A 
ATOM     24  C   UNL     1       4.240   8.150   4.272  0.00  0.00    +0.009 A 
ATOM     25  C   UNL     1       5.461   7.791   4.873  0.00  0.00    -0.018 A 
ATOM     26  C   UNL     1       6.026   8.579   5.889  0.00  0.00    +0.008 A 
ATOM     27  C   UNL     1       7.209   8.207   6.452  0.00  0.00    +0.001 A 
ATOM     28  C   UNL     1       7.871   7.054   6.037  0.00  0.00    +0.001 A 
ATOM     29  C   UNL     1       7.354   6.266   5.055  0.00  0.00    +0.008 A 
ATOM     30  C   UNL     1       6.134   6.617   4.449  0.00  0.00    -0.017 A 
ATOM     31  C   UNL     1       5.574   5.827   3.435  0.00  0.00    +0.018 A 
ENDBRANCH  10  22
BRANCH   1  32
ATOM     32  C   UNL     1       7.575   2.812  -1.694  0.00  0.00    -0.079 C 
BRANCH  32  34
ATOM     33  C   UNL     1       9.037   3.631  -3.547  0.00  0.00    +0.002 C 
ATOM     34  C   UNL     1       7.647   3.098  -3.195  0.00  0.00    -0.022 C 
ENDBRANCH  32  34
ENDBRANCH   1  32
TORSDOF 3
