REMARK  Name = ZINC13264379
REMARK  13 active torsions:
REMARK  status: ('A' for Active; 'I' for Inactive)
REMARK    1  A    between atoms: C_1  and  C_2
REMARK    2  A    between atoms: C_2  and  C_17
REMARK    3  A    between atoms: N_3  and  N_4
REMARK    4  A    between atoms: C_5  and  C_7
REMARK    5  A    between atoms: C_10  and  C_13
REMARK    6  A    between atoms: C_13  and  C_14
REMARK    7  A    between atoms: C_13  and  C_15
REMARK    8  A    between atoms: C_13  and  C_16
REMARK    9  A    between atoms: C_20  and  S_23
REMARK   10  A    between atoms: S_23  and  N_26
REMARK   11  A    between atoms: N_26  and  C_27
REMARK   12  A    between atoms: C_27  and  C_28
REMARK   13  A    between atoms: C_28  and  C_29
REMARK                            x       y       z     vdW  Elec       q    Type
REMARK                         _______ _______ _______ _____ _____    ______ ____
ROOT
ATOM      1  C   UNL     1       4.752   5.565  -0.014  0.00  0.00    +0.068 C 
ATOM      2  C   UNL     1       3.440   6.307   0.002  0.00  0.00    +0.063 C 
ATOM      3  N   UNL     1       2.322   5.649   0.009  0.00  0.00    -0.184 NA
ENDROOT
BRANCH   2   4
ATOM      4  C   UNL     1       3.428   7.782   0.010  0.00  0.00    -0.002 A 
ATOM      5  C   UNL     1       4.630   8.494   0.008  0.00  0.00    +0.011 A 
ATOM      6  C   UNL     1       4.611   9.873   0.009  0.00  0.00    +0.029 A 
ATOM      7  C   UNL     1       3.405  10.551   0.024  0.00  0.00    +0.105 A 
ATOM      8  C   UNL     1       2.210   9.853   0.032  0.00  0.00    +0.029 A 
ATOM      9  C   UNL     1       2.214   8.473   0.025  0.00  0.00    +0.011 A 
BRANCH   7  10
ATOM     10  S   UNL     1       3.390  12.313   0.033  0.00  0.00    +0.058 S 
ATOM     11  O   UNL     1       4.627  12.733  -0.527  0.00  0.00    -0.153 OA
ATOM     12  O   UNL     1       2.136  12.712  -0.504  0.00  0.00    -0.153 OA
BRANCH  10  13
ATOM     13  N   UNL     1       3.401  12.795   1.618  0.00  0.00    -0.189 NA
ATOM     14  H   UNL     1       2.639  13.269   1.986  0.00  0.00    +0.148 HD
BRANCH  13  15
ATOM     15  C   UNL     1       4.561  12.505   2.464  0.00  0.00    +0.117 C 
BRANCH  15  16
ATOM     16  C   UNL     1       4.492  13.356   3.733  0.00  0.00    +0.142 C 
BRANCH  16  17
ATOM     17  C   UNL     1       5.686  13.057   4.604  0.00  0.00    +0.357 C 
ATOM     18  O   UNL     1       6.507  12.247   4.245  0.00  0.00    -0.246 OA
ATOM     19  O   UNL     1       5.837  13.692   5.777  0.00  0.00    -0.246 OA
ENDBRANCH  16  17
ENDBRANCH  15  16
ENDBRANCH  13  15
ENDBRANCH  10  13
ENDBRANCH   7  10
ENDBRANCH   2   4
BRANCH   3  20
ATOM     20  N   UNL     1       2.334   4.248   0.002  0.00  0.00    -0.203 N 
ATOM     21  C   UNL     1       1.172   3.564   0.009  0.00  0.00    +0.263 C 
ATOM     22  O   UNL     1       0.114   4.163   0.022  0.00  0.00    -0.268 OA
ATOM     23  H   UNL     1       3.178   3.770  -0.008  0.00  0.00    +0.178 HD
BRANCH  21  24
ATOM     24  C   UNL     1       1.185   2.087   0.002  0.00  0.00    +0.038 A 
ATOM     25  C   UNL     1      -0.017   1.375   0.010  0.00  0.00    +0.013 A 
ATOM     26  C   UNL     1       0.002  -0.004   0.002  0.00  0.00    +0.005 A 
ATOM     27  C   UNL     1       1.208  -0.683  -0.013  0.00  0.00    -0.042 A 
ATOM     28  C   UNL     1       2.402   0.016  -0.021  0.00  0.00    +0.005 A 
ATOM     29  C   UNL     1       2.398   1.396  -0.013  0.00  0.00    +0.013 A 
BRANCH  27  30
ATOM     30  C   UNL     1       1.220  -2.190  -0.021  0.00  0.00    -0.013 C 
ATOM     31  C   UNL     1       0.491  -2.699  -1.266  0.00  0.00    +0.015 C 
ATOM     32  C   UNL     1       2.667  -2.687  -0.037  0.00  0.00    +0.015 C 
ATOM     33  C   UNL     1       0.516  -2.712   1.233  0.00  0.00    +0.015 C 
ENDBRANCH  27  30
ENDBRANCH  21  24
ENDBRANCH   3  20
TORSDOF 9
