REMARK  Name = ZINC19861289
REMARK  3 active torsions:
REMARK  status: ('A' for Active; 'I' for Inactive)
REMARK    1  A    between atoms: C_13  and  N_14
REMARK    2  A    between atoms: N_17  and  N_20
REMARK    3  A    between atoms: C_21  and  C_22
REMARK                            x       y       z     vdW  Elec       q    Type
REMARK                         _______ _______ _______ _____ _____    ______ ____
ROOT
ATOM      1  N   UNL     1       3.507   3.158  -1.057  0.00  0.00    -0.288 NA
ATOM      2  C   UNL     1       2.231   3.884  -1.064  0.00  0.00    +0.106 C 
ATOM      3  C   UNL     1       1.354   3.381   0.088  0.00  0.00    +0.141 C 
ATOM      4  N   UNL     1       1.238   1.919  -0.018  0.00  0.00    -0.253 N 
ATOM      5  C   UNL     1       2.473   1.130  -0.147  0.00  0.00    +0.141 C 
ATOM      6  C   UNL     1       3.305   1.722  -1.295  0.00  0.00    +0.106 C 
ENDROOT
BRANCH   1  19
ATOM      7  C   UNL     1       3.373   2.962  -6.082  0.00  0.00    +0.001 A 
ATOM      8  C   UNL     1       2.484   3.736  -5.358  0.00  0.00    +0.000 A 
ATOM      9  C   UNL     1       2.745   4.039  -4.034  0.00  0.00    +0.006 A 
ATOM     10  C   UNL     1       3.894   3.569  -3.432  0.00  0.00    -0.018 A 
ATOM     11  C   UNL     1       4.795   2.790  -4.152  0.00  0.00    -0.013 A 
ATOM     12  C   UNL     1       4.525   2.488  -5.488  0.00  0.00    +0.009 A 
ATOM     13  C   UNL     1       5.935   2.419  -3.277  0.00  0.00    -0.013 A 
ATOM     14  C   UNL     1       7.079   1.658  -3.530  0.00  0.00    +0.009 A 
ATOM     15  C   UNL     1       8.007   1.456  -2.530  0.00  0.00    +0.001 A 
ATOM     16  C   UNL     1       7.810   2.005  -1.275  0.00  0.00    +0.000 A 
ATOM     17  C   UNL     1       6.679   2.760  -1.018  0.00  0.00    +0.006 A 
ATOM     18  C   UNL     1       5.747   2.967  -2.012  0.00  0.00    -0.018 A 
ATOM     19  C   UNL     1       4.443   3.727  -2.036  0.00  0.00    +0.118 C 
ENDBRANCH   1  19
BRANCH   4  20
ATOM     20  N   UNL     1      -0.015   1.293   0.009  0.00  0.00    -0.192 NA
ATOM     21  C   UNL     1      -1.097   2.009   0.038  0.00  0.00    +0.138 C 
BRANCH  21  22
ATOM     22  C   UNL     1      -2.416   1.356  -0.061  0.00  0.00    -0.003 A 
ATOM     23  C   UNL     1      -3.583   2.124  -0.031  0.00  0.00    +0.009 A 
ATOM     24  C   UNL     1      -4.814   1.508  -0.123  0.00  0.00    +0.003 A 
ATOM     25  C   UNL     1      -4.896   0.132  -0.246  0.00  0.00    +0.038 A 
ATOM     26  C   UNL     1      -3.743  -0.636  -0.277  0.00  0.00    +0.124 A 
ATOM     27  C   UNL     1      -2.504  -0.031  -0.191  0.00  0.00    +0.047 A 
ATOM     28  F   UNL     1      -3.831  -1.979  -0.397  0.00  0.00    -0.205 F 
ENDBRANCH  21  22
ENDBRANCH   4  20
TORSDOF 3
