REMARK  Name = ZINC02107763
REMARK  9 active torsions:
REMARK  status: ('A' for Active; 'I' for Inactive)
REMARK    1  A    between atoms: C_1  and  C_2
REMARK    2  A    between atoms: C_2  and  C_3
REMARK    3  A    between atoms: C_2  and  C_4
REMARK    4  A    between atoms: C_2  and  C_5
REMARK    5  A    between atoms: C_12  and  N_16
REMARK    6  A    between atoms: C_13  and  C_14
REMARK    7  A    between atoms: C_17  and  C_19
REMARK    8  A    between atoms: C_25  and  C_31
REMARK    9  A    between atoms: C_27  and  C_28
REMARK                            x       y       z     vdW  Elec       q    Type
REMARK                         _______ _______ _______ _____ _____    ______ ____
ROOT
ATOM      1  N   UNL     1       1.446   3.472   0.007  0.00  0.00    -0.275 N 
ATOM      2  C   UNL     1       2.713   3.931  -0.003  0.00  0.00    +0.254 C 
ATOM      3  O   UNL     1       3.645   3.147  -0.016  0.00  0.00    -0.270 OA
ATOM      4  H   UNL     1       0.704   4.097   0.017  0.00  0.00    +0.156 HD
ENDROOT
BRANCH   1  11
ATOM      5  C   UNL     1       0.297  -2.806   0.364  0.00  0.00    -0.000 C 
ATOM      6  C   UNL     1      -0.881  -2.277  -0.459  0.00  0.00    +0.009 C 
ATOM      7  C   UNL     1      -1.252  -0.869   0.009  0.00  0.00    +0.037 C 
ATOM      8  C   UNL     1       0.002  -0.004   0.002  0.00  0.00    -0.018 A 
ATOM      9  C   UNL     1       1.232  -0.563  -0.012  0.00  0.00    -0.004 A 
ATOM     10  S   UNL     1       2.352   0.809  -0.016  0.00  0.00    -0.077 S 
ATOM     11  C   UNL     1       1.203   2.107   0.002  0.00  0.00    +0.090 A 
ATOM     12  C   UNL     1      -0.018   1.448   0.010  0.00  0.00    +0.084 A 
ATOM     13  C   UNL     1       1.561  -2.024  -0.022  0.00  0.00    +0.047 C 
BRANCH   5  15
ATOM     14  C   UNL     1       0.800  -4.479  -1.423  0.00  0.00    +0.011 C 
ATOM     15  C   UNL     1       0.504  -4.293   0.067  0.00  0.00    -0.035 C 
ATOM     16  C   UNL     1       1.682  -4.818   0.890  0.00  0.00    +0.011 C 
ATOM     17  C   UNL     1      -0.762  -5.067   0.436  0.00  0.00    +0.011 C 
ENDBRANCH   5  15
BRANCH  12  18
ATOM     18  C   UNL     1      -1.252   2.174   0.020  0.00  0.00    +0.102 C 
ATOM     19  N   UNL     1      -2.232   2.750   0.028  0.00  0.00    -0.191 NA
ENDBRANCH  12  18
ENDBRANCH   1  11
BRANCH   2  20
ATOM     20  C   UNL     1       2.970   5.374   0.003  0.00  0.00    +0.101 A 
ATOM     21  C   UNL     1       2.004   6.396   0.018  0.00  0.00    +0.150 A 
ATOM     22  N   UNL     1       2.615   7.551   0.018  0.00  0.00    -0.172 NA
ATOM     23  N   UNL     1       4.000   7.349   0.003  0.00  0.00    -0.212 N 
ATOM     24  C   UNL     1       4.232   6.002  -0.001  0.00  0.00    +0.169 A 
ATOM     25  N   UNL     1       5.473   5.521  -0.021  0.00  0.00    -0.227 NA
ATOM     26  C   UNL     1       6.516   6.338  -0.027  0.00  0.00    +0.075 A 
ATOM     27  C   UNL     1       6.314   7.734  -0.017  0.00  0.00    +0.057 A 
ATOM     28  C   UNL     1       5.051   8.220  -0.003  0.00  0.00    +0.112 A 
BRANCH  26  29
ATOM     29  C   UNL     1       7.890   5.786  -0.044  0.00  0.00    +0.000 A 
ATOM     30  C   UNL     1       8.989   6.645  -0.056  0.00  0.00    +0.010 A 
ATOM     31  C   UNL     1      10.267   6.125  -0.067  0.00  0.00    +0.001 A 
ATOM     32  C   UNL     1      10.460   4.755  -0.076  0.00  0.00    +0.000 A 
ATOM     33  C   UNL     1       9.373   3.898  -0.069  0.00  0.00    +0.001 A 
ATOM     34  C   UNL     1       8.091   4.406  -0.053  0.00  0.00    +0.010 A 
ENDBRANCH  26  29
BRANCH  28  35
ATOM     35  C   UNL     1       4.807   9.707   0.008  0.00  0.00    +0.390 C 
ATOM     36  F   UNL     1       5.853  10.356  -0.658  0.00  0.00    -0.202 F 
ATOM     37  F   UNL     1       3.598   9.987  -0.638  0.00  0.00    -0.202 F 
ENDBRANCH  28  35
ENDBRANCH   2  20
TORSDOF 6
