REMARK  Name = ZINC59830342
REMARK  11 active torsions:
REMARK  status: ('A' for Active; 'I' for Inactive)
REMARK    1  A    between atoms: C_1  and  C_2
REMARK    2  A    between atoms: C_2  and  C_3
REMARK    3  A    between atoms: C_12  and  C_13
REMARK    4  A    between atoms: C_13  and  C_15
REMARK    5  A    between atoms: C_15  and  C_17
REMARK    6  A    between atoms: C_15  and  N_23
REMARK    7  A    between atoms: N_23  and  C_24
REMARK    8  A    between atoms: C_27  and  N_30
REMARK    9  A    between atoms: N_30  and  S_31
REMARK   10  A    between atoms: S_31  and  C_34
REMARK   11  A    between atoms: C_34  and  C_35
REMARK                            x       y       z     vdW  Elec       q    Type
REMARK                         _______ _______ _______ _____ _____    ______ ____
ROOT
ATOM      1  C   UNL     1      -0.758  -1.813   7.278  0.00  0.00    +0.173 C 
ENDROOT
BRANCH   1   2
ATOM      2  C   UNL     1      -1.627  -3.022   7.046  0.00  0.00    -0.020 A 
ATOM      3  C   UNL     1      -1.310  -4.226   7.648  0.00  0.00    +0.006 A 
ATOM      4  C   UNL     1      -2.107  -5.335   7.436  0.00  0.00    +0.000 A 
ATOM      5  C   UNL     1      -3.220  -5.241   6.622  0.00  0.00    +0.000 A 
ATOM      6  C   UNL     1      -3.538  -4.038   6.021  0.00  0.00    +0.000 A 
ATOM      7  C   UNL     1      -2.743  -2.927   6.237  0.00  0.00    +0.006 A 
ENDBRANCH   1   2
BRANCH   1   8
ATOM      8  C   UNL     1       0.456  -1.889   6.388  0.00  0.00    +0.190 C 
ATOM      9  O   UNL     1       1.516  -2.270   6.840  0.00  0.00    -0.290 OA
BRANCH   8  19
ATOM     10  C   UNL     1       1.653  -0.982   1.683  0.00  0.00    -0.024 A 
ATOM     11  C   UNL     1       2.986  -1.329   1.734  0.00  0.00    +0.005 A 
ATOM     12  C   UNL     1       3.555  -1.775   2.918  0.00  0.00    +0.001 A 
ATOM     13  C   UNL     1       2.791  -1.877   4.061  0.00  0.00    +0.011 A 
ATOM     14  C   UNL     1       1.444  -1.530   4.023  0.00  0.00    +0.010 A 
ATOM     15  C   UNL     1       0.867  -1.073   2.827  0.00  0.00    +0.050 A 
ATOM     16  N   UNL     1      -0.462  -0.799   3.082  0.00  0.00    -0.360 N 
ATOM     17  H   UNL     1      -1.093  -0.471   2.422  0.00  0.00    +0.165 HD
ATOM     18  C   UNL     1      -0.761  -1.051   4.370  0.00  0.00    +0.095 A 
ATOM     19  C   UNL     1       0.360  -1.515   5.024  0.00  0.00    +0.045 A 
BRANCH  10  21
ATOM     20  C   UNL     1       1.078   1.031   0.353  0.00  0.00    +0.009 C 
ATOM     21  C   UNL     1       1.049  -0.499   0.390  0.00  0.00    +0.034 C 
ENDBRANCH  10  21
ENDBRANCH   8  19
ENDBRANCH   1   8
BRANCH   1  22
ATOM     22  N   UNL     1      -0.335  -1.777   8.680  0.00  0.00    -0.330 N 
ATOM     23  H   UNL     1       0.521  -2.153   8.938  0.00  0.00    +0.147 HD
BRANCH  22  24
ATOM     24  C   UNL     1      -1.165  -1.198   9.647  0.00  0.00    +0.028 A 
ATOM     25  C   UNL     1      -2.393  -0.664   9.278  0.00  0.00    +0.025 A 
ATOM     26  C   UNL     1      -3.212  -0.094  10.232  0.00  0.00    +0.026 A 
ATOM     27  C   UNL     1      -2.808  -0.054  11.560  0.00  0.00    +0.048 A 
ATOM     28  C   UNL     1      -1.581  -0.589  11.929  0.00  0.00    +0.026 A 
ATOM     29  C   UNL     1      -0.764  -1.164  10.976  0.00  0.00    +0.025 A 
BRANCH  27  30
ATOM     30  N   UNL     1      -3.639   0.525  12.528  0.00  0.00    -0.221 N 
ATOM     31  H   UNL     1      -3.428   1.401  12.886  0.00  0.00    +0.173 HD
BRANCH  30  32
ATOM     32  S   UNL     1      -4.980  -0.287  13.060  0.00  0.00    +0.043 S 
ATOM     33  O   UNL     1      -5.575   0.583  14.014  0.00  0.00    -0.155 OA
ATOM     34  O   UNL     1      -5.678  -0.651  11.877  0.00  0.00    -0.155 OA
BRANCH  32  35
ATOM     35  C   UNL     1      -4.332  -1.768  13.884  0.00  0.00    +0.185 C 
ATOM     36  C   UNL     1      -5.497  -2.662  14.315  0.00  0.00    +0.030 C 
ENDBRANCH  32  35
ENDBRANCH  30  32
ENDBRANCH  27  30
ENDBRANCH  22  24
ENDBRANCH   1  22
TORSDOF 9
