REMARK  Name = ZINC63280092
REMARK  10 active torsions:
REMARK  status: ('A' for Active; 'I' for Inactive)
REMARK    1  A    between atoms: C_1  and  C_2
REMARK    2  A    between atoms: C_2  and  C_4
REMARK    3  A    between atoms: C_2  and  N_14
REMARK    4  A    between atoms: C_4  and  C_5
REMARK    5  A    between atoms: C_15  and  C_17
REMARK    6  A    between atoms: C_21  and  C_24
REMARK    7  A    between atoms: C_27  and  O_32
REMARK    8  A    between atoms: C_28  and  O_30
REMARK    9  A    between atoms: O_30  and  C_31
REMARK   10  A    between atoms: O_32  and  C_33
REMARK                            x       y       z     vdW  Elec       q    Type
REMARK                         _______ _______ _______ _____ _____    ______ ____
ROOT
ATOM      1  N   UNL     1       0.639  -0.708   1.144  0.00  0.00    -0.309 N 
ATOM      2  C   UNL     1      -0.003  -0.874   2.317  0.00  0.00    +0.239 C 
ATOM      3  O   UNL     1      -1.219  -0.827   2.357  0.00  0.00    -0.271 OA
ATOM      4  H   UNL     1       1.608  -0.746   1.112  0.00  0.00    +0.149 HD
ENDROOT
BRANCH   2   5
ATOM      5  C   UNL     1       0.735  -1.102   3.501  0.00  0.00    +0.086 C 
ATOM      6  C   UNL     1       0.102  -1.151   4.692  0.00  0.00    +0.020 C 
ATOM      7  C   UNL     1       0.820  -1.539   5.979  0.00  0.00    +0.121 C 
ATOM      8  S   UNL     1      -0.598  -2.252   6.922  0.00  0.00    -0.128 S 
ATOM      9  C   UNL     1      -1.938  -1.404   5.983  0.00  0.00    +0.159 C 
ATOM     10  N   UNL     1      -1.207  -0.853   4.824  0.00  0.00    -0.331 N 
ATOM     11  H   UNL     1      -1.656  -0.293   4.173  0.00  0.00    +0.147 HD
BRANCH   9  12
ATOM     12  C   UNL     1      -2.992  -2.388   5.545  0.00  0.00    -0.014 A 
ATOM     13  C   UNL     1      -2.858  -3.050   4.339  0.00  0.00    +0.010 A 
ATOM     14  C   UNL     1      -3.823  -3.954   3.933  0.00  0.00    +0.050 A 
ATOM     15  C   UNL     1      -4.926  -4.197   4.735  0.00  0.00    +0.162 A 
ATOM     16  C   UNL     1      -5.060  -3.530   5.949  0.00  0.00    +0.162 A 
ATOM     17  C   UNL     1      -4.088  -2.630   6.353  0.00  0.00    +0.055 A 
BRANCH  16  18
ATOM     18  O   UNL     1      -6.141  -3.766   6.740  0.00  0.00    -0.491 OA
ATOM     19  C   UNL     1      -6.213  -3.045   7.972  0.00  0.00    +0.277 C 
ENDBRANCH  16  18
BRANCH  15  20
ATOM     20  O   UNL     1      -5.876  -5.085   4.337  0.00  0.00    -0.491 OA
ATOM     21  C   UNL     1      -5.672  -5.732   3.079  0.00  0.00    +0.277 C 
ENDBRANCH  15  20
ENDBRANCH   9  12
ENDBRANCH   2   5
BRANCH   1  23
ATOM     22  C   UNL     1      -0.436   1.021  -0.211  0.00  0.00    +0.028 C 
ATOM     23  C   UNL     1      -0.126  -0.472  -0.083  0.00  0.00    +0.074 C 
BRANCH  23  24
ATOM     24  C   UNL     1       0.695  -0.927  -1.292  0.00  0.00    +0.055 C 
BRANCH  24  25
ATOM     25  C   UNL     1       0.897  -2.419  -1.229  0.00  0.00    -0.040 C 
ATOM     26  C   UNL     1       0.151  -3.367  -1.841  0.00  0.00    -0.001 A 
ATOM     27  C   UNL     1      -1.027  -3.295  -2.714  0.00  0.00    +0.010 A 
ATOM     28  C   UNL     1      -1.567  -4.443  -3.183  0.00  0.00    +0.001 A 
ATOM     29  C   UNL     1      -1.031  -5.696  -2.857  0.00  0.00    +0.002 A 
ATOM     30  C   UNL     1       0.049  -5.843  -2.061  0.00  0.00    +0.026 A 
ATOM     31  C   UNL     1       0.698  -4.702  -1.512  0.00  0.00    +0.043 A 
ATOM     32  N   UNL     1       1.741  -4.585  -0.727  0.00  0.00    -0.380 N 
ATOM     33  C   UNL     1       1.978  -3.159  -0.474  0.00  0.00    +0.144 C 
ATOM     34  H   UNL     1       2.271  -5.318  -0.376  0.00  0.00    +0.160 HD
ENDBRANCH  24  25
ENDBRANCH  23  24
ENDBRANCH   1  23
TORSDOF 7
