REMARK  Name = ZINC06489453
REMARK  8 active torsions:
REMARK  status: ('A' for Active; 'I' for Inactive)
REMARK    1  A    between atoms: C_1  and  C_2
REMARK    2  A    between atoms: C_2  and  O_3
REMARK    3  A    between atoms: O_3  and  C_4
REMARK    4  A    between atoms: C_4  and  C_6
REMARK    5  A    between atoms: C_7  and  C_32
REMARK    6  A    between atoms: C_14  and  C_15
REMARK    7  A    between atoms: C_20  and  O_21
REMARK    8  A    between atoms: C_23  and  C_25
REMARK                            x       y       z     vdW  Elec       q    Type
REMARK                         _______ _______ _______ _____ _____    ______ ____
ROOT
ATOM      1  C   UNL     1      -1.195   9.996   0.475  0.00  0.00    +0.085 C 
ATOM      2  C   UNL     1      -2.548  10.167   0.562  0.00  0.00    +0.053 C 
ATOM      3  N   UNL     1      -3.365   9.122   0.520  0.00  0.00    -0.228 NA
ATOM      4  C   UNL     1      -2.979   7.877   0.398  0.00  0.00    +0.178 A 
ATOM      5  N   UNL     1      -1.664   7.485   0.295  0.00  0.00    -0.275 N 
ATOM      6  C   UNL     1      -1.390   6.179   0.179  0.00  0.00    +0.268 A 
ATOM      7  O   UNL     1      -0.242   5.784   0.091  0.00  0.00    -0.266 OA
ATOM      8  C   UNL     1      -2.518   5.237   0.157  0.00  0.00    +0.081 A 
ATOM      9  C   UNL     1      -2.510   3.883   0.047  0.00  0.00    +0.032 C 
ATOM     10  S   UNL     1      -3.901   6.354   0.323  0.00  0.00    -0.046 S 
ATOM     11  C   UNL     1      -0.664   8.588   0.331  0.00  0.00    +0.162 C 
ATOM     12  C   UNL     1      -3.118  11.555   0.705  0.00  0.00    +0.066 C 
ENDROOT
BRANCH  11  13
ATOM     13  C   UNL     1       0.274   8.327   1.482  0.00  0.00    -0.020 A 
ATOM     14  C   UNL     1      -0.234   7.999   2.725  0.00  0.00    +0.007 A 
ATOM     15  C   UNL     1       0.626   7.754   3.780  0.00  0.00    +0.015 A 
ATOM     16  C   UNL     1       1.993   7.849   3.593  0.00  0.00    +0.018 A 
ATOM     17  C   UNL     1       2.500   8.182   2.350  0.00  0.00    +0.015 A 
ATOM     18  C   UNL     1       1.640   8.421   1.295  0.00  0.00    +0.007 A 
ATOM     19 BR   UNL     1       3.170   7.522   5.037  0.00  0.00    -0.050 Br
ENDBRANCH  11  13
BRANCH   9  20
ATOM     20  C   UNL     1      -1.257   3.178  -0.249  0.00  0.00    +0.018 A 
ATOM     21  C   UNL     1      -0.368   3.692  -1.202  0.00  0.00    +0.011 A 
ATOM     22  C   UNL     1       0.806   3.025  -1.474  0.00  0.00    +0.001 A 
ATOM     23  C   UNL     1       1.113   1.848  -0.809  0.00  0.00    +0.004 A 
ATOM     24  C   UNL     1       0.245   1.329   0.133  0.00  0.00    +0.046 A 
ATOM     25  C   UNL     1      -0.944   1.982   0.417  0.00  0.00    +0.124 A 
BRANCH  25  26
ATOM     26  O   UNL     1      -1.799   1.470   1.338  0.00  0.00    -0.506 OA
ATOM     27  H   UNL     1      -1.641   1.785   2.239  0.00  0.00    +0.292 HD
ENDBRANCH  25  26
ENDBRANCH   9  20
BRANCH   1  28
ATOM     28  C   UNL     1      -0.323  11.097   0.518  0.00  0.00    +0.339 C 
ATOM     29  O   UNL     1      -0.771  12.223   0.634  0.00  0.00    -0.245 OA
BRANCH  28  30
ATOM     30  O   UNL     1       1.011  10.905   0.430  0.00  0.00    -0.462 OA
BRANCH  30  32
ATOM     31  C   UNL     1       3.307  11.656   0.368  0.00  0.00    +0.048 C 
ATOM     32  C   UNL     1       1.838  12.069   0.481  0.00  0.00    +0.229 C 
ENDBRANCH  30  32
ENDBRANCH  28  30
ENDBRANCH   1  28
TORSDOF 6
