REMARK  Name = ZINC12572849
REMARK  6 active torsions:
REMARK  status: ('A' for Active; 'I' for Inactive)
REMARK    1  A    between atoms: C_1  and  O_2
REMARK    2  A    between atoms: O_2  and  C_3
REMARK    3  A    between atoms: C_6  and  C_17
REMARK    4  A    between atoms: C_8  and  O_9
REMARK    5  A    between atoms: O_9  and  C_10
REMARK    6  A    between atoms: C_10  and  C_11
REMARK                            x       y       z     vdW  Elec       q    Type
REMARK                         _______ _______ _______ _____ _____    ______ ____
ROOT
ATOM      1  C   UNL     1      -4.987  -2.627   0.035  0.00  0.00    +0.206 C 
ATOM      2  N   UNL     1      -5.921  -1.912  -0.845  0.00  0.00    -0.320 N 
ATOM      3  C   UNL     1      -6.568  -0.757  -0.417  0.00  0.00    +0.040 A 
ATOM      4  C   UNL     1      -6.934   0.239  -1.308  0.00  0.00    +0.024 A 
ATOM      5  C   UNL     1      -7.594   1.363  -0.849  0.00  0.00    +0.002 A 
ATOM      6  C   UNL     1      -7.894   1.509   0.495  0.00  0.00    +0.001 A 
ATOM      7  C   UNL     1      -7.531   0.530   1.400  0.00  0.00    +0.013 A 
ATOM      8  C   UNL     1      -6.861  -0.598   0.951  0.00  0.00    +0.038 A 
ATOM      9  C   UNL     1      -6.401  -1.668   1.859  0.00  0.00    +0.145 A 
ATOM     10  N   UNL     1      -5.523  -2.641   1.399  0.00  0.00    -0.300 N 
ATOM     11  C   UNL     1      -5.308  -3.505   2.426  0.00  0.00    +0.071 A 
ATOM     12  C   UNL     1      -4.563  -4.674   2.543  0.00  0.00    +0.028 A 
ATOM     13  C   UNL     1      -4.572  -5.306   3.775  0.00  0.00    +0.002 A 
ATOM     14  C   UNL     1      -5.287  -4.808   4.851  0.00  0.00    +0.002 A 
ATOM     15  C   UNL     1      -6.032  -3.658   4.764  0.00  0.00    +0.030 A 
ATOM     16  C   UNL     1      -6.045  -2.998   3.529  0.00  0.00    +0.090 A 
ATOM     17  N   UNL     1      -6.671  -1.876   3.117  0.00  0.00    -0.227 NA
ATOM     18  H   UNL     1      -6.089  -2.251  -1.739  0.00  0.00    +0.148 HD
ENDROOT
BRANCH   1  22
ATOM     19  C   UNL     1      -1.201  -0.638   0.010  0.00  0.00    +0.162 A 
ATOM     20  C   UNL     1      -2.374   0.099   0.019  0.00  0.00    +0.050 A 
ATOM     21  C   UNL     1      -3.596  -0.546   0.027  0.00  0.00    +0.011 A 
ATOM     22  C   UNL     1      -3.652  -1.928   0.026  0.00  0.00    -0.003 A 
ATOM     23  C   UNL     1      -2.485  -2.669   0.017  0.00  0.00    +0.056 A 
ATOM     24  C   UNL     1      -1.257  -2.028   0.003  0.00  0.00    +0.163 A 
BRANCH  19  26
ATOM     25  C   UNL     1      -0.017   1.425   0.010  0.00  0.00    +0.277 C 
ATOM     26  O   UNL     1       0.002  -0.004   0.002  0.00  0.00    -0.491 OA
ENDBRANCH  19  26
BRANCH  24  27
ATOM     27  O   UNL     1      -0.108  -2.756  -0.012  0.00  0.00    -0.484 OA
BRANCH  27  28
ATOM     28  C   UNL     1      -0.242  -4.179  -0.018  0.00  0.00    +0.264 C 
BRANCH  28  29
ATOM     29  C   UNL     1       1.125  -4.812  -0.034  0.00  0.00    -0.010 A 
ATOM     30  C   UNL     1       1.744  -5.091  -1.239  0.00  0.00    +0.007 A 
ATOM     31  C   UNL     1       2.998  -5.671  -1.254  0.00  0.00    +0.000 A 
ATOM     32  C   UNL     1       3.635  -5.973  -0.064  0.00  0.00    +0.000 A 
ATOM     33  C   UNL     1       3.017  -5.693   1.140  0.00  0.00    +0.000 A 
ATOM     34  C   UNL     1       1.764  -5.109   1.155  0.00  0.00    +0.007 A 
ENDBRANCH  28  29
ENDBRANCH  27  28
ENDBRANCH  24  27
ENDBRANCH   1  22
TORSDOF 5
