REMARK  Name = ZINC13499030
REMARK  11 active torsions:
REMARK  status: ('A' for Active; 'I' for Inactive)
REMARK    1  A    between atoms: C_1  and  C_2
REMARK    2  A    between atoms: C_4  and  C_35
REMARK    3  A    between atoms: C_7  and  C_14
REMARK    4  A    between atoms: C_14  and  N_72
REMARK    5  A    between atoms: C_15  and  N_72
REMARK    6  A    between atoms: C_20  and  C_22
REMARK    7  A    between atoms: C_20  and  C_32
REMARK    8  A    between atoms: C_20  and  N_72
REMARK    9  A    between atoms: N_26  and  C_27
REMARK   10  A    between atoms: C_32  and  C_33
REMARK   11  A    between atoms: C_32  and  C_34
REMARK                            x       y       z     vdW  Elec       q    Type
REMARK                         _______ _______ _______ _____ _____    ______ ____
ROOT
ATOM      1  N   UNL     1       5.406   4.254  -1.282  0.00  0.00    +0.391 N 
ATOM      2  H   UNL     1       5.197   3.428  -1.854  0.00  0.00    -0.080 HD
ENDROOT
BRANCH   1   3
ATOM      3  C   UNL     1       4.333   5.253  -1.471  0.00  0.00    -0.067 C 
ATOM      4  C   UNL     1       4.272   5.670  -2.955  0.00  0.00    -0.015 C 
ATOM      5  C   UNL     1       3.918   7.178  -2.910  0.00  0.00    -0.002 C 
ATOM      6  C   UNL     1       4.722   7.683  -1.687  0.00  0.00    -0.002 C 
ATOM      7  C   UNL     1       4.618   6.532  -0.665  0.00  0.00    -0.015 C 
ENDBRANCH   1   3
BRANCH   1   8
ATOM      8  C   UNL     1       5.476   3.850   0.138  0.00  0.00    -0.036 C 
BRANCH   8  15
ATOM      9  C   UNL     1       0.317  -2.103   1.388  0.00  0.00    +0.044 C 
ATOM     10  C   UNL     1       1.447  -1.147   1.106  0.00  0.00    -0.048 A 
ATOM     11  C   UNL     1       2.695  -1.643   0.756  0.00  0.00    +0.007 A 
ATOM     12  C   UNL     1       3.733  -0.793   0.496  0.00  0.00    -0.041 A 
ATOM     13  C   UNL     1       3.536   0.589   0.584  0.00  0.00    +0.002 A 
ATOM     14  C   UNL     1       4.626   1.528   0.311  0.00  0.00    +0.017 A 
ATOM     15  C   UNL     1       4.376   2.857   0.412  0.00  0.00    +0.001 A 
ATOM     16  C   UNL     1       3.090   3.313   0.772  0.00  0.00    +0.251 A 
ATOM     17  O   UNL     1       2.887   4.512   0.856  0.00  0.00    -0.268 OA
ATOM     18  N   UNL     1       2.083   2.458   1.024  0.00  0.00    -0.322 N 
ATOM     19  H   UNL     1       1.211   2.806   1.269  0.00  0.00    +0.169 HD
ATOM     20  C   UNL     1       2.272   1.095   0.940  0.00  0.00    +0.050 A 
ATOM     21  C   UNL     1       1.230   0.211   1.199  0.00  0.00    +0.029 A 
ATOM     22  C   UNL     1       5.084  -1.343   0.115  0.00  0.00    +0.044 C 
ENDBRANCH   8  15
ENDBRANCH   1   8
BRANCH   1  23
ATOM     23  C   UNL     1       6.703   4.820  -1.710  0.00  0.00    +0.006 C 
BRANCH  23  24
ATOM     24  C   UNL     1       7.324   5.618  -0.593  0.00  0.00    +0.139 A 
ATOM     25  N   UNL     1       7.250   5.357   0.689  0.00  0.00    -0.115 NA
ATOM     26  N   UNL     1       7.910   6.267   1.319  0.00  0.00    -0.023 NA
ATOM     27  N   UNL     1       8.397   7.105   0.471  0.00  0.00    -0.044 NA
ATOM     28  N   UNL     1       8.057   6.739  -0.718  0.00  0.00    -0.228 N 
BRANCH  28  29
ATOM     29  C   UNL     1       8.405   7.417  -1.970  0.00  0.00    +0.111 C 
ATOM     30  C   UNL     1       9.938   7.519  -2.108  0.00  0.00    +0.027 C 
ATOM     31  C   UNL     1      10.168   8.904  -2.763  0.00  0.00    +0.002 C 
ATOM     32  C   UNL     1       9.091   9.787  -2.084  0.00  0.00    +0.002 C 
ATOM     33  C   UNL     1       7.867   8.859  -1.955  0.00  0.00    +0.027 C 
ENDBRANCH  28  29
ENDBRANCH  23  24
BRANCH  23  34
ATOM     34  C   UNL     1       7.635   3.668  -2.094  0.00  0.00    -0.024 C 
ATOM     35  C   UNL     1       7.039   2.902  -3.277  0.00  0.00    +0.006 C 
ATOM     36  C   UNL     1       9.003   4.229  -2.487  0.00  0.00    +0.006 C 
ENDBRANCH  23  34
ENDBRANCH   1  23
TORSDOF 7
