REMARK  Name = ZINC31291648
REMARK  17 active torsions:
REMARK  status: ('A' for Active; 'I' for Inactive)
REMARK    1  A    between atoms: C_1  and  C_2
REMARK    2  A    between atoms: C_2  and  N_3
REMARK    3  A    between atoms: N_3  and  C_4
REMARK    4  A    between atoms: N_3  and  C_6
REMARK    5  A    between atoms: C_4  and  C_5
REMARK    6  A    between atoms: C_6  and  C_7
REMARK    7  A    between atoms: C_7  and  S_8
REMARK    8  A    between atoms: S_8  and  C_9
REMARK    9  A    between atoms: C_9  and  C_10
REMARK   10  A    between atoms: C_10  and  O_12
REMARK   11  A    between atoms: O_12  and  C_13
REMARK   12  A    between atoms: C_16  and  C_37
REMARK   13  A    between atoms: C_16  and  C_38
REMARK   14  A    between atoms: C_17  and  O_36
REMARK   15  A    between atoms: C_19  and  C_35
REMARK   16  A    between atoms: C_24  and  C_34
REMARK   17  A    between atoms: C_26  and  C_33
REMARK                            x       y       z     vdW  Elec       q    Type
REMARK                         _______ _______ _______ _____ _____    ______ ____
ROOT
ATOM      1  C   UNL     1       2.822 -10.175   5.553  0.00  0.00    +0.184 C 
ATOM      2  C   UNL     1       2.202 -10.954   6.755  0.00  0.00    +0.058 C 
ATOM      3  C   UNL     1       2.298 -10.332   8.106  0.00  0.00    +0.015 C 
ATOM      4  C   UNL     1       3.541 -10.280   9.013  0.00  0.00    +0.128 C 
ATOM      5  C   UNL     1       4.713 -11.223   8.802  0.00  0.00    +0.022 C 
ATOM      6  C   UNL     1       5.490 -11.424   7.527  0.00  0.00    -0.014 C 
ATOM      7  C   UNL     1       6.659 -10.530   7.135  0.00  0.00    +0.008 C 
ATOM      8  C   UNL     1       6.716 -10.108   5.668  0.00  0.00    +0.004 C 
ATOM      9  C   UNL     1       5.430  -9.820   4.862  0.00  0.00    -0.004 C 
ATOM     10  C   UNL     1       4.297 -10.309   5.774  0.00  0.00    +0.018 C 
ATOM     11  C   UNL     1       4.797 -11.642   6.184  0.00  0.00    +0.071 C 
ATOM     12  C   UNL     1       4.046 -12.928   6.282  0.00  0.00    +0.138 C 
ATOM     13  O   UNL     1       3.107 -13.312   5.622  0.00  0.00    -0.297 OA
ATOM     14  C   UNL     1       4.770 -13.722   7.372  0.00  0.00    +0.075 C 
ATOM     15  C   UNL     1       6.048 -12.897   7.683  0.00  0.00    +0.015 C 
ATOM     16  C   UNL     1       4.489  -9.163   6.760  0.00  0.00    +0.016 C 
ATOM     17  C   UNL     1       5.411 -10.505   3.504  0.00  0.00    +0.008 C 
ATOM     18  C   UNL     1       5.727 -10.917   9.935  0.00  0.00    +0.011 C 
ATOM     19  C   UNL     1       1.627  -8.963   8.119  0.00  0.00    +0.018 C 
ENDROOT
BRANCH   4  20
ATOM     20  O   UNL     1       3.044 -10.543  10.358  0.00  0.00    -0.391 OA
ATOM     21  H   UNL     1       2.391  -9.901  10.668  0.00  0.00    +0.210 HD
ENDBRANCH   4  20
BRANCH   3  22
ATOM     22  C   UNL     1       1.321 -11.187   8.932  0.00  0.00    -0.025 C 
ATOM     23  C   UNL     1       0.322 -10.618   9.558  0.00  0.00    +0.004 C 
ENDBRANCH   3  22
BRANCH   1  24
ATOM     24  O   UNL     1       2.420  -8.811   5.465  0.00  0.00    -0.460 OA
BRANCH  24  25
ATOM     25  C   UNL     1       1.349  -8.539   4.703  0.00  0.00    +0.317 C 
ATOM     26  O   UNL     1       0.773  -9.433   4.129  0.00  0.00    -0.250 OA
BRANCH  25  27
ATOM     27  C   UNL     1       0.864  -7.119   4.563  0.00  0.00    +0.189 C 
BRANCH  27  28
ATOM     28  S   UNL     1      -0.589  -7.080   3.477  0.00  0.00    -0.151 S 
BRANCH  28  29
ATOM     29  C   UNL     1      -1.042  -5.325   3.413  0.00  0.00    +0.051 C 
BRANCH  29  30
ATOM     30  C   UNL     1      -2.270  -5.148   2.518  0.00  0.00    -0.068 C 
BRANCH  30  31
ATOM     31  N   UNL     1      -2.711  -3.748   2.563  0.00  0.00    +0.380 N 
ATOM     32  H   UNL     1      -2.872  -3.476   3.521  0.00  0.00    -0.082 HD
BRANCH  31  34
ATOM     33  C   UNL     1      -2.076  -1.421   2.138  0.00  0.00    -0.017 C 
ATOM     34  C   UNL     1      -1.673  -2.888   1.978  0.00  0.00    -0.082 C 
ENDBRANCH  31  34
BRANCH  31  35
ATOM     35  C   UNL     1      -3.956  -3.601   1.797  0.00  0.00    -0.082 C 
ATOM     36  C   UNL     1      -5.076  -4.378   2.491  0.00  0.00    -0.017 C 
ENDBRANCH  31  35
ENDBRANCH  30  31
ENDBRANCH  29  30
ENDBRANCH  28  29
ENDBRANCH  27  28
ENDBRANCH  25  27
ENDBRANCH  24  25
ENDBRANCH   1  24
TORSDOF 11
