REMARK  Name = ZINC12578005
REMARK  12 active torsions:
REMARK  status: ('A' for Active; 'I' for Inactive)
REMARK    1  A    between atoms: C_1  and  C_2
REMARK    2  A    between atoms: C_2  and  O_3
REMARK    3  A    between atoms: O_3  and  C_4
REMARK    4  A    between atoms: C_4  and  C_6
REMARK    5  A    between atoms: C_10  and  N_11
REMARK    6  A    between atoms: C_12  and  C_14
REMARK    7  A    between atoms: C_14  and  C_16
REMARK    8  A    between atoms: C_14  and  O_22
REMARK    9  A    between atoms: O_22  and  C_23
REMARK   10  A    between atoms: C_23  and  C_25
REMARK   11  A    between atoms: C_29  and  O_31
REMARK   12  A    between atoms: C_33  and  C_37
REMARK                            x       y       z     vdW  Elec       q    Type
REMARK                         _______ _______ _______ _____ _____    ______ ____
ROOT
ATOM      1  N   UNL     1       2.322   9.379  -0.808  0.00  0.00    -0.276 N 
ATOM      2  C   UNL     1       2.193   8.043  -0.690  0.00  0.00    +0.263 C 
ATOM      3  O   UNL     1       3.035   7.309  -1.163  0.00  0.00    -0.271 OA
ATOM      4  H   UNL     1       1.649   9.966  -0.430  0.00  0.00    +0.155 HD
ENDROOT
BRANCH   1   9
ATOM      5  C   UNL     1       3.718  11.251  -1.697  0.00  0.00    +0.091 A 
ATOM      6  C   UNL     1       4.942  11.548  -2.422  0.00  0.00    -0.021 A 
ATOM      7  C   UNL     1       5.657  10.470  -2.809  0.00  0.00    -0.004 A 
ATOM      8  S   UNL     1       4.734   9.079  -2.221  0.00  0.00    -0.077 S 
ATOM      9  C   UNL     1       3.416   9.915  -1.470  0.00  0.00    +0.086 A 
ATOM     10  C   UNL     1       6.948  10.469  -3.569  0.00  0.00    +0.046 C 
ATOM     11  C   UNL     1       7.539  11.885  -3.523  0.00  0.00    -0.009 C 
ATOM     12  C   UNL     1       6.439  12.890  -3.878  0.00  0.00    +0.008 C 
ATOM     13  C   UNL     1       5.414  12.961  -2.745  0.00  0.00    +0.037 C 
ATOM     14  C   UNL     1       8.684  11.996  -4.531  0.00  0.00    +0.008 C 
BRANCH   5  15
ATOM     15  C   UNL     1       2.838  12.320  -1.221  0.00  0.00    +0.342 C 
ATOM     16  O   UNL     1       3.005  12.799  -0.116  0.00  0.00    -0.245 OA
BRANCH  15  17
ATOM     17  O   UNL     1       1.842  12.775  -2.009  0.00  0.00    -0.461 OA
BRANCH  17  19
ATOM     18  C   UNL     1      -0.058  14.217  -2.501  0.00  0.00    +0.048 C 
ATOM     19  C   UNL     1       1.009  13.836  -1.472  0.00  0.00    +0.229 C 
ENDBRANCH  17  19
ENDBRANCH  15  17
ENDBRANCH   5  15
ENDBRANCH   1   9
BRANCH   2  20
ATOM     20  C   UNL     1       1.004   7.461   0.029  0.00  0.00    +0.292 C 
BRANCH  20  21
ATOM     21  C   UNL     1       0.987   7.955   1.453  0.00  0.00    +0.002 A 
ATOM     22  C   UNL     1       1.800   7.362   2.400  0.00  0.00    +0.008 A 
ATOM     23  C   UNL     1       1.787   7.819   3.705  0.00  0.00    +0.000 A 
ATOM     24  C   UNL     1       0.954   8.863   4.064  0.00  0.00    +0.000 A 
ATOM     25  C   UNL     1       0.137   9.452   3.118  0.00  0.00    +0.000 A 
ATOM     26  C   UNL     1       0.153   8.998   1.812  0.00  0.00    +0.008 A 
ENDBRANCH  20  21
BRANCH  20  27
ATOM     27  O   UNL     1       1.095   6.012   0.022  0.00  0.00    -0.444 OA
BRANCH  27  28
ATOM     28  C   UNL     1      -0.064   5.326   0.030  0.00  0.00    +0.340 C 
ATOM     29  O   UNL     1      -1.123   5.922   0.043  0.00  0.00    -0.245 OA
BRANCH  28  30
ATOM     30  C   UNL     1      -0.049   3.848   0.023  0.00  0.00    +0.062 A 
ATOM     31  C   UNL     1       1.167   3.160   0.007  0.00  0.00    +0.015 A 
ATOM     32  C   UNL     1       1.177   1.781   0.000  0.00  0.00    +0.004 A 
ATOM     33  C   UNL     1      -0.013   1.076   0.008  0.00  0.00    +0.045 A 
ATOM     34  C   UNL     1      -1.226   1.751   0.017  0.00  0.00    +0.118 A 
ATOM     35  C   UNL     1      -1.248   3.135   0.031  0.00  0.00    +0.060 A 
BRANCH  34  36
ATOM     36  O   UNL     1      -2.392   1.052   0.019  0.00  0.00    -0.507 OA
ATOM     37  H   UNL     1      -2.725   0.845   0.902  0.00  0.00    +0.292 HD
ENDBRANCH  34  36
ENDBRANCH  28  30
ENDBRANCH  27  28
ENDBRANCH  20  27
ENDBRANCH   2  20
TORSDOF 10
