REMARK  Name = ZINC09634388
REMARK  6 active torsions:
REMARK  status: ('A' for Active; 'I' for Inactive)
REMARK    1  A    between atoms: C_3  and  S_6
REMARK    2  A    between atoms: S_6  and  N_9
REMARK    3  A    between atoms: C_15  and  C_17
REMARK    4  A    between atoms: C_20  and  C_23
REMARK    5  A    between atoms: C_23  and  S_24
REMARK    6  A    between atoms: S_24  and  C_25
REMARK                            x       y       z     vdW  Elec       q    Type
REMARK                         _______ _______ _______ _____ _____    ______ ____
ROOT
ATOM      1  N   UNL     1       0.316   3.384   2.085  0.00  0.00    -0.173 NA
ATOM      2  C   UNL     1       1.541   2.679   1.679  0.00  0.00    +0.128 C 
ATOM      3  C   UNL     1       1.307   2.045   0.303  0.00  0.00    +0.125 C 
ATOM      4  N   UNL     1       0.040   1.301   0.337  0.00  0.00    -0.295 N 
ATOM      5  C   UNL     1      -1.185   2.006   0.738  0.00  0.00    +0.125 C 
ATOM      6  C   UNL     1      -0.950   2.639   2.120  0.00  0.00    +0.128 C 
ATOM      7  C   UNL     1       0.002  -0.004   0.002  0.00  0.00    +0.247 C 
ATOM      8  O   UNL     1       1.007  -0.558  -0.399  0.00  0.00    -0.270 OA
ENDROOT
BRANCH   7   9
ATOM      9  C   UNL     1      -1.262  -0.761   0.122  0.00  0.00    +0.037 A 
ATOM     10  C   UNL     1      -1.290  -1.975   0.810  0.00  0.00    +0.013 A 
ATOM     11  C   UNL     1      -2.474  -2.674   0.922  0.00  0.00    +0.005 A 
ATOM     12  C   UNL     1      -3.630  -2.179   0.345  0.00  0.00    -0.037 A 
ATOM     13  C   UNL     1      -3.608  -0.980  -0.343  0.00  0.00    +0.005 A 
ATOM     14  C   UNL     1      -2.432  -0.268  -0.458  0.00  0.00    +0.013 A 
BRANCH  12  15
ATOM     15  C   UNL     1      -4.919  -2.951   0.468  0.00  0.00    +0.112 C 
BRANCH  15  16
ATOM     16  S   UNL     1      -5.072  -4.095  -0.927  0.00  0.00    -0.082 S 
BRANCH  16  17
ATOM     17  C   UNL     1      -6.620  -4.843  -0.541  0.00  0.00    +0.189 A 
ATOM     18  N   UNL     1      -7.260  -5.806  -1.267  0.00  0.00    -0.323 N 
ATOM     19  H   UNL     1      -6.958  -6.214  -2.093  0.00  0.00    +0.169 HD
ATOM     20  C   UNL     1      -8.414  -6.078  -0.585  0.00  0.00    +0.222 A 
ATOM     21  N   UNL     1      -8.435  -5.307   0.465  0.00  0.00    -0.137 NA
ATOM     22  N   UNL     1      -7.379  -4.575   0.497  0.00  0.00    -0.123 NA
ENDBRANCH  16  17
ENDBRANCH  15  16
ENDBRANCH  12  15
ENDBRANCH   7   9
BRANCH   1  23
ATOM     23  S   UNL     1       0.363   4.987   2.496  0.00  0.00    +0.067 S 
ATOM     24  O   UNL     1      -0.756   5.223   3.339  0.00  0.00    -0.152 OA
ATOM     25  O   UNL     1       1.696   5.263   2.905  0.00  0.00    -0.152 OA
BRANCH  23  28
ATOM     26  C   UNL     1      -1.060   7.059  -0.691  0.00  0.00    +0.010 A 
ATOM     27  C   UNL     1      -1.084   6.337   0.488  0.00  0.00    +0.036 A 
ATOM     28  C   UNL     1       0.087   5.911   1.022  0.00  0.00    +0.143 A 
ATOM     29  S   UNL     1       1.276   6.522  -0.162  0.00  0.00    -0.077 S 
ATOM     30  C   UNL     1       0.133   7.310  -1.284  0.00  0.00    +0.047 A 
ENDBRANCH  23  28
ENDBRANCH   1  23
TORSDOF 6
