REMARK  Name = ZINC00985828
REMARK  11 active torsions:
REMARK  status: ('A' for Active; 'I' for Inactive)
REMARK    1  A    between atoms: C_1  and  C_2
REMARK    2  A    between atoms: C_2  and  C_3
REMARK    3  A    between atoms: C_2  and  C_4
REMARK    4  A    between atoms: C_4  and  C_5
REMARK    5  A    between atoms: C_8  and  C_11
REMARK    6  A    between atoms: C_18  and  N_33
REMARK    7  A    between atoms: C_19  and  C_31
REMARK    8  A    between atoms: C_20  and  C_22
REMARK    9  A    between atoms: C_25  and  N_28
REMARK   10  A    between atoms: N_28  and  C_29
REMARK   11  A    between atoms: N_28  and  C_30
REMARK                            x       y       z     vdW  Elec       q    Type
REMARK                         _______ _______ _______ _____ _____    ______ ____
ROOT
ATOM      1  C   UNL     1      -1.503  -6.659  -0.442  0.00  0.00    +0.100 A 
ATOM      2  C   UNL     1      -0.600  -7.370   0.354  0.00  0.00    +0.054 A 
ATOM      3  C   UNL     1      -0.713  -8.694   0.041  0.00  0.00    +0.223 A 
ATOM      4  N   UNL     1      -1.655  -8.810  -0.918  0.00  0.00    -0.246 N 
ATOM      5  H   UNL     1      -1.946  -9.636  -1.334  0.00  0.00    +0.192 HD
ATOM      6  N   UNL     1      -2.142  -7.525  -1.205  0.00  0.00    -0.171 NA
ATOM      7  O   UNL     1       0.035  -9.654   0.639  0.00  0.00    -0.423 OA
ATOM      8  C   UNL     1       1.099  -9.255   1.367  0.00  0.00    +0.200 C 
ATOM      9  C   UNL     1       1.311  -7.976   1.748  0.00  0.00    +0.098 C 
ATOM     10  C   UNL     1       0.361  -6.859   1.396  0.00  0.00    +0.102 C 
ENDROOT
BRANCH   1  14
ATOM     11  C   UNL     1      -2.098  -2.448  -0.400  0.00  0.00    -0.047 A 
ATOM     12  C   UNL     1      -0.816  -2.963  -0.338  0.00  0.00    +0.004 A 
ATOM     13  C   UNL     1      -0.617  -4.329  -0.352  0.00  0.00    +0.010 A 
ATOM     14  C   UNL     1      -1.711  -5.189  -0.427  0.00  0.00    +0.003 A 
ATOM     15  C   UNL     1      -3.000  -4.665  -0.488  0.00  0.00    +0.010 A 
ATOM     16  C   UNL     1      -3.188  -3.297  -0.469  0.00  0.00    +0.004 A 
BRANCH  11  17
ATOM     17  C   UNL     1      -2.309  -0.956  -0.384  0.00  0.00    +0.038 C 
BRANCH  17  19
ATOM     18  C   UNL     1      -2.542   1.051   1.085  0.00  0.00    +0.007 C 
ATOM     19  C   UNL     1      -2.453  -0.476   1.061  0.00  0.00    -0.013 C 
ATOM     20  C   UNL     1      -3.723  -1.071   1.672  0.00  0.00    +0.007 C 
ENDBRANCH  17  19
ENDBRANCH  11  17
ENDBRANCH   1  14
BRANCH  10  21
ATOM     21  C   UNL     1      -0.400  -6.431   2.624  0.00  0.00    -0.034 A 
ATOM     22  C   UNL     1      -1.238  -7.327   3.263  0.00  0.00    +0.006 A 
ATOM     23  C   UNL     1      -1.938  -6.938   4.388  0.00  0.00    +0.023 A 
ATOM     24  C   UNL     1      -1.798  -5.646   4.879  0.00  0.00    +0.029 A 
ATOM     25  C   UNL     1      -0.955  -4.749   4.235  0.00  0.00    +0.023 A 
ATOM     26  C   UNL     1      -0.255  -5.146   3.113  0.00  0.00    +0.006 A 
BRANCH  24  27
ATOM     27  N   UNL     1      -2.504  -5.250   6.018  0.00  0.00    -0.336 N 
ATOM     28  C   UNL     1      -3.393  -6.197   6.695  0.00  0.00    +0.129 C 
ATOM     29  C   UNL     1      -2.355  -3.887   6.534  0.00  0.00    +0.129 C 
ENDBRANCH  24  27
ENDBRANCH  10  21
BRANCH   8  30
ATOM     30  N   UNL     1       2.019 -10.203   1.740  0.00  0.00    -0.328 N 
ATOM     31  H   UNL     1       1.894 -11.129   1.481  0.00  0.00    +0.145 HD
ATOM     32  H   UNL     1       2.794  -9.946   2.264  0.00  0.00    +0.145 HD
ENDBRANCH   8  30
BRANCH   9  33
ATOM     33  C   UNL     1       2.480  -7.670   2.517  0.00  0.00    +0.101 C 
ATOM     34  N   UNL     1       3.408  -7.428   3.126  0.00  0.00    -0.191 NA
ENDBRANCH   9  33
TORSDOF 7
