REMARK  Name = ZINC37623940
REMARK  8 active torsions:
REMARK  status: ('A' for Active; 'I' for Inactive)
REMARK    1  A    between atoms: C_1  and  C_2
REMARK    2  A    between atoms: C_2  and  C_3
REMARK    3  A    between atoms: C_3  and  C_4
REMARK    4  A    between atoms: C_9  and  N_10
REMARK    5  A    between atoms: C_11  and  C_17
REMARK    6  A    between atoms: C_20  and  N_23
REMARK    7  A    between atoms: C_24  and  C_26
REMARK    8  A    between atoms: C_26  and  C_27
REMARK                            x       y       z     vdW  Elec       q    Type
REMARK                         _______ _______ _______ _____ _____    ______ ____
ROOT
ATOM      1  C   UNL     1      -3.354  -1.148   2.152  0.00  0.00    -0.017 A 
ATOM      2  C   UNL     1      -3.102  -0.500   0.957  0.00  0.00    +0.008 A 
ATOM      3  C   UNL     1      -4.151  -0.055   0.176  0.00  0.00    +0.023 A 
ATOM      4  C   UNL     1      -5.460  -0.259   0.593  0.00  0.00    +0.033 A 
ATOM      5  C   UNL     1      -5.710  -0.911   1.794  0.00  0.00    +0.023 A 
ATOM      6  C   UNL     1      -4.656  -1.357   2.567  0.00  0.00    +0.008 A 
ENDROOT
BRANCH   1   8
ATOM      7  N   UNL     1      -1.333  -2.545   2.241  0.00  0.00    -0.254 N 
ATOM      8  C   UNL     1      -2.207  -1.632   3.001  0.00  0.00    +0.170 C 
ATOM      9  S   UNL     1      -1.042  -0.256   3.389  0.00  0.00    -0.124 S 
ATOM     10  C   UNL     1       0.511  -1.217   3.121  0.00  0.00    +0.167 C 
ATOM     11  C   UNL     1      -0.018  -2.373   2.287  0.00  0.00    +0.231 C 
ATOM     12  O   UNL     1       0.734  -3.108   1.683  0.00  0.00    -0.274 OA
BRANCH   7  18
ATOM     13  C   UNL     1      -1.968  -4.865   2.016  0.00  0.00    -0.026 A 
ATOM     14  C   UNL     1      -2.518  -5.888   1.268  0.00  0.00    +0.005 A 
ATOM     15  C   UNL     1      -2.979  -5.640  -0.012  0.00  0.00    +0.000 A 
ATOM     16  C   UNL     1      -2.892  -4.367  -0.547  0.00  0.00    +0.002 A 
ATOM     17  C   UNL     1      -2.344  -3.340   0.196  0.00  0.00    +0.024 A 
ATOM     18  C   UNL     1      -1.884  -3.585   1.483  0.00  0.00    +0.041 A 
BRANCH  13  19
ATOM     19  C   UNL     1      -1.465  -5.136   3.410  0.00  0.00    +0.037 C 
BRANCH  19  21
ATOM     20  C   UNL     1      -2.071  -5.124   5.834  0.00  0.00    +0.004 C 
ATOM     21  C   UNL     1      -2.596  -4.902   4.414  0.00  0.00    +0.001 C 
ENDBRANCH  19  21
ENDBRANCH  13  19
ENDBRANCH   7  18
ENDBRANCH   1   8
BRANCH   4  22
ATOM     22  N   UNL     1      -6.525   0.191  -0.195  0.00  0.00    -0.285 N 
ATOM     23  C   UNL     1      -6.395   0.246  -1.536  0.00  0.00    +0.222 C 
ATOM     24  O   UNL     1      -5.396  -0.191  -2.067  0.00  0.00    -0.275 OA
ATOM     25  H   UNL     1      -7.357   0.462   0.223  0.00  0.00    +0.155 HD
BRANCH  23  26
ATOM     26  C   UNL     1      -7.491   0.852  -2.374  0.00  0.00    +0.138 C 
BRANCH  26  27
ATOM     27  C   UNL     1      -7.101   0.792  -3.829  0.00  0.00    -0.001 A 
ATOM     28  C   UNL     1      -7.343  -0.184  -4.738  0.00  0.00    +0.011 A 
ATOM     29  C   UNL     1      -6.886  -0.022  -6.032  0.00  0.00    +0.008 A 
ATOM     30  C   UNL     1      -6.210   1.107  -6.355  0.00  0.00    +0.045 A 
ATOM     31  S   UNL     1      -6.208   1.992  -4.804  0.00  0.00    -0.101 S 
ENDBRANCH  26  27
ENDBRANCH  23  26
ENDBRANCH   4  22
TORSDOF 7
