REMARK  Name = ZINC00813415
REMARK  4 active torsions:
REMARK  status: ('A' for Active; 'I' for Inactive)
REMARK    1  A    between atoms: C_1  and  C_2
REMARK    2  A    between atoms: C_3  and  C_8
REMARK    3  A    between atoms: C_5  and  C_7
REMARK    4  A    between atoms: N_13  and  C_14
REMARK                            x       y       z     vdW  Elec       q    Type
REMARK                         _______ _______ _______ _____ _____    ______ ____
ROOT
ATOM      1  C   UNL     1      -0.009  -0.240  -2.569  0.00  0.00    +0.089 A 
ATOM      2  C   UNL     1       0.292  -1.111  -3.580  0.00  0.00    +0.077 A 
ATOM      3  S   UNL     1       0.398   0.012  -4.967  0.00  0.00    -0.060 S 
ATOM      4  C   UNL     1       0.034   1.514  -4.071  0.00  0.00    +0.163 A 
ATOM      5  N   UNL     1      -0.137   1.057  -2.844  0.00  0.00    -0.224 NA
ATOM      6  N   UNL     1      -0.053   2.816  -4.540  0.00  0.00    -0.294 N 
ATOM      7  H   UNL     1      -0.178   3.549  -3.918  0.00  0.00    +0.154 HD
ENDROOT
BRANCH   1  10
ATOM      8  C   UNL     1      -0.708   1.451  -0.052  0.00  0.00    +0.067 C 
ATOM      9  C   UNL     1      -0.506  -0.042  -0.044  0.00  0.00    +0.055 A 
ATOM     10  C   UNL     1      -0.198  -0.734  -1.188  0.00  0.00    +0.061 A 
ATOM     11  S   UNL     1      -0.091  -2.397  -0.546  0.00  0.00    -0.071 S 
ATOM     12  C   UNL     1      -0.438  -2.047   1.063  0.00  0.00    +0.076 A 
ATOM     13  N   UNL     1      -0.609  -0.748   1.062  0.00  0.00    -0.249 NA
ATOM     14  C   UNL     1      -0.526  -2.999   2.228  0.00  0.00    +0.073 C 
ENDBRANCH   1  10
BRANCH   6  15
ATOM     15  C   UNL     1       0.040   3.072  -5.913  0.00  0.00    +0.033 A 
ATOM     16  C   UNL     1      -0.555   2.208  -6.823  0.00  0.00    +0.026 A 
ATOM     17  C   UNL     1      -0.462   2.463  -8.177  0.00  0.00    +0.040 A 
ATOM     18  C   UNL     1       0.223   3.579  -8.627  0.00  0.00    +0.124 A 
ATOM     19  C   UNL     1       0.817   4.441  -7.721  0.00  0.00    +0.040 A 
ATOM     20  C   UNL     1       0.722   4.194  -6.366  0.00  0.00    +0.026 A 
ATOM     21  F   UNL     1       0.313   3.826  -9.953  0.00  0.00    -0.205 F 
ENDBRANCH   6  15
TORSDOF 2
