REMARK  Name = ZINC39749781
REMARK  10 active torsions:
REMARK  status: ('A' for Active; 'I' for Inactive)
REMARK    1  A    between atoms: C_1  and  C_2
REMARK    2  A    between atoms: C_2  and  N_3
REMARK    3  A    between atoms: C_4  and  C_23
REMARK    4  A    between atoms: C_7  and  S_8
REMARK    5  A    between atoms: S_8  and  C_9
REMARK    6  A    between atoms: C_9  and  C_10
REMARK    7  A    between atoms: C_20  and  C_22
REMARK    8  A    between atoms: C_23  and  C_25
REMARK    9  A    between atoms: C_23  and  N_26
REMARK   10  A    between atoms: C_27  and  C_29
REMARK                            x       y       z     vdW  Elec       q    Type
REMARK                         _______ _______ _______ _____ _____    ______ ____
ROOT
ATOM      1  N   UNL     1       0.711  -0.489   1.189  0.00  0.00    -0.305 N 
ATOM      2  C   UNL     1       2.050  -0.742   1.306  0.00  0.00    +0.154 A 
ATOM      3  N   UNL     1       2.262  -1.156   2.523  0.00  0.00    -0.132 NA
ATOM      4  N   UNL     1       1.157  -1.182   3.179  0.00  0.00    -0.122 NA
ATOM      5  C   UNL     1       0.172  -0.778   2.410  0.00  0.00    +0.192 A 
ENDROOT
BRANCH   1   7
ATOM      6  C   UNL     1      -0.019   1.526   0.010  0.00  0.00    +0.027 C 
ATOM      7  C   UNL     1       0.002  -0.004   0.002  0.00  0.00    +0.122 C 
ENDBRANCH   1   7
BRANCH   2   8
ATOM      8  C   UNL     1       3.088  -0.573   0.226  0.00  0.00    +0.138 C 
ATOM      9  C   UNL     1       3.491  -1.947  -0.313  0.00  0.00    +0.036 C 
BRANCH   8  10
ATOM     10  N   UNL     1       4.265   0.099   0.781  0.00  0.00    -0.302 N 
ATOM     11  C   UNL     1       5.085   0.800  -0.027  0.00  0.00    +0.245 C 
ATOM     12  O   UNL     1       4.847   0.874  -1.217  0.00  0.00    -0.270 OA
ATOM     13  H   UNL     1       4.455   0.039   1.731  0.00  0.00    +0.150 HD
BRANCH  11  14
ATOM     14  C   UNL     1       6.272   1.478   0.533  0.00  0.00    +0.038 A 
ATOM     15  C   UNL     1       6.551   1.389   1.899  0.00  0.00    +0.014 A 
ATOM     16  C   UNL     1       7.660   2.023   2.416  0.00  0.00    +0.022 A 
ATOM     17  C   UNL     1       8.498   2.748   1.585  0.00  0.00    +0.059 A 
ATOM     18  C   UNL     1       8.227   2.840   0.229  0.00  0.00    +0.060 A 
ATOM     19  C   UNL     1       7.123   2.204  -0.301  0.00  0.00    +0.034 A 
ATOM     20 CL   UNL     1       9.283   3.751  -0.806  0.00  0.00    -0.082 Cl
ATOM     21 CL   UNL     1       9.893   3.545   2.244  0.00  0.00    -0.082 Cl
ENDBRANCH  11  14
ENDBRANCH   8  10
ENDBRANCH   2   8
BRANCH   5  22
ATOM     22  S   UNL     1      -1.524  -0.637   2.867  0.00  0.00    -0.077 S 
BRANCH  22  23
ATOM     23  C   UNL     1      -1.557  -1.169   4.601  0.00  0.00    +0.173 C 
BRANCH  23  24
ATOM     24  C   UNL     1      -2.969  -1.095   5.122  0.00  0.00    +0.230 C 
ATOM     25  O   UNL     1      -3.865  -0.721   4.395  0.00  0.00    -0.274 OA
ATOM     26  N   UNL     1      -3.236  -1.445   6.396  0.00  0.00    -0.267 N 
ATOM     27  C   UNL     1      -2.285  -1.883   7.323  0.00  0.00    +0.040 A 
ATOM     28  C   UNL     1      -0.909  -2.056   7.165  0.00  0.00    +0.024 A 
ATOM     29  C   UNL     1      -0.139  -2.504   8.217  0.00  0.00    +0.002 A 
ATOM     30  C   UNL     1      -0.725  -2.786   9.438  0.00  0.00    +0.000 A 
ATOM     31  C   UNL     1      -2.087  -2.617   9.602  0.00  0.00    +0.005 A 
ATOM     32  C   UNL     1      -2.862  -2.168   8.550  0.00  0.00    -0.024 A 
ATOM     33  C   UNL     1      -4.348  -1.900   8.457  0.00  0.00    +0.059 C 
ATOM     34  C   UNL     1      -4.564  -1.416   7.014  0.00  0.00    +0.083 C 
ATOM     35  C   UNL     1      -5.514  -2.361   6.276  0.00  0.00    +0.029 C 
ENDBRANCH  23  24
ENDBRANCH  22  23
ENDBRANCH   5  22
TORSDOF 7
