REMARK  Name = ZINC22700145
REMARK  6 active torsions:
REMARK  status: ('A' for Active; 'I' for Inactive)
REMARK    1  A    between atoms: C_4  and  C_7
REMARK    2  A    between atoms: C_7  and  N_8
REMARK    3  A    between atoms: N_16  and  C_17
REMARK    4  A    between atoms: C_17  and  C_19
REMARK    5  A    between atoms: C_24  and  N_25
REMARK    6  A    between atoms: C_26  and  C_28
REMARK                            x       y       z     vdW  Elec       q    Type
REMARK                         _______ _______ _______ _____ _____    ______ ____
ROOT
ATOM      1  N   UNL     1       4.136  -0.975   1.342  0.00  0.00    +0.386 N 
ATOM      2  C   UNL     1       5.471  -1.587   1.325  0.00  0.00    -0.072 C 
ATOM      3  C   UNL     1       6.079  -1.570   2.731  0.00  0.00    +0.035 C 
ATOM      4  C   UNL     1       5.068  -2.189   3.688  0.00  0.00    +0.024 A 
ATOM      5  C   UNL     1       3.783  -2.308   3.315  0.00  0.00    -0.004 A 
ATOM      6  S   UNL     1       3.010  -3.066   4.714  0.00  0.00    -0.059 S 
ATOM      7  C   UNL     1       4.367  -3.190   5.704  0.00  0.00    +0.164 A 
ATOM      8  N   UNL     1       5.358  -2.654   4.941  0.00  0.00    -0.339 N 
ATOM      9  N   UNL     1       4.449  -3.691   6.935  0.00  0.00    -0.152 NA
ATOM     10  C   UNL     1       3.187  -1.883   2.013  0.00  0.00    -0.033 C 
ATOM     11  H   UNL     1       6.264  -2.603   5.284  0.00  0.00    +0.167 HD
ATOM     12  H   UNL     1       4.173  -0.099   1.842  0.00  0.00    -0.081 HD
ENDROOT
BRANCH   9  13
ATOM     13  C   UNL     1       5.622  -3.706   7.573  0.00  0.00    +0.271 C 
ATOM     14  O   UNL     1       6.618  -3.260   7.028  0.00  0.00    -0.268 OA
BRANCH  13  15
ATOM     15  C   UNL     1       5.714  -4.262   8.940  0.00  0.00    +0.060 A 
ATOM     16  C   UNL     1       4.562  -4.683   9.604  0.00  0.00    +0.015 A 
ATOM     17  C   UNL     1       4.653  -5.202  10.879  0.00  0.00    +0.001 A 
ATOM     18  C   UNL     1       5.885  -5.307  11.504  0.00  0.00    +0.002 A 
ATOM     19  C   UNL     1       7.033  -4.894  10.858  0.00  0.00    +0.024 A 
ATOM     20  C   UNL     1       6.959  -4.375   9.573  0.00  0.00    +0.046 A 
BRANCH  20  21
ATOM     21  N   UNL     1       8.118  -3.963   8.917  0.00  0.00    -0.281 N 
ATOM     22  C   UNL     1       9.274  -4.628   9.111  0.00  0.00    +0.248 C 
ATOM     23  O   UNL     1       9.288  -5.642   9.780  0.00  0.00    -0.270 OA
ATOM     24  H   UNL     1       8.092  -3.198   8.321  0.00  0.00    +0.155 HD
BRANCH  22  25
ATOM     25  C   UNL     1      10.526  -4.122   8.509  0.00  0.00    +0.037 A 
ATOM     26  C   UNL     1      10.515  -2.954   7.745  0.00  0.00    +0.013 A 
ATOM     27  C   UNL     1      11.687  -2.488   7.186  0.00  0.00    +0.001 A 
ATOM     28  C   UNL     1      12.872  -3.176   7.382  0.00  0.00    +0.000 A 
ATOM     29  C   UNL     1      12.890  -4.334   8.139  0.00  0.00    +0.001 A 
ATOM     30  C   UNL     1      11.726  -4.808   8.707  0.00  0.00    +0.013 A 
ENDBRANCH  22  25
ENDBRANCH  20  21
ENDBRANCH  13  15
ENDBRANCH   9  13
BRANCH   1  31
ATOM     31  C   UNL     1       3.690  -0.733  -0.036  0.00  0.00    -0.043 C 
BRANCH  31  35
ATOM     32  C   UNL     1      -0.034   1.359   0.014  0.00  0.00    +0.000 A 
ATOM     33  C   UNL     1       1.155   2.065   0.001  0.00  0.00    +0.000 A 
ATOM     34  C   UNL     1       2.360   1.388  -0.015  0.00  0.00    +0.002 A 
ATOM     35  C   UNL     1       2.377   0.005  -0.018  0.00  0.00    -0.064 A 
ATOM     36  C   UNL     1       1.188  -0.700  -0.003  0.00  0.00    +0.002 A 
ATOM     37  C   UNL     1      -0.017  -0.023   0.012  0.00  0.00    +0.000 A 
ENDBRANCH  31  35
ENDBRANCH   1  31
TORSDOF 6
