REMARK  Name = ZINC20609500
REMARK  12 active torsions:
REMARK  status: ('A' for Active; 'I' for Inactive)
REMARK    1  A    between atoms: C_1  and  C_2
REMARK    2  A    between atoms: C_2  and  O_3
REMARK    3  A    between atoms: O_3  and  C_4
REMARK    4  A    between atoms: C_4  and  C_6
REMARK    5  A    between atoms: C_9  and  C_10
REMARK    6  A    between atoms: C_13  and  O_16
REMARK    7  A    between atoms: C_17  and  N_36
REMARK    8  A    between atoms: C_18  and  C_32
REMARK    9  A    between atoms: C_22  and  C_25
REMARK   10  A    between atoms: C_28  and  O_31
REMARK   11  A    between atoms: C_32  and  O_34
REMARK   12  A    between atoms: O_34  and  C_35
REMARK                            x       y       z     vdW  Elec       q    Type
REMARK                         _______ _______ _______ _____ _____    ______ ____
ROOT
ATOM      1  C   UNL     1       7.286   4.856   0.069  0.00  0.00    +0.118 C 
ATOM      2  C   UNL     1       7.780   4.032   1.066  0.00  0.00    +0.079 A 
ATOM      3  C   UNL     1       8.938   4.288   1.929  0.00  0.00    +0.024 A 
ATOM      4  C   UNL     1       9.828   5.343   1.848  0.00  0.00    +0.019 C 
ATOM      5  C   UNL     1       8.952   3.181   2.901  0.00  0.00    +0.065 A 
ATOM      6  C   UNL     1       7.914   2.337   2.570  0.00  0.00    +0.155 A 
ATOM      7  N   UNL     1       7.243   2.811   1.436  0.00  0.00    -0.270 N 
ATOM      8  C   UNL     1       6.270   2.148   0.779  0.00  0.00    +0.250 C 
ATOM      9  O   UNL     1       5.710   1.221   1.324  0.00  0.00    -0.271 OA
ATOM     10  C   UNL     1       5.864   2.536  -0.619  0.00  0.00    +0.170 C 
ATOM     11  S   UNL     1       5.806   4.346  -0.755  0.00  0.00    -0.099 S 
ENDROOT
BRANCH   4  12
ATOM     12  C   UNL     1      11.032   5.350   2.680  0.00  0.00    -0.024 A 
ATOM     13  C   UNL     1      11.427   6.525   3.337  0.00  0.00    +0.011 A 
ATOM     14  C   UNL     1      12.553   6.525   4.118  0.00  0.00    +0.046 A 
ATOM     15  C   UNL     1      13.309   5.365   4.253  0.00  0.00    +0.117 A 
ATOM     16  C   UNL     1      12.926   4.198   3.601  0.00  0.00    +0.046 A 
ATOM     17  C   UNL     1      11.799   4.184   2.820  0.00  0.00    +0.011 A 
BRANCH  15  18
ATOM     18  O   UNL     1      14.426   5.372   5.025  0.00  0.00    -0.507 OA
ATOM     19  H   UNL     1      15.025   4.456   5.133  0.00  0.00    +0.292 HD
ENDBRANCH  15  18
ENDBRANCH   4  12
BRANCH  10  20
ATOM     20  C   UNL     1       4.503   1.966  -0.922  0.00  0.00    -0.025 A 
ATOM     21  C   UNL     1       4.343   1.084  -1.976  0.00  0.00    +0.009 A 
ATOM     22  C   UNL     1       3.096   0.560  -2.256  0.00  0.00    +0.046 A 
ATOM     23  C   UNL     1       2.003   0.919  -1.480  0.00  0.00    +0.117 A 
ATOM     24  C   UNL     1       2.165   1.807  -0.427  0.00  0.00    +0.046 A 
ATOM     25  C   UNL     1       3.416   2.324  -0.147  0.00  0.00    +0.009 A 
BRANCH  23  26
ATOM     26  O   UNL     1       0.776   0.404  -1.753  0.00  0.00    -0.507 OA
ATOM     27  H   UNL     1      -0.090   0.689  -1.137  0.00  0.00    +0.292 HD
ENDBRANCH  23  26
ENDBRANCH  10  20
BRANCH   5  28
ATOM     28  N   UNL     1       9.840   3.018   3.947  0.00  0.00    -0.356 N 
ATOM     29  H   UNL     1       9.753   2.146   4.613  0.00  0.00    +0.142 HD
ATOM     30  H   UNL     1      10.634   3.761   4.115  0.00  0.00    +0.142 HD
ENDBRANCH   5  28
BRANCH   1  31
ATOM     31  C   UNL     1       7.941   6.059  -0.278  0.00  0.00    +0.348 C 
ATOM     32  O   UNL     1       7.585   7.111   0.222  0.00  0.00    -0.244 OA
BRANCH  31  33
ATOM     33  O   UNL     1       8.960   6.042  -1.164  0.00  0.00    -0.461 OA
BRANCH  33  35
ATOM     34  C   UNL     1      10.700   7.078  -2.483  0.00  0.00    +0.048 C 
ATOM     35  C   UNL     1       9.575   7.295  -1.469  0.00  0.00    +0.229 C 
ENDBRANCH  33  35
ENDBRANCH  31  33
ENDBRANCH   1  31
BRANCH   6  36
ATOM     36  C   UNL     1       7.576   1.161   3.275  0.00  0.00    +0.358 C 
ATOM     37  O   UNL     1       6.406   0.887   3.475  0.00  0.00    -0.243 OA
BRANCH  36  38
ATOM     38  O   UNL     1       8.549   0.341   3.726  0.00  0.00    -0.463 OA
ATOM     39  C   UNL     1       8.134  -0.831   4.431  0.00  0.00    +0.280 C 
ENDBRANCH  36  38
ENDBRANCH   6  36
TORSDOF 10
