REMARK  Name = ZINC39639307
REMARK  10 active torsions:
REMARK  status: ('A' for Active; 'I' for Inactive)
REMARK    1  A    between atoms: C_1  and  C_2
REMARK    2  A    between atoms: C_2  and  C_3
REMARK    3  A    between atoms: C_3  and  C_4
REMARK    4  A    between atoms: C_3  and  C_6
REMARK    5  A    between atoms: C_4  and  C_5
REMARK    6  A    between atoms: C_10  and  C_19
REMARK    7  A    between atoms: N_21  and  C_22
REMARK    8  A    between atoms: C_22  and  C_24
REMARK    9  A    between atoms: C_22  and  C_25
REMARK   10  A    between atoms: C_28  and  C_31
REMARK                            x       y       z     vdW  Elec       q    Type
REMARK                         _______ _______ _______ _____ _____    ______ ____
ROOT
ATOM      1  C   UNL     1      -1.678  -2.058   0.373  0.00  0.00    +0.219 C 
ATOM      2  O   UNL     1      -2.304  -2.835  -0.317  0.00  0.00    -0.275 OA
ATOM      3  N   UNL     1      -0.943  -2.516   1.406  0.00  0.00    -0.300 N 
ATOM      4  C   UNL     1      -0.123  -1.728   2.357  0.00  0.00    +0.121 C 
ATOM      5  C   UNL     1      -0.355  -2.406   3.726  0.00  0.00    +0.100 C 
ATOM      6  C   UNL     1      -0.778  -3.845   3.385  0.00  0.00    -0.004 C 
ATOM      7  C   UNL     1      -0.776  -3.920   1.851  0.00  0.00    +0.115 C 
ATOM      8  C   UNL     1      -2.179  -4.124   3.920  0.00  0.00    -0.010 C 
ATOM      9  C   UNL     1      -2.555  -5.578   3.619  0.00  0.00    -0.082 C 
ATOM     10  N   UNL     1      -1.580  -6.477   4.248  0.00  0.00    +0.379 N 
ATOM     11  C   UNL     1      -0.251  -6.266   3.662  0.00  0.00    -0.082 C 
ATOM     12  C   UNL     1       0.222  -4.841   3.965  0.00  0.00    -0.010 C 
ATOM     13  H   UNL     1      -1.543  -6.290   5.239  0.00  0.00    -0.086 HD
ATOM     14  H   UNL     1      -1.863  -7.434   4.100  0.00  0.00    -0.086 HD
ENDROOT
BRANCH   5  15
ATOM     15  C   UNL     1       0.918  -2.408   4.532  0.00  0.00    +0.219 C 
ATOM     16  O   UNL     1       1.992  -2.363   3.970  0.00  0.00    -0.275 OA
ATOM     17  N   UNL     1       0.864  -2.460   5.878  0.00  0.00    -0.308 N 
ATOM     18  H   UNL     1       0.005  -2.496   6.327  0.00  0.00    +0.149 HD
BRANCH  17  19
ATOM     19  C   UNL     1       2.102  -2.462   6.662  0.00  0.00    +0.100 C 
ATOM     20  C   UNL     1       2.568  -1.022   6.882  0.00  0.00    +0.033 C 
BRANCH  19  21
ATOM     21  C   UNL     1       1.851  -3.119   7.995  0.00  0.00    -0.027 A 
ATOM     22  C   UNL     1       0.669  -2.882   8.670  0.00  0.00    +0.006 A 
ATOM     23  C   UNL     1       0.439  -3.485   9.893  0.00  0.00    +0.004 A 
ATOM     24  C   UNL     1       1.392  -4.325  10.440  0.00  0.00    -0.050 A 
ATOM     25  C   UNL     1       2.574  -4.562   9.763  0.00  0.00    +0.004 A 
ATOM     26  C   UNL     1       2.801  -3.963   8.539  0.00  0.00    +0.006 A 
ATOM     27  C   UNL     1       1.142  -4.981  11.773  0.00  0.00    +0.044 C 
ENDBRANCH  19  21
ENDBRANCH  17  19
ENDBRANCH   5  15
BRANCH   1  28
ATOM     28  C   UNL     1      -1.722  -0.582   0.075  0.00  0.00    +0.075 C 
BRANCH  28  30
ATOM     29  C   UNL     1      -0.331   1.441  -0.389  0.00  0.00    +0.004 C 
ATOM     30  C   UNL     1      -0.308  -0.080  -0.226  0.00  0.00    +0.009 C 
ENDBRANCH  28  30
BRANCH  28  31
ATOM     31  C   UNL     1      -2.621  -0.333  -1.137  0.00  0.00    +0.009 C 
ATOM     32  C   UNL     1      -4.067  -0.682  -0.781  0.00  0.00    +0.004 C 
ENDBRANCH  28  31
ENDBRANCH   1  28
TORSDOF 6
