REMARK  Name = ZINC12362215
REMARK  10 active torsions:
REMARK  status: ('A' for Active; 'I' for Inactive)
REMARK    1  A    between atoms: C_1  and  C_2
REMARK    2  A    between atoms: C_2  and  C_14
REMARK    3  A    between atoms: N_3  and  N_4
REMARK    4  A    between atoms: N_4  and  C_5
REMARK    5  A    between atoms: C_8  and  N_11
REMARK    6  A    between atoms: C_17  and  C_19
REMARK    7  A    between atoms: C_19  and  C_31
REMARK    8  A    between atoms: N_20  and  N_21
REMARK    9  A    between atoms: N_21  and  C_22
REMARK   10  A    between atoms: C_25  and  N_28
REMARK                            x       y       z     vdW  Elec       q    Type
REMARK                         _______ _______ _______ _____ _____    ______ ____
ROOT
ATOM      1  C   UNL     1       1.427  -0.743   0.320  0.00  0.00    +0.035 A 
ATOM      2  C   UNL     1       2.787  -0.204   0.433  0.00  0.00    +0.018 A 
ATOM      3  C   UNL     1       3.797  -1.065   0.474  0.00  0.00    +0.018 A 
ATOM      4  C   UNL     1       3.486  -2.497   0.394  0.00  0.00    +0.037 A 
ATOM      5  S   UNL     1       1.706  -2.505   0.267  0.00  0.00    -0.086 S 
ENDROOT
BRANCH   1   7
ATOM      6  C   UNL     1       0.121   1.232  -0.522  0.00  0.00    +0.068 C 
ATOM      7  C   UNL     1       0.218  -0.051   0.262  0.00  0.00    +0.070 C 
ATOM      8  N   UNL     1      -0.843  -0.520   0.896  0.00  0.00    -0.186 NA
BRANCH   8   9
ATOM      9  N   UNL     1      -0.730  -1.540   1.677  0.00  0.00    -0.238 N 
ATOM     10  H   UNL     1       0.146  -1.917   1.859  0.00  0.00    +0.174 HD
BRANCH   9  11
ATOM     11  C   UNL     1      -1.860  -2.100   2.257  0.00  0.00    +0.048 A 
ATOM     12  C   UNL     1      -3.118  -1.559   2.002  0.00  0.00    +0.027 A 
ATOM     13  C   UNL     1      -4.239  -2.123   2.575  0.00  0.00    +0.034 A 
ATOM     14  C   UNL     1      -4.114  -3.217   3.413  0.00  0.00    +0.126 A 
ATOM     15  C   UNL     1      -2.866  -3.756   3.674  0.00  0.00    +0.034 A 
ATOM     16  C   UNL     1      -1.740  -3.202   3.100  0.00  0.00    +0.027 A 
BRANCH  14  17
ATOM     17  N   UNL     1      -5.319  -3.814   4.030  0.00  0.00    +0.056 N 
ATOM     18  O   UNL     1      -5.203  -4.856   4.828  0.00  0.00    -0.126 OA
ATOM     19  O   UNL     1      -6.508  -3.304   3.783  0.00  0.00    -0.126 OA
ENDBRANCH  14  17
ENDBRANCH   9  11
ENDBRANCH   8   9
ENDBRANCH   1   7
BRANCH   4  20
ATOM     20  C   UNL     1       4.363  -3.581   0.411  0.00  0.00    +0.087 C 
ATOM     21  N   UNL     1       5.668  -3.377   0.347  0.00  0.00    -0.185 NA
BRANCH  21  22
ATOM     22  N   UNL     1       6.474  -4.380   0.263  0.00  0.00    -0.237 N 
ATOM     23  H   UNL     1       6.122  -5.279   0.172  0.00  0.00    +0.174 HD
BRANCH  22  24
ATOM     24  C   UNL     1       7.847  -4.173   0.303  0.00  0.00    +0.048 A 
ATOM     25  C   UNL     1       8.355  -2.883   0.428  0.00  0.00    +0.027 A 
ATOM     26  C   UNL     1       9.720  -2.683   0.474  0.00  0.00    +0.034 A 
ATOM     27  C   UNL     1      10.583  -3.761   0.383  0.00  0.00    +0.126 A 
ATOM     28  C   UNL     1      10.082  -5.044   0.253  0.00  0.00    +0.034 A 
ATOM     29  C   UNL     1       8.719  -5.255   0.213  0.00  0.00    +0.027 A 
BRANCH  27  30
ATOM     30  N   UNL     1      12.046  -3.540   0.426  0.00  0.00    +0.056 N 
ATOM     31  O   UNL     1      12.869  -4.565   0.341  0.00  0.00    -0.126 OA
ATOM     32  O   UNL     1      12.524  -2.320   0.550  0.00  0.00    -0.126 OA
ENDBRANCH  27  30
ENDBRANCH  22  24
ENDBRANCH  21  22
BRANCH  20  33
ATOM     33  C   UNL     1       3.824  -4.985   0.505  0.00  0.00    +0.166 C 
ATOM     34 CL   UNL     1       2.030  -4.952   0.327  0.00  0.00    -0.119 Cl
ENDBRANCH  20  33
ENDBRANCH   4  20
TORSDOF 9
