REMARK  Name = ZINC28054242
REMARK  7 active torsions:
REMARK  status: ('A' for Active; 'I' for Inactive)
REMARK    1  A    between atoms: C_1  and  C_2
REMARK    2  A    between atoms: C_5  and  C_8
REMARK    3  A    between atoms: C_19  and  C_21
REMARK    4  A    between atoms: C_25  and  O_29
REMARK    5  A    between atoms: C_26  and  O_27
REMARK    6  A    between atoms: O_27  and  C_28
REMARK    7  A    between atoms: O_29  and  C_30
REMARK                            x       y       z     vdW  Elec       q    Type
REMARK                         _______ _______ _______ _____ _____    ______ ____
ROOT
ATOM      1  C   UNL     1       0.991   7.329  -0.257  0.00  0.00    +0.174 C 
ATOM      2  C   UNL     1       1.016   5.821  -0.276  0.00  0.00    +0.026 C 
ATOM      3  C   UNL     1      -0.040   5.084   0.076  0.00  0.00    +0.050 C 
ATOM      4  C   UNL     1       0.093   3.608   0.060  0.00  0.00    +0.039 A 
ATOM      5  C   UNL     1      -1.022   2.779   0.086  0.00  0.00    +0.033 A 
ATOM      6  C   UNL     1      -0.851   1.407   0.065  0.00  0.00    +0.042 A 
ATOM      7  C   UNL     1       0.422   0.862   0.030  0.00  0.00    +0.023 A 
ATOM      8  C   UNL     1       1.536   1.681   0.004  0.00  0.00    +0.048 A 
ATOM      9  C   UNL     1       1.379   3.055   0.019  0.00  0.00    +0.131 A 
ATOM     10  O   UNL     1       2.447   3.892  -0.008  0.00  0.00    -0.479 OA
ATOM     11  C   UNL     1       2.288   5.126  -0.707  0.00  0.00    +0.238 C 
ATOM     12 CL   UNL     1      -2.238   0.362   0.089  0.00  0.00    -0.084 Cl
ATOM     13  N   UNL     1      -1.255   5.659   0.467  0.00  0.00    -0.282 N 
ATOM     14  C   UNL     1      -1.425   7.012   0.225  0.00  0.00    +0.240 A 
ATOM     15  N   UNL     1      -0.378   7.805  -0.122  0.00  0.00    -0.201 N 
ATOM     16  N   UNL     1      -0.919   9.079  -0.296  0.00  0.00    -0.042 NA
ATOM     17  N   UNL     1      -2.185   8.978  -0.050  0.00  0.00    -0.021 NA
ATOM     18  N   UNL     1      -2.488   7.763   0.259  0.00  0.00    -0.092 NA
ATOM     19  H   UNL     1      -2.027   5.039   0.946  0.00  0.00    +0.155 HD
ENDROOT
BRANCH   1  24
ATOM     20  C   UNL     1       4.134   9.242   4.199  0.00  0.00    +0.044 C 
ATOM     21  C   UNL     1       3.314   8.744   3.037  0.00  0.00    -0.050 A 
ATOM     22  C   UNL     1       3.656   9.101   1.746  0.00  0.00    +0.004 A 
ATOM     23  C   UNL     1       2.904   8.643   0.680  0.00  0.00    +0.006 A 
ATOM     24  C   UNL     1       1.810   7.828   0.905  0.00  0.00    -0.019 A 
ATOM     25  C   UNL     1       1.465   7.475   2.196  0.00  0.00    +0.006 A 
ATOM     26  C   UNL     1       2.219   7.930   3.262  0.00  0.00    +0.004 A 
ENDBRANCH   1  24
BRANCH  11  27
ATOM     27  C   UNL     1       2.228   4.854  -2.188  0.00  0.00    +0.042 A 
ATOM     28  C   UNL     1       1.793   3.625  -2.648  0.00  0.00    +0.011 A 
ATOM     29  C   UNL     1       1.737   3.372  -4.006  0.00  0.00    +0.004 A 
ATOM     30  C   UNL     1       2.116   4.348  -4.910  0.00  0.00    +0.049 A 
ATOM     31  C   UNL     1       2.553   5.581  -4.455  0.00  0.00    +0.162 A 
ATOM     32  C   UNL     1       2.604   5.838  -3.088  0.00  0.00    +0.168 A 
BRANCH  32  33
ATOM     33  O   UNL     1       3.027   7.049  -2.637  0.00  0.00    -0.491 OA
ATOM     34  C   UNL     1       4.427   7.197  -2.392  0.00  0.00    +0.277 C 
ENDBRANCH  32  33
BRANCH  31  35
ATOM     35  O   UNL     1       2.926   6.541  -5.343  0.00  0.00    -0.491 OA
ATOM     36  C   UNL     1       2.843   6.210  -6.731  0.00  0.00    +0.277 C 
ENDBRANCH  31  35
ENDBRANCH  11  27
TORSDOF 4
