REMARK  Name = ZINC25736504
REMARK  10 active torsions:
REMARK  status: ('A' for Active; 'I' for Inactive)
REMARK    1  A    between atoms: C_1  and  C_2
REMARK    2  A    between atoms: C_5  and  N_9
REMARK    3  A    between atoms: C_7  and  C_8
REMARK    4  A    between atoms: C_10  and  C_30
REMARK    5  A    between atoms: C_13  and  S_14
REMARK    6  A    between atoms: S_14  and  C_15
REMARK    7  A    between atoms: C_15  and  C_17
REMARK    8  A    between atoms: C_15  and  C_18
REMARK    9  A    between atoms: N_20  and  C_21
REMARK   10  A    between atoms: N_20  and  C_22
REMARK                            x       y       z     vdW  Elec       q    Type
REMARK                         _______ _______ _______ _____ _____    ______ ____
ROOT
ATOM      1  N   UNL     1       3.001  -7.976   0.245  0.00  0.00    -0.270 N 
ATOM      2  C   UNL     1       3.007  -8.637   1.455  0.00  0.00    +0.169 A 
ATOM      3  N   UNL     1       3.038  -7.720   2.395  0.00  0.00    -0.128 NA
ATOM      4  N   UNL     1       3.057  -6.549   1.866  0.00  0.00    -0.122 NA
ATOM      5  C   UNL     1       3.039  -6.645   0.554  0.00  0.00    +0.197 A 
ENDROOT
BRANCH   1  10
ATOM      6  C   UNL     1       2.865 -10.296  -4.932  0.00  0.00    +0.044 C 
ATOM      7  C   UNL     1       2.901  -9.680  -3.557  0.00  0.00    -0.047 A 
ATOM      8  C   UNL     1       4.021  -9.835  -2.761  0.00  0.00    +0.005 A 
ATOM      9  C   UNL     1       4.058  -9.271  -1.501  0.00  0.00    +0.026 A 
ATOM     10  C   UNL     1       2.967  -8.549  -1.033  0.00  0.00    +0.051 A 
ATOM     11  C   UNL     1       1.842  -8.401  -1.832  0.00  0.00    +0.030 A 
ATOM     12  C   UNL     1       1.814  -8.962  -3.094  0.00  0.00    -0.046 A 
ATOM     13  C   UNL     1       0.596  -8.795  -3.965  0.00  0.00    +0.044 C 
ENDBRANCH   1  10
BRANCH   2  14
ATOM     14  C   UNL     1       2.978 -10.100   1.657  0.00  0.00    +0.022 A 
ATOM     15  C   UNL     1       2.580 -10.961   0.626  0.00  0.00    +0.031 A 
ATOM     16  C   UNL     1       2.574 -12.320   0.856  0.00  0.00    +0.111 A 
ATOM     17  N   UNL     1       2.925 -12.811   2.030  0.00  0.00    -0.263 NA
ATOM     18  C   UNL     1       3.302 -12.035   3.029  0.00  0.00    +0.111 A 
ATOM     19  C   UNL     1       3.343 -10.665   2.885  0.00  0.00    +0.031 A 
ENDBRANCH   2  14
BRANCH   5  20
ATOM     20  S   UNL     1       3.053  -5.306  -0.592  0.00  0.00    -0.073 S 
BRANCH  20  21
ATOM     21  C   UNL     1       3.096  -3.909   0.557  0.00  0.00    +0.137 C 
ATOM     22  C   UNL     1       4.413  -3.930   1.335  0.00  0.00    +0.029 C 
BRANCH  21  23
ATOM     23  C   UNL     1       2.990  -2.619  -0.216  0.00  0.00    +0.229 C 
ATOM     24  O   UNL     1       3.255  -2.598  -1.399  0.00  0.00    -0.274 OA
ATOM     25  N   UNL     1       2.600  -1.490   0.408  0.00  0.00    -0.299 N 
ATOM     26  C   UNL     1       2.280  -1.516   1.837  0.00  0.00    +0.132 C 
BRANCH  25  27
ATOM     27  C   UNL     1       2.497  -0.236  -0.343  0.00  0.00    +0.098 C 
ATOM     28  C   UNL     1       3.454   0.802   0.265  0.00  0.00    +0.046 C 
ATOM     29  C   UNL     1       3.103   2.194  -0.335  0.00  0.00    +0.168 C 
ATOM     30  S   UNL     1       1.263   2.110  -0.327  0.00  0.00    -0.029 S 
ATOM     31  O   UNL     1       0.772   2.600  -1.567  0.00  0.00    -0.174 OA
ATOM     32  O   UNL     1       0.780   2.668   0.887  0.00  0.00    -0.174 OA
ATOM     33  C   UNL     1       1.041   0.285  -0.276  0.00  0.00    +0.188 C 
ENDBRANCH  25  27
ENDBRANCH  21  23
ENDBRANCH  20  21
ENDBRANCH   5  20
TORSDOF 6
