REMARK  Name = ZINC36660471
REMARK  10 active torsions:
REMARK  status: ('A' for Active; 'I' for Inactive)
REMARK    1  A    between atoms: C_1  and  C_2
REMARK    2  A    between atoms: C_7  and  C_8
REMARK    3  A    between atoms: N_12  and  C_13
REMARK    4  A    between atoms: C_13  and  C_14
REMARK    5  A    between atoms: C_14  and  N_15
REMARK    6  A    between atoms: N_15  and  C_16
REMARK    7  A    between atoms: N_15  and  C_17
REMARK    8  A    between atoms: C_18  and  C_20
REMARK    9  A    between atoms: N_25  and  S_26
REMARK   10  A    between atoms: S_26  and  C_29
REMARK                            x       y       z     vdW  Elec       q    Type
REMARK                         _______ _______ _______ _____ _____    ______ ____
ROOT
ATOM      1  C   UNL     1       0.962   1.735   0.719  0.00  0.00    +0.044 C 
ATOM      2  C   UNL     1       0.985   0.234   0.594  0.00  0.00    -0.045 A 
ATOM      3  C   UNL     1       1.232  -0.340  -0.645  0.00  0.00    +0.005 A 
ATOM      4  C   UNL     1       1.253  -1.718  -0.761  0.00  0.00    +0.017 A 
ATOM      5  C   UNL     1       1.030  -2.495   0.348  0.00  0.00    +0.041 A 
ATOM      6  C   UNL     1       0.776  -1.946   1.625  0.00  0.00    +0.083 A 
ATOM      7  C   UNL     1       0.767  -0.534   1.708  0.00  0.00    -0.021 A 
ATOM      8  C   UNL     1       0.509   0.133   3.034  0.00  0.00    +0.046 C 
ATOM      9  N   UNL     1       0.576  -2.841   2.617  0.00  0.00    -0.224 NA
ATOM     10  C   UNL     1       0.614  -4.137   2.416  0.00  0.00    +0.168 A 
ATOM     11  S   UNL     1       0.964  -4.241   0.667  0.00  0.00    -0.052 S 
ATOM     12  N   UNL     1       0.431  -5.164   3.329  0.00  0.00    -0.251 N 
ATOM     13  C   UNL     1       0.173  -4.879   4.620  0.00  0.00    +0.240 C 
ATOM     14  O   UNL     1       0.068  -5.776   5.430  0.00  0.00    -0.273 OA
ENDROOT
BRANCH  13  15
ATOM     15  C   UNL     1       0.016  -3.446   5.059  0.00  0.00    +0.166 C 
ATOM     16  C   UNL     1      -1.354  -2.904   4.600  0.00  0.00    +0.031 C 
ATOM     17  C   UNL     1      -2.237  -3.076   5.864  0.00  0.00    +0.019 C 
ATOM     18  C   UNL     1      -1.222  -2.780   6.996  0.00  0.00    +0.110 C 
ATOM     19  N   UNL     1       0.051  -3.366   6.527  0.00  0.00    -0.165 NA
BRANCH  19  20
ATOM     20  S   UNL     1       1.306  -3.854   7.491  0.00  0.00    +0.062 S 
ATOM     21  O   UNL     1       0.752  -4.131   8.770  0.00  0.00    -0.153 OA
ATOM     22  O   UNL     1       2.034  -4.824   6.750  0.00  0.00    -0.153 OA
BRANCH  20  23
ATOM     23  C   UNL     1       2.375  -2.469   7.694  0.00  0.00    +0.106 A 
ATOM     24  C   UNL     1       3.408  -2.256   6.800  0.00  0.00    +0.030 A 
ATOM     25  C   UNL     1       4.247  -1.169   6.959  0.00  0.00    +0.022 A 
ATOM     26  C   UNL     1       4.054  -0.295   8.014  0.00  0.00    +0.041 A 
ATOM     27  C   UNL     1       3.021  -0.509   8.909  0.00  0.00    +0.022 A 
ATOM     28  C   UNL     1       2.179  -1.592   8.745  0.00  0.00    +0.030 A 
ATOM     29 CL   UNL     1       5.108   1.070   8.214  0.00  0.00    -0.084 Cl
ENDBRANCH  20  23
ENDBRANCH  19  20
ENDBRANCH  13  15
BRANCH  12  30
ATOM     30  C   UNL     1       0.517  -6.559   2.889  0.00  0.00    +0.097 C 
BRANCH  30  31
ATOM     31  C   UNL     1       1.951  -7.061   3.063  0.00  0.00    -0.060 C 
BRANCH  31  32
ATOM     32  N   UNL     1       2.045  -8.449   2.592  0.00  0.00    +0.377 N 
ATOM     33  C   UNL     1       3.444  -8.892   2.647  0.00  0.00    -0.097 C 
ATOM     34  C   UNL     1       1.223  -9.314   3.449  0.00  0.00    -0.097 C 
ATOM     35  H   UNL     1       1.712  -8.505   1.641  0.00  0.00    -0.083 HD
ENDBRANCH  31  32
ENDBRANCH  30  31
ENDBRANCH  12  30
TORSDOF 6
