REMARK  Name = ZINC14543645
REMARK  8 active torsions:
REMARK  status: ('A' for Active; 'I' for Inactive)
REMARK    1  A    between atoms: C_1  and  C_2
REMARK    2  A    between atoms: C_2  and  O_3
REMARK    3  A    between atoms: O_3  and  C_4
REMARK    4  A    between atoms: C_7  and  C_10
REMARK    5  A    between atoms: C_23  and  O_26
REMARK    6  A    between atoms: O_26  and  C_27
REMARK    7  A    between atoms: C_27  and  C_28
REMARK    8  A    between atoms: C_27  and  C_29
REMARK                            x       y       z     vdW  Elec       q    Type
REMARK                         _______ _______ _______ _____ _____    ______ ____
ROOT
ATOM      1  C   UNL     1      -0.982   2.582   0.302  0.00  0.00    +0.105 C 
ATOM      2  C   UNL     1      -1.373   3.153   1.668  0.00  0.00    +0.029 C 
ATOM      3  C   UNL     1      -1.484   1.966   2.666  0.00  0.00    +0.033 C 
ATOM      4  C   UNL     1      -2.871   1.413   2.406  0.00  0.00    -0.030 C 
ATOM      5  C   UNL     1      -3.626   2.316   1.833  0.00  0.00    -0.023 C 
ATOM      6  C   UNL     1      -2.851   3.595   1.619  0.00  0.00    +0.049 C 
ATOM      7  C   UNL     1      -3.198   4.212   0.296  0.00  0.00    -0.016 A 
ATOM      8  C   UNL     1      -4.450   4.801   0.160  0.00  0.00    +0.006 A 
ATOM      9  C   UNL     1      -4.830   5.382  -1.031  0.00  0.00    +0.004 A 
ATOM     10  C   UNL     1      -3.963   5.384  -2.109  0.00  0.00    +0.047 A 
ATOM     11  C   UNL     1      -2.716   4.802  -1.985  0.00  0.00    +0.142 A 
ATOM     12  C   UNL     1      -2.329   4.213  -0.777  0.00  0.00    +0.074 A 
ATOM     13  N   UNL     1      -1.056   3.640  -0.706  0.00  0.00    -0.334 N 
ATOM     14  H   UNL     1      -0.762   3.300  -1.609  0.00  0.00    +0.147 HD
ENDROOT
BRANCH   1  18
ATOM     15  C   UNL     1       3.009   1.062   0.471  0.00  0.00    +0.121 A 
ATOM     16  C   UNL     1       1.930   0.195   0.569  0.00  0.00    +0.046 A 
ATOM     17  C   UNL     1       0.641   0.689   0.516  0.00  0.00    +0.009 A 
ATOM     18  C   UNL     1       0.426   2.047   0.366  0.00  0.00    -0.027 A 
ATOM     19  C   UNL     1       1.499   2.913   0.269  0.00  0.00    +0.009 A 
ATOM     20  C   UNL     1       2.790   2.424   0.321  0.00  0.00    +0.046 A 
BRANCH  15  21
ATOM     21  O   UNL     1       4.278   0.579   0.523  0.00  0.00    -0.492 OA
BRANCH  21  23
ATOM     22  C   UNL     1       6.684   0.804   0.495  0.00  0.00    +0.048 C 
ATOM     23  C   UNL     1       5.339   1.529   0.417  0.00  0.00    +0.225 C 
ENDBRANCH  21  23
ENDBRANCH  15  21
ENDBRANCH   1  18
BRANCH  11  24
ATOM     24  O   UNL     1      -1.861   4.803  -3.043  0.00  0.00    -0.488 OA
BRANCH  24  25
ATOM     25  C   UNL     1      -2.269   5.525  -4.207  0.00  0.00    +0.167 C 
ATOM     26  C   UNL     1      -1.033   5.947  -5.004  0.00  0.00    +0.051 C 
ATOM     27  C   UNL     1      -3.156   4.632  -5.076  0.00  0.00    +0.051 C 
ENDBRANCH  24  25
ENDBRANCH  11  24
TORSDOF 5
