REMARK  Name = ZINC39770419
REMARK  8 active torsions:
REMARK  status: ('A' for Active; 'I' for Inactive)
REMARK    1  A    between atoms: C_1  and  N_2
REMARK    2  A    between atoms: C_8  and  O_9
REMARK    3  A    between atoms: O_9  and  C_10
REMARK    4  A    between atoms: C_14  and  C_16
REMARK    5  A    between atoms: C_17  and  C_18
REMARK    6  A    between atoms: C_17  and  C_20
REMARK    7  A    between atoms: N_29  and  C_36
REMARK    8  A    between atoms: N_32  and  C_35
REMARK                            x       y       z     vdW  Elec       q    Type
REMARK                         _______ _______ _______ _____ _____    ______ ____
ROOT
ATOM      1  C   UNL     1       3.638  -0.792   0.049  0.00  0.00    +0.132 A 
ATOM      2  C   UNL     1       3.340  -2.005  -0.559  0.00  0.00    +0.046 A 
ATOM      3  C   UNL     1       4.197  -3.082  -0.424  0.00  0.00    +0.004 A 
ATOM      4  C   UNL     1       5.354  -2.960   0.316  0.00  0.00    +0.008 A 
ATOM      5  C   UNL     1       5.664  -1.743   0.932  0.00  0.00    -0.021 A 
ATOM      6  C   UNL     1       4.798  -0.655   0.790  0.00  0.00    +0.054 A 
ENDROOT
BRANCH   5   7
ATOM      7  C   UNL     1       6.898  -1.608   1.723  0.00  0.00    +0.026 C 
ATOM      8  C   UNL     1       6.904  -0.852   2.840  0.00  0.00    +0.072 C 
BRANCH   8   9
ATOM      9  C   UNL     1       8.200  -0.577   3.556  0.00  0.00    +0.216 C 
ATOM     10  N   UNL     1       8.110  -1.026   4.952  0.00  0.00    -0.359 N 
ATOM     11  C   UNL     1       8.287   0.018   5.710  0.00  0.00    +0.060 A 
ATOM     12  C   UNL     1       8.308   0.202   7.167  0.00  0.00    +0.027 A 
ATOM     13  C   UNL     1       8.519   1.430   7.680  0.00  0.00    +0.002 A 
ATOM     14  C   UNL     1       8.724   2.563   6.873  0.00  0.00    +0.002 A 
ATOM     15  C   UNL     1       8.725   2.506   5.526  0.00  0.00    +0.027 A 
ATOM     16  C   UNL     1       8.505   1.217   4.855  0.00  0.00    +0.060 A 
ATOM     17  N   UNL     1       8.454   0.869   3.602  0.00  0.00    -0.359 N 
ATOM     18  H   UNL     1       7.948  -1.933   5.253  0.00  0.00    +0.162 HD
ATOM     19  H   UNL     1       8.563   1.457   2.838  0.00  0.00    +0.162 HD
ENDBRANCH   8   9
BRANCH   8  20
ATOM     20  C   UNL     1       5.678  -0.311   3.345  0.00  0.00    +0.099 C 
ATOM     21  N   UNL     1       4.705   0.118   3.745  0.00  0.00    -0.191 NA
ENDBRANCH   8  20
ENDBRANCH   5   7
BRANCH   1  22
ATOM     22  O   UNL     1       2.790   0.262  -0.087  0.00  0.00    -0.427 OA
BRANCH  22  28
ATOM     23  C   UNL     1       0.477   2.325  -0.360  0.00  0.00    +0.134 C 
ATOM     24  N   UNL     1       0.745   1.321   0.672  0.00  0.00    -0.273 N 
ATOM     25  C   UNL     1       0.124   1.178   1.987  0.00  0.00    +0.206 C 
ATOM     26  C   UNL     1       0.000  -0.379   1.979  0.00  0.00    +0.229 C 
ATOM     27  N   UNL     1       1.273  -0.744   1.404  0.00  0.00    -0.211 NA
ATOM     28  C   UNL     1       1.652   0.260   0.641  0.00  0.00    +0.288 C 
ATOM     29  N   UNL     1      -0.407  -0.770   3.302  0.00  0.00    -0.264 N 
ATOM     30  C   UNL     1      -1.428  -0.041   3.840  0.00  0.00    +0.312 C 
ATOM     31  O   UNL     1      -1.872  -0.355   4.927  0.00  0.00    -0.252 OA
ATOM     32  N   UNL     1      -1.955   1.019   3.195  0.00  0.00    -0.227 N 
ATOM     33  C   UNL     1      -1.259   1.692   2.210  0.00  0.00    +0.247 C 
ATOM     34  O   UNL     1      -1.719   2.620   1.581  0.00  0.00    -0.273 OA
ATOM     35  C   UNL     1      -3.302   1.475   3.549  0.00  0.00    +0.143 C 
ATOM     36  C   UNL     1       0.230  -1.875   4.022  0.00  0.00    +0.136 C 
ENDBRANCH  22  28
ENDBRANCH   1  22
TORSDOF 5
