REMARK  Name = ZINC13644522
REMARK  8 active torsions:
REMARK  status: ('A' for Active; 'I' for Inactive)
REMARK    1  A    between atoms: C_1  and  C_2
REMARK    2  A    between atoms: C_2  and  C_3
REMARK    3  A    between atoms: C_3  and  O_4
REMARK    4  A    between atoms: O_4  and  C_5
REMARK    5  A    between atoms: C_18  and  C_21
REMARK    6  A    between atoms: C_24  and  N_27
REMARK    7  A    between atoms: N_27  and  C_28
REMARK    8  A    between atoms: N_27  and  C_29
REMARK                            x       y       z     vdW  Elec       q    Type
REMARK                         _______ _______ _______ _____ _____    ______ ____
ROOT
ATOM      1  C   UNL     1      -3.598   5.236   1.368  0.00  0.00    +0.121 A 
ATOM      2  C   UNL     1      -2.945   6.386   1.788  0.00  0.00    +0.047 A 
ATOM      3  C   UNL     1      -1.580   6.504   1.628  0.00  0.00    +0.027 A 
ATOM      4  C   UNL     1      -0.848   5.477   1.045  0.00  0.00    +0.032 A 
ATOM      5  C   UNL     1      -1.513   4.325   0.611  0.00  0.00    -0.016 A 
ATOM      6  C   UNL     1      -2.876   4.208   0.780  0.00  0.00    +0.051 A 
ATOM      7  C   UNL     1      -0.711   3.253  -0.008  0.00  0.00    +0.049 C 
ATOM      8  C   UNL     1      -1.110   1.822   0.017  0.00  0.00    -0.023 C 
ATOM      9  C   UNL     1      -0.013   1.076   0.008  0.00  0.00    -0.030 C 
ATOM     10  C   UNL     1       1.228   1.970   0.001  0.00  0.00    +0.033 C 
ATOM     11  C   UNL     1       0.694   3.246   0.665  0.00  0.00    +0.029 C 
ATOM     12  C   UNL     1       1.358   4.556   0.280  0.00  0.00    +0.105 C 
ATOM     13  N   UNL     1       0.541   5.617   0.907  0.00  0.00    -0.336 N 
ATOM     14  H   UNL     1       0.972   6.425   1.228  0.00  0.00    +0.147 HD
ENDROOT
BRANCH  12  15
ATOM     15  C   UNL     1       2.767   4.602   0.813  0.00  0.00    -0.027 A 
ATOM     16  C   UNL     1       2.994   4.932   2.136  0.00  0.00    +0.007 A 
ATOM     17  C   UNL     1       4.284   4.969   2.629  0.00  0.00    +0.023 A 
ATOM     18  C   UNL     1       5.354   4.685   1.791  0.00  0.00    +0.029 A 
ATOM     19  C   UNL     1       5.123   4.359   0.461  0.00  0.00    +0.023 A 
ATOM     20  C   UNL     1       3.831   4.319  -0.024  0.00  0.00    +0.007 A 
BRANCH  18  21
ATOM     21  N   UNL     1       6.660   4.728   2.285  0.00  0.00    -0.336 N 
ATOM     22  C   UNL     1       7.788   4.428   1.399  0.00  0.00    +0.129 C 
ATOM     23  C   UNL     1       6.902   5.071   3.688  0.00  0.00    +0.129 C 
ENDBRANCH  18  21
ENDBRANCH  12  15
BRANCH   1  24
ATOM     24  O   UNL     1      -4.942   5.117   1.531  0.00  0.00    -0.492 OA
BRANCH  24  25
ATOM     25  C   UNL     1      -5.621   6.215   2.145  0.00  0.00    +0.229 C 
BRANCH  25  27
ATOM     26  C   UNL     1      -7.841   7.077   2.899  0.00  0.00    +0.007 C 
ATOM     27  C   UNL     1      -7.115   5.901   2.243  0.00  0.00    +0.038 C 
ENDBRANCH  25  27
ENDBRANCH  24  25
ENDBRANCH   1  24
TORSDOF 5
