REMARK  Name = ZINC38659632
REMARK  16 active torsions:
REMARK  status: ('A' for Active; 'I' for Inactive)
REMARK    1  A    between atoms: C_1  and  C_2
REMARK    2  A    between atoms: C_2  and  C_3
REMARK    3  A    between atoms: C_3  and  C_4
REMARK    4  A    between atoms: C_4  and  O_5
REMARK    5  A    between atoms: O_5  and  C_6
REMARK    6  A    between atoms: C_10  and  C_12
REMARK    7  A    between atoms: C_12  and  O_14
REMARK    8  A    between atoms: O_14  and  C_15
REMARK    9  A    between atoms: C_22  and  N_39
REMARK   10  A    between atoms: C_23  and  C_37
REMARK   11  A    between atoms: C_24  and  C_26
REMARK   12  A    between atoms: C_29  and  O_34
REMARK   13  A    between atoms: C_30  and  O_32
REMARK   14  A    between atoms: O_32  and  C_33
REMARK   15  A    between atoms: O_34  and  C_35
REMARK   16  A    between atoms: C_35  and  C_36
REMARK                            x       y       z     vdW  Elec       q    Type
REMARK                         _______ _______ _______ _____ _____    ______ ____
ROOT
ATOM      1  C   UNL     1       3.634  -8.180  -6.310  0.00  0.00    +0.135 A 
ATOM      2  C   UNL     1       4.225  -7.373  -7.273  0.00  0.00    +0.047 A 
ATOM      3  C   UNL     1       4.823  -7.943  -8.379  0.00  0.00    +0.012 A 
ATOM      4  C   UNL     1       4.835  -9.318  -8.534  0.00  0.00    +0.008 A 
ATOM      5  C   UNL     1       4.247 -10.129  -7.576  0.00  0.00    +0.138 A 
ATOM      6  C   UNL     1       3.651  -9.557  -6.459  0.00  0.00    +0.093 A 
ATOM      7  O   UNL     1       4.249 -11.478  -7.711  0.00  0.00    -0.441 OA
ATOM      8  C   UNL     1       5.127 -12.068  -8.539  0.00  0.00    +0.199 C 
ATOM      9  C   UNL     1       5.752 -11.384  -9.527  0.00  0.00    +0.098 C 
ATOM     10  C   UNL     1       5.491  -9.920  -9.748  0.00  0.00    +0.098 C 
ENDROOT
BRANCH  10  11
ATOM     11  C   UNL     1       4.586  -9.749 -10.941  0.00  0.00    -0.031 A 
ATOM     12  C   UNL     1       3.318 -10.300 -10.929  0.00  0.00    +0.008 A 
ATOM     13  C   UNL     1       2.484 -10.146 -12.021  0.00  0.00    +0.050 A 
ATOM     14  C   UNL     1       2.918  -9.438 -13.130  0.00  0.00    +0.162 A 
ATOM     15  C   UNL     1       4.194  -8.883 -13.142  0.00  0.00    +0.162 A 
ATOM     16  C   UNL     1       5.024  -9.037 -12.042  0.00  0.00    +0.054 A 
BRANCH  15  17
ATOM     17  O   UNL     1       4.625  -8.187 -14.228  0.00  0.00    -0.491 OA
ATOM     18  C   UNL     1       5.946  -7.645 -14.169  0.00  0.00    +0.277 C 
ENDBRANCH  15  17
BRANCH  14  19
ATOM     19  O   UNL     1       2.099  -9.286 -14.205  0.00  0.00    -0.489 OA
BRANCH  19  20
ATOM     20  C   UNL     1       0.803  -9.883 -14.123  0.00  0.00    +0.226 C 
ATOM     21  C   UNL     1       0.032  -9.608 -15.415  0.00  0.00    +0.048 C 
ENDBRANCH  19  20
ENDBRANCH  14  19
ENDBRANCH  10  11
BRANCH   8  22
ATOM     22  N   UNL     1       5.399 -13.404  -8.379  0.00  0.00    -0.328 N 
ATOM     23  H   UNL     1       4.960 -13.907  -7.676  0.00  0.00    +0.145 HD
ATOM     24  H   UNL     1       6.031 -13.844  -8.969  0.00  0.00    +0.145 HD
ENDBRANCH   8  22
BRANCH   9  25
ATOM     25  C   UNL     1       6.678 -12.068 -10.377  0.00  0.00    +0.101 C 
ATOM     26  N   UNL     1       7.413 -12.612 -11.051  0.00  0.00    -0.191 NA
ENDBRANCH   9  25
BRANCH   1  27
ATOM     27  O   UNL     1       3.046  -7.621  -5.221  0.00  0.00    -0.422 OA
BRANCH  27  28
ATOM     28  C   UNL     1       1.828  -7.065  -5.375  0.00  0.00    +0.345 C 
ATOM     29  O   UNL     1       1.328  -6.995  -6.480  0.00  0.00    -0.245 OA
BRANCH  28  34
ATOM     30  C   UNL     1      -0.837  -5.478  -3.252  0.00  0.00    +0.121 A 
ATOM     31  C   UNL     1      -0.260  -5.562  -1.992  0.00  0.00    +0.046 A 
ATOM     32  C   UNL     1       0.990  -6.132  -1.835  0.00  0.00    +0.004 A 
ATOM     33  C   UNL     1       1.672  -6.622  -2.929  0.00  0.00    +0.015 A 
ATOM     34  C   UNL     1       1.100  -6.542  -4.200  0.00  0.00    +0.063 A 
ATOM     35  C   UNL     1      -0.164  -5.971  -4.357  0.00  0.00    +0.060 A 
BRANCH  30  36
ATOM     36  O   UNL     1      -2.066  -4.916  -3.400  0.00  0.00    -0.492 OA
BRANCH  36  37
ATOM     37  C   UNL     1      -2.703  -4.428  -2.218  0.00  0.00    +0.229 C 
BRANCH  37  38
ATOM     38  C   UNL     1      -4.066  -3.836  -2.581  0.00  0.00    +0.041 C 
BRANCH  38  40
ATOM     39  C   UNL     1      -6.111  -2.720  -1.678  0.00  0.00    +0.004 C 
ATOM     40  C   UNL     1      -4.748  -3.313  -1.315  0.00  0.00    -0.000 C 
ENDBRANCH  38  40
ENDBRANCH  37  38
ENDBRANCH  36  37
ENDBRANCH  30  36
ENDBRANCH  28  34
ENDBRANCH  27  28
ENDBRANCH   1  27
TORSDOF 13
