REMARK  Name = ZINC35770827
REMARK  14 active torsions:
REMARK  status: ('A' for Active; 'I' for Inactive)
REMARK    1  A    between atoms: C_1  and  C_2
REMARK    2  A    between atoms: C_2  and  C_3
REMARK    3  A    between atoms: C_3  and  C_4
REMARK    4  A    between atoms: C_4  and  C_5
REMARK    5  A    between atoms: C_8  and  C_11
REMARK    6  A    between atoms: N_13  and  C_14
REMARK    7  A    between atoms: N_13  and  C_17
REMARK    8  A    between atoms: C_14  and  C_15
REMARK    9  A    between atoms: C_17  and  C_18
REMARK   10  A    between atoms: C_28  and  C_30
REMARK   11  A    between atoms: C_33  and  C_36
REMARK   12  A    between atoms: C_36  and  C_37
REMARK   13  A    between atoms: C_36  and  C_38
REMARK   14  A    between atoms: C_36  and  C_39
REMARK                            x       y       z     vdW  Elec       q    Type
REMARK                         _______ _______ _______ _____ _____    ______ ____
ROOT
ATOM      1  C   UNL     1       3.957  -3.660   8.891  0.00  0.00    +0.234 C 
ATOM      2  O   UNL     1       3.712  -2.544   8.485  0.00  0.00    -0.274 OA
ATOM      3  N   UNL     1       4.602  -3.825  10.063  0.00  0.00    -0.289 N 
ATOM      4  C   UNL     1       4.910  -5.173  10.562  0.00  0.00    +0.114 C 
ATOM      5  C   UNL     1       6.437  -5.338  10.596  0.00  0.00    +0.062 C 
ATOM      6  C   UNL     1       7.041  -4.090  11.152  0.00  0.00    -0.003 A 
ATOM      7  C   UNL     1       6.459  -2.868  11.289  0.00  0.00    -0.012 A 
ATOM      8  C   UNL     1       7.248  -1.856  11.833  0.00  0.00    +0.013 A 
ATOM      9  C   UNL     1       8.523  -2.116  12.200  0.00  0.00    +0.046 A 
ATOM     10  S   UNL     1       8.680  -3.847  11.785  0.00  0.00    -0.101 S 
ATOM     11  C   UNL     1       5.013  -2.659  10.857  0.00  0.00    +0.137 C 
ENDROOT
BRANCH  11  12
ATOM     12  C   UNL     1       4.134  -2.536  12.075  0.00  0.00    -0.023 A 
ATOM     13  C   UNL     1       4.148  -3.525  13.041  0.00  0.00    +0.006 A 
ATOM     14  C   UNL     1       3.342  -3.412  14.158  0.00  0.00    +0.004 A 
ATOM     15  C   UNL     1       2.522  -2.310  14.310  0.00  0.00    -0.042 A 
ATOM     16  C   UNL     1       2.508  -1.320  13.345  0.00  0.00    +0.004 A 
ATOM     17  C   UNL     1       3.318  -1.431  12.230  0.00  0.00    +0.006 A 
BRANCH  15  18
ATOM     18  C   UNL     1       1.642  -2.187  15.527  0.00  0.00    -0.013 C 
ATOM     19  C   UNL     1       2.512  -2.177  16.786  0.00  0.00    +0.015 C 
ATOM     20  C   UNL     1       0.843  -0.885  15.450  0.00  0.00    +0.015 C 
ATOM     21  C   UNL     1       0.679  -3.375  15.582  0.00  0.00    +0.015 C 
ENDBRANCH  15  18
ENDBRANCH  11  12
BRANCH   1  22
ATOM     22  C   UNL     1       3.541  -4.864   8.085  0.00  0.00    +0.204 C 
BRANCH  22  25
ATOM     23  C   UNL     1       3.562  -4.276   5.721  0.00  0.00    +0.247 C 
ATOM     24  O   UNL     1       3.012  -3.852   4.723  0.00  0.00    -0.270 OA
ATOM     25  N   UNL     1       2.863  -4.422   6.864  0.00  0.00    -0.285 N 
BRANCH  23  29
ATOM     26  C   UNL     1       7.683  -5.299   5.606  0.00  0.00    -0.047 A 
ATOM     27  C   UNL     1       7.206  -4.473   6.608  0.00  0.00    +0.004 A 
ATOM     28  C   UNL     1       5.868  -4.137   6.651  0.00  0.00    +0.013 A 
ATOM     29  C   UNL     1       4.996  -4.632   5.680  0.00  0.00    +0.037 A 
ATOM     30  C   UNL     1       5.484  -5.465   4.672  0.00  0.00    +0.013 A 
ATOM     31  C   UNL     1       6.824  -5.788   4.637  0.00  0.00    +0.004 A 
BRANCH  26  32
ATOM     32  C   UNL     1       9.145  -5.662   5.565  0.00  0.00    +0.035 C 
BRANCH  32  33
ATOM     33  C   UNL     1       9.904  -4.627   4.732  0.00  0.00    +0.004 C 
BRANCH  33  35
ATOM     34  C   UNL     1      12.148  -3.961   3.857  0.00  0.00    +0.004 C 
ATOM     35  C   UNL     1      11.389  -4.996   4.691  0.00  0.00    -0.003 C 
ENDBRANCH  33  35
ENDBRANCH  32  33
ENDBRANCH  26  32
ENDBRANCH  23  29
BRANCH  25  36
ATOM     36  C   UNL     1       1.425  -4.140   6.885  0.00  0.00    +0.135 C 
BRANCH  36  37
ATOM     37  C   UNL     1       0.659  -5.418   6.661  0.00  0.00    -0.016 C 
ATOM     38  C   UNL     1      -0.251  -5.796   7.525  0.00  0.00    +0.005 C 
ENDBRANCH  36  37
ENDBRANCH  25  36
ENDBRANCH  22  25
ENDBRANCH   1  22
TORSDOF 10
