REMARK  Name = ZINC22572343
REMARK  7 active torsions:
REMARK  status: ('A' for Active; 'I' for Inactive)
REMARK    1  A    between atoms: C_1  and  C_2
REMARK    2  A    between atoms: C_2  and  C_3
REMARK    3  A    between atoms: C_2  and  C_4
REMARK    4  A    between atoms: C_4  and  C_6
REMARK    5  A    between atoms: C_4  and  S_12
REMARK    6  A    between atoms: S_12  and  C_13
REMARK    7  A    between atoms: N_25  and  C_26
REMARK                            x       y       z     vdW  Elec       q    Type
REMARK                         _______ _______ _______ _____ _____    ______ ____
ROOT
ATOM      1  C   UNL     1      -0.759  -2.731   1.682  0.00  0.00    +0.178 A 
ATOM      2  N   UNL     1      -0.467  -1.754   2.517  0.00  0.00    -0.215 NA
ATOM      3  C   UNL     1       0.180  -2.000   3.651  0.00  0.00    +0.117 A 
ATOM      4  C   UNL     1       0.582  -3.294   4.014  0.00  0.00    +0.076 A 
ATOM      5  C   UNL     1       1.290  -3.413   5.299  0.00  0.00    -0.023 A 
ATOM      6  C   UNL     1       1.480  -2.280   5.995  0.00  0.00    -0.004 A 
ATOM      7  S   UNL     1       0.745  -1.001   5.003  0.00  0.00    -0.073 S 
ATOM      8  C   UNL     1       2.208  -2.524   7.290  0.00  0.00    +0.043 C 
ATOM      9  C   UNL     1       2.079  -4.045   7.527  0.00  0.00    +0.010 C 
ATOM     10  C   UNL     1       1.905  -4.572   6.089  0.00  0.00    +0.037 C 
ATOM     11  C   UNL     1       0.253  -4.336   3.092  0.00  0.00    +0.268 A 
ATOM     12  O   UNL     1       0.563  -5.491   3.327  0.00  0.00    -0.267 OA
ATOM     13  N   UNL     1      -0.409  -4.022   1.962  0.00  0.00    -0.255 N 
ENDROOT
BRANCH  13  14
ATOM     14  C   UNL     1      -0.740  -5.037   1.054  0.00  0.00    +0.052 A 
ATOM     15  C   UNL     1      -1.785  -5.906   1.334  0.00  0.00    +0.026 A 
ATOM     16  C   UNL     1      -2.110  -6.905   0.437  0.00  0.00    +0.002 A 
ATOM     17  C   UNL     1      -1.394  -7.040  -0.738  0.00  0.00    +0.000 A 
ATOM     18  C   UNL     1      -0.352  -6.176  -1.019  0.00  0.00    +0.002 A 
ATOM     19  C   UNL     1      -0.027  -5.171  -0.129  0.00  0.00    +0.026 A 
ENDBRANCH  13  14
BRANCH   1  20
ATOM     20  S   UNL     1      -1.619  -2.369   0.188  0.00  0.00    -0.074 S 
BRANCH  20  21
ATOM     21  C   UNL     1      -2.038  -0.610   0.338  0.00  0.00    +0.143 C 
BRANCH  21  22
ATOM     22  C   UNL     1      -3.076  -0.432   1.416  0.00  0.00    +0.234 C 
ATOM     23  O   UNL     1      -3.752  -1.375   1.769  0.00  0.00    -0.274 OA
ATOM     24  N   UNL     1      -3.252   0.776   1.988  0.00  0.00    -0.239 N 
ATOM     25  C   UNL     1      -4.180   0.935   2.953  0.00  0.00    +0.303 C 
ATOM     26  O   UNL     1      -4.858  -0.010   3.307  0.00  0.00    -0.253 OA
ATOM     27  N   UNL     1      -4.357   2.143   3.525  0.00  0.00    -0.313 N 
ATOM     28  H   UNL     1      -2.712   1.530   1.706  0.00  0.00    +0.159 HD
ATOM     29  H   UNL     1      -3.816   2.897   3.243  0.00  0.00    +0.146 HD
ATOM     30  H   UNL     1      -5.025   2.257   4.219  0.00  0.00    +0.146 HD
ENDBRANCH  21  22
BRANCH  21  32
ATOM     31  C   UNL     1      -2.947   1.380  -0.868  0.00  0.00    +0.009 C 
ATOM     32  C   UNL     1      -2.595  -0.103  -0.994  0.00  0.00    +0.005 C 
ATOM     33  C   UNL     1      -1.542  -0.286  -2.089  0.00  0.00    +0.009 C 
ENDBRANCH  21  32
ENDBRANCH  20  21
ENDBRANCH   1  20
TORSDOF 5
