REMARK  Name = ZINC32091585
REMARK  4 active torsions:
REMARK  status: ('A' for Active; 'I' for Inactive)
REMARK    1  A    between atoms: C_1  and  C_2
REMARK    2  A    between atoms: C_8  and  C_12
REMARK    3  A    between atoms: C_12  and  C_14
REMARK    4  A    between atoms: C_12  and  N_17
REMARK                            x       y       z     vdW  Elec       q    Type
REMARK                         _______ _______ _______ _____ _____    ______ ____
ROOT
ATOM      1  N   UNL     1      -3.192   8.000  -0.296  0.00  0.00    +0.394 N 
ATOM      2  C   UNL     1      -2.414   8.374   0.893  0.00  0.00    -0.058 C 
ATOM      3  C   UNL     1      -1.738   7.128   1.469  0.00  0.00    +0.088 C 
ATOM      4  N   UNL     1      -2.762   6.129   1.805  0.00  0.00    -0.318 N 
ATOM      5  C   UNL     1      -3.539   5.755   0.616  0.00  0.00    +0.088 C 
ATOM      6  C   UNL     1      -4.216   7.001   0.040  0.00  0.00    -0.058 C 
ATOM      7  C   UNL     1      -2.188   5.005   2.401  0.00  0.00    +0.138 A 
ATOM      8  C   UNL     1      -2.606   4.589   3.731  0.00  0.00    +0.031 A 
ATOM      9  C   UNL     1      -3.559   5.153   4.607  0.00  0.00    +0.012 A 
ATOM     10  C   UNL     1      -3.796   4.587   5.821  0.00  0.00    +0.001 A 
ATOM     11  C   UNL     1      -3.109   3.455   6.242  0.00  0.00    +0.001 A 
ATOM     12  C   UNL     1      -2.177   2.879   5.420  0.00  0.00    +0.017 A 
ATOM     13  C   UNL     1      -1.926   3.435   4.184  0.00  0.00    +0.041 A 
ATOM     14  S   UNL     1      -0.849   3.054   2.829  0.00  0.00    +0.014 S 
ATOM     15  N   UNL     1      -1.276   4.324   1.768  0.00  0.00    -0.194 NA
ATOM     16  H   UNL     1      -2.502   7.548  -1.025  0.00  0.00    -0.080 HD
ENDROOT
BRANCH   1  17
ATOM     17  C   UNL     1      -3.796   9.184  -0.923  0.00  0.00    +0.080 C 
BRANCH  17  25
ATOM     18  C   UNL     1      -4.772  14.794  -1.538  0.00  0.00    +0.044 C 
ATOM     19  C   UNL     1      -3.649  13.803  -1.706  0.00  0.00    -0.050 A 
ATOM     20  C   UNL     1      -2.404  14.239  -2.138  0.00  0.00    +0.005 A 
ATOM     21  C   UNL     1      -1.365  13.350  -2.297  0.00  0.00    +0.026 A 
ATOM     22  C   UNL     1      -1.562  12.000  -2.023  0.00  0.00    +0.047 A 
ATOM     23  C   UNL     1      -2.827  11.562  -1.592  0.00  0.00    +0.002 A 
ATOM     24  C   UNL     1      -3.865  12.482  -1.431  0.00  0.00    +0.013 A 
ATOM     25  C   UNL     1      -2.708  10.116  -1.389  0.00  0.00    -0.025 A 
ATOM     26  C   UNL     1      -1.447   9.779  -1.701  0.00  0.00    +0.086 A 
ATOM     27  N   UNL     1      -0.747  10.892  -2.083  0.00  0.00    -0.360 N 
ATOM     28  H   UNL     1       0.300  10.995  -2.404  0.00  0.00    +0.165 HD
ENDBRANCH  17  25
BRANCH  17  29
ATOM     29  C   UNL     1      -4.630   8.756  -2.103  0.00  0.00    +0.347 C 
ATOM     30  O   UNL     1      -4.333   7.763  -2.725  0.00  0.00    -0.248 OA
ATOM     31  O   UNL     1      -5.702   9.478  -2.464  0.00  0.00    -0.248 OA
ENDBRANCH  17  29
ENDBRANCH   1  17
TORSDOF 3
