REMARK  Name = ZINC58636481
REMARK  7 active torsions:
REMARK  status: ('A' for Active; 'I' for Inactive)
REMARK    1  A    between atoms: C_1  and  C_2
REMARK    2  A    between atoms: N_4  and  C_5
REMARK    3  A    between atoms: C_5  and  C_7
REMARK    4  A    between atoms: C_5  and  C_18
REMARK    5  A    between atoms: C_7  and  C_8
REMARK    6  A    between atoms: N_20  and  N_21
REMARK    7  A    between atoms: N_21  and  C_22
REMARK                            x       y       z     vdW  Elec       q    Type
REMARK                         _______ _______ _______ _____ _____    ______ ____
ROOT
ATOM      1  C   UNL     1      -1.136  -2.159   0.001  0.00  0.00    +0.165 C 
ENDROOT
BRANCH   1   5
ATOM      2  C   UNL     1      -0.018   1.503   0.010  0.00  0.00    +0.109 C 
ATOM      3  C   UNL     1       0.002  -0.004   0.002  0.00  0.00    +0.211 C 
ATOM      4  O   UNL     1       1.060  -0.596  -0.011  0.00  0.00    -0.276 OA
ATOM      5  N   UNL     1      -1.156  -0.694   0.009  0.00  0.00    -0.304 N 
ATOM      6  H   UNL     1      -2.002  -0.220   0.020  0.00  0.00    +0.149 HD
ENDBRANCH   1   5
BRANCH   1   7
ATOM      7  C   UNL     1      -0.431  -2.645  -1.239  0.00  0.00    +0.250 C 
ATOM      8  O   UNL     1       0.315  -1.903  -1.842  0.00  0.00    -0.272 OA
ATOM      9  N   UNL     1      -0.628  -3.904  -1.677  0.00  0.00    -0.235 N 
ATOM     10  H   UNL     1      -1.225  -4.497  -1.194  0.00  0.00    +0.173 HD
BRANCH   9  11
ATOM     11  N   UNL     1       0.027  -4.356  -2.829  0.00  0.00    -0.264 N 
ATOM     12  H   UNL     1       0.624  -3.762  -3.312  0.00  0.00    +0.170 HD
BRANCH  11  13
ATOM     13  C   UNL     1      -0.178  -5.661  -3.284  0.00  0.00    +0.044 A 
ATOM     14  C   UNL     1      -1.036  -6.510  -2.596  0.00  0.00    +0.025 A 
ATOM     15  C   UNL     1      -1.237  -7.800  -3.048  0.00  0.00    +0.017 A 
ATOM     16  C   UNL     1      -0.584  -8.246  -4.183  0.00  0.00    +0.018 A 
ATOM     17  C   UNL     1       0.272  -7.403  -4.869  0.00  0.00    +0.017 A 
ATOM     18  C   UNL     1       0.472  -6.110  -4.426  0.00  0.00    +0.025 A 
ATOM     19 BR   UNL     1      -0.860 -10.013  -4.797  0.00  0.00    -0.050 Br
ENDBRANCH  11  13
ENDBRANCH   9  11
ENDBRANCH   1   7
BRANCH   1  20
ATOM     20  C   UNL     1      -0.396  -2.665   1.241  0.00  0.00    +0.069 C 
BRANCH  20  21
ATOM     21  C   UNL     1      -1.168  -2.284   2.478  0.00  0.00    -0.020 A 
ATOM     22  C   UNL     1      -0.972  -1.195   3.237  0.00  0.00    +0.087 A 
ATOM     23  N   UNL     1      -1.862  -1.183   4.276  0.00  0.00    -0.360 N 
ATOM     24  H   UNL     1      -1.914  -0.496   4.958  0.00  0.00    +0.165 HD
ATOM     25  C   UNL     1      -2.674  -2.293   4.209  0.00  0.00    +0.047 A 
ATOM     26  C   UNL     1      -2.279  -3.028   3.076  0.00  0.00    +0.003 A 
ATOM     27  C   UNL     1      -2.938  -4.215   2.750  0.00  0.00    +0.010 A 
ATOM     28  C   UNL     1      -3.968  -4.655   3.533  0.00  0.00    +0.001 A 
ATOM     29  C   UNL     1      -4.364  -3.932   4.650  0.00  0.00    +0.002 A 
ATOM     30  C   UNL     1      -3.721  -2.763   4.994  0.00  0.00    +0.026 A 
ENDBRANCH  20  21
ENDBRANCH   1  20
TORSDOF 6
