REMARK  Name = ZINC37273874
REMARK  5 active torsions:
REMARK  status: ('A' for Active; 'I' for Inactive)
REMARK    1  A    between atoms: C_1  and  C_2
REMARK    2  A    between atoms: C_2  and  C_19
REMARK    3  A    between atoms: C_7  and  N_11
REMARK    4  A    between atoms: N_11  and  C_12
REMARK    5  A    between atoms: C_12  and  C_13
REMARK                            x       y       z     vdW  Elec       q    Type
REMARK                         _______ _______ _______ _____ _____    ______ ____
ROOT
ATOM      1  C   UNL     1      -0.019   1.526   0.010  0.00  0.00    +0.104 C 
ATOM      2  C   UNL     1       0.002  -0.004   0.002  0.00  0.00    +0.248 C 
ATOM      3  O   UNL     1       0.771  -0.493  -1.113  0.00  0.00    -0.448 OA
ATOM      4  C   UNL     1       2.045  -0.637  -0.641  0.00  0.00    +0.167 A 
ATOM      5  C   UNL     1       3.257  -0.765  -1.299  0.00  0.00    +0.051 A 
ATOM      6  C   UNL     1       4.428  -0.901  -0.577  0.00  0.00    +0.027 A 
ATOM      7  C   UNL     1       4.392  -0.909   0.811  0.00  0.00    +0.031 A 
ATOM      8  C   UNL     1       3.179  -0.781   1.474  0.00  0.00    +0.072 A 
ATOM      9  C   UNL     1       2.006  -0.646   0.751  0.00  0.00    +0.169 A 
ATOM     10  O   UNL     1       0.708  -0.507   1.152  0.00  0.00    -0.448 OA
ATOM     11  C   UNL     1      -1.423  -0.559  -0.039  0.00  0.00    +0.104 C 
ENDROOT
BRANCH   7  12
ATOM     12  N   UNL     1       5.578  -1.046   1.541  0.00  0.00    -0.337 N 
ATOM     13  H   UNL     1       5.553  -1.052   2.511  0.00  0.00    +0.147 HD
BRANCH  12  14
ATOM     14  C   UNL     1       6.857  -1.182   0.841  0.00  0.00    +0.176 C 
BRANCH  14  15
ATOM     15  C   UNL     1       7.970  -1.314   1.849  0.00  0.00    +0.123 A 
ATOM     16  C   UNL     1       8.434  -2.467   2.361  0.00  0.00    +0.047 A 
ATOM     17  C   UNL     1       9.471  -2.128   3.261  0.00  0.00    +0.056 A 
ATOM     18  C   UNL     1       9.578  -0.786   3.245  0.00  0.00    +0.165 A 
ATOM     19  O   UNL     1       8.670  -0.299   2.383  0.00  0.00    -0.453 OA
ATOM     20  I   UNL     1      10.935   0.349   4.366  0.00  0.00    -0.001 I 
ENDBRANCH  14  15
ENDBRANCH  12  14
ENDBRANCH   7  12
TORSDOF 3
