REMARK  Name = ZINC39677313
REMARK  7 active torsions:
REMARK  status: ('A' for Active; 'I' for Inactive)
REMARK    1  A    between atoms: C_1  and  C_2
REMARK    2  A    between atoms: C_6  and  C_7
REMARK    3  A    between atoms: C_7  and  N_8
REMARK    4  A    between atoms: C_9  and  C_11
REMARK    5  A    between atoms: C_22  and  C_24
REMARK    6  A    between atoms: C_27  and  O_31
REMARK    7  A    between atoms: O_31  and  C_32
REMARK                            x       y       z     vdW  Elec       q    Type
REMARK                         _______ _______ _______ _____ _____    ______ ____
ROOT
ATOM      1  C   UNL     1      -3.691   0.577   4.756  0.00  0.00    +0.100 C 
ATOM      2  C   UNL     1      -4.107  -0.908   4.666  0.00  0.00    +0.121 C 
ATOM      3  N   UNL     1      -3.893  -1.440   6.033  0.00  0.00    -0.296 N 
ATOM      4  C   UNL     1      -4.341  -0.347   6.928  0.00  0.00    +0.115 C 
ATOM      5  C   UNL     1      -3.850   0.943   6.241  0.00  0.00    -0.004 C 
ATOM      6  C   UNL     1      -4.881   2.055   6.404  0.00  0.00    -0.010 C 
ATOM      7  C   UNL     1      -4.979   2.441   7.883  0.00  0.00    -0.082 C 
ATOM      8  N   UNL     1      -3.666   2.891   8.361  0.00  0.00    +0.379 N 
ATOM      9  C   UNL     1      -2.702   1.787   8.287  0.00  0.00    -0.082 C 
ATOM     10  C   UNL     1      -2.508   1.372   6.826  0.00  0.00    -0.010 C 
ATOM     11  C   UNL     1      -3.403  -2.646   6.383  0.00  0.00    +0.247 C 
ATOM     12  O   UNL     1      -2.958  -3.392   5.532  0.00  0.00    -0.270 OA
ATOM     13  H   UNL     1      -3.345   3.656   7.787  0.00  0.00    -0.086 HD
ATOM     14  H   UNL     1      -3.747   3.203   9.317  0.00  0.00    -0.086 HD
ENDROOT
BRANCH  11  15
ATOM     15  C   UNL     1      -3.404  -3.060   7.800  0.00  0.00    +0.040 A 
ATOM     16  C   UNL     1      -4.274  -2.450   8.707  0.00  0.00    +0.036 A 
ATOM     17  C   UNL     1      -4.273  -2.840  10.029  0.00  0.00    +0.085 A 
ATOM     18  C   UNL     1      -3.408  -3.838  10.460  0.00  0.00    +0.157 A 
ATOM     19  C   UNL     1      -2.541  -4.448   9.560  0.00  0.00    +0.085 A 
ATOM     20  C   UNL     1      -2.540  -4.068   8.235  0.00  0.00    +0.036 A 
ATOM     21 CL   UNL     1      -1.462  -5.695  10.105  0.00  0.00    -0.080 Cl
ATOM     22 CL   UNL     1      -5.354  -2.082  11.157  0.00  0.00    -0.080 Cl
BRANCH  18  23
ATOM     23  O   UNL     1      -3.409  -4.219  11.763  0.00  0.00    -0.492 OA
ATOM     24  C   UNL     1      -4.295  -5.279  12.129  0.00  0.00    +0.277 C 
ENDBRANCH  18  23
ENDBRANCH  11  15
BRANCH   1  26
ATOM     25  N   UNL     1      -1.828   1.940   3.867  0.00  0.00    -0.310 N 
ATOM     26  C   UNL     1      -2.257   0.747   4.324  0.00  0.00    +0.218 C 
ATOM     27  O   UNL     1      -1.489  -0.189   4.389  0.00  0.00    -0.275 OA
ATOM     28  H   UNL     1      -2.442   2.689   3.815  0.00  0.00    +0.149 HD
BRANCH  25  29
ATOM     29  C   UNL     1      -0.434   2.105   3.447  0.00  0.00    +0.147 C 
BRANCH  29  35
ATOM     30  C   UNL     1       0.445   4.489   5.175  0.00  0.00    +0.044 C 
ATOM     31  C   UNL     1       0.172   4.606   3.697  0.00  0.00    -0.039 A 
ATOM     32  C   UNL     1       0.316   5.819   3.051  0.00  0.00    +0.011 A 
ATOM     33  C   UNL     1       0.063   5.890   1.721  0.00  0.00    +0.046 A 
ATOM     34  S   UNL     1      -0.397   4.207   1.343  0.00  0.00    -0.100 S 
ATOM     35  C   UNL     1      -0.214   3.522   2.981  0.00  0.00    +0.010 A 
ENDBRANCH  29  35
ENDBRANCH  25  29
ENDBRANCH   1  26
TORSDOF 5
