REMARK  Name = ZINC00847240
REMARK  9 active torsions:
REMARK  status: ('A' for Active; 'I' for Inactive)
REMARK    1  A    between atoms: C_1  and  C_2
REMARK    2  A    between atoms: C_2  and  O_3
REMARK    3  A    between atoms: O_3  and  C_4
REMARK    4  A    between atoms: C_4  and  C_6
REMARK    5  A    between atoms: C_7  and  C_28
REMARK    6  A    between atoms: C_11  and  C_13
REMARK    7  A    between atoms: C_15  and  O_21
REMARK    8  A    between atoms: C_16  and  O_20
REMARK    9  A    between atoms: O_21  and  C_22
REMARK                            x       y       z     vdW  Elec       q    Type
REMARK                         _______ _______ _______ _____ _____    ______ ____
ROOT
ATOM      1  C   UNL     1       3.325   1.504  -1.298  0.00  0.00    +0.065 C 
ATOM      2  C   UNL     1       4.350   2.357  -1.127  0.00  0.00    +0.016 C 
ATOM      3  N   UNL     1       4.654   2.834   0.117  0.00  0.00    -0.321 N 
ATOM      4  C   UNL     1       4.215   2.186   1.240  0.00  0.00    +0.015 C 
ATOM      5  C   UNL     1       3.183   1.318   1.171  0.00  0.00    +0.024 C 
ATOM      6  C   UNL     1       2.483   1.057  -0.139  0.00  0.00    +0.092 C 
ATOM      7  C   UNL     1       2.733   0.633   2.313  0.00  0.00    +0.162 C 
ATOM      8  O   UNL     1       1.798  -0.137   2.217  0.00  0.00    -0.292 OA
ATOM      9  C   UNL     1       3.389   0.835   3.652  0.00  0.00    +0.080 C 
ATOM     10  C   UNL     1       4.857   1.219   3.436  0.00  0.00    +0.014 C 
ATOM     11  C   UNL     1       4.907   2.466   2.551  0.00  0.00    +0.051 C 
ATOM     12  C   UNL     1       5.170   2.789  -2.315  0.00  0.00    +0.061 C 
ATOM     13  H   UNL     1       5.256   3.748   0.224  0.00  0.00    +0.152 HD
ENDROOT
BRANCH   6  14
ATOM     14  C   UNL     1       1.176   1.806  -0.159  0.00  0.00    -0.030 A 
ATOM     15  C   UNL     1      -0.015   1.112  -0.266  0.00  0.00    +0.054 A 
ATOM     16  C   UNL     1      -1.218   1.799  -0.290  0.00  0.00    +0.163 A 
ATOM     17  C   UNL     1      -1.225   3.187  -0.196  0.00  0.00    +0.177 A 
ATOM     18  C   UNL     1      -0.028   3.877  -0.089  0.00  0.00    +0.086 A 
ATOM     19  C   UNL     1       1.170   3.185  -0.071  0.00  0.00    +0.028 A 
ATOM     20 CL   UNL     1      -0.031   5.610   0.020  0.00  0.00    -0.080 Cl
BRANCH  17  21
ATOM     21  O   UNL     1      -2.404   3.866  -0.215  0.00  0.00    -0.502 OA
ATOM     22  H   UNL     1      -2.408   4.963  -0.141  0.00  0.00    +0.292 HD
ENDBRANCH  17  21
BRANCH  16  23
ATOM     23  O   UNL     1      -2.390   1.117  -0.401  0.00  0.00    -0.491 OA
ATOM     24  C   UNL     1      -2.307  -0.306  -0.489  0.00  0.00    +0.277 C 
ENDBRANCH  16  23
ENDBRANCH   6  14
BRANCH   1  25
ATOM     25  C   UNL     1       3.036   1.018  -2.594  0.00  0.00    +0.338 C 
ATOM     26  O   UNL     1       3.641   1.453  -3.556  0.00  0.00    -0.245 OA
BRANCH  25  27
ATOM     27  O   UNL     1       2.088   0.073  -2.764  0.00  0.00    -0.462 OA
BRANCH  27  29
ATOM     28  C   UNL     1       0.748  -1.435  -4.095  0.00  0.00    +0.048 C 
ATOM     29  C   UNL     1       1.847  -0.371  -4.101  0.00  0.00    +0.229 C 
ENDBRANCH  27  29
ENDBRANCH  25  27
ENDBRANCH   1  25
TORSDOF 6
