REMARK  Name = ZINC02289335
REMARK  6 active torsions:
REMARK  status: ('A' for Active; 'I' for Inactive)
REMARK    1  A    between atoms: C_1  and  C_2
REMARK    2  A    between atoms: C_2  and  C_3
REMARK    3  A    between atoms: C_2  and  S_4
REMARK    4  A    between atoms: S_4  and  C_5
REMARK    5  A    between atoms: N_14  and  C_15
REMARK    6  A    between atoms: C_15  and  C_16
REMARK                            x       y       z     vdW  Elec       q    Type
REMARK                         _______ _______ _______ _____ _____    ______ ____
ROOT
ATOM      1  C   UNL     1       3.358  -0.762   0.724  0.00  0.00    +0.198 A 
ATOM      2  N   UNL     1       2.882  -1.984   0.598  0.00  0.00    -0.120 NA
ATOM      3  N   UNL     1       1.531  -1.889   0.235  0.00  0.00    -0.109 NA
ATOM      4  C   UNL     1       1.222  -0.629   0.196  0.00  0.00    +0.240 A 
ATOM      5  N   UNL     1       2.387   0.107   0.351  0.00  0.00    -0.255 N 
ATOM      6  C   UNL     1       2.387   1.467   0.128  0.00  0.00    +0.068 A 
ATOM      7  C   UNL     1       1.174   2.103   0.002  0.00  0.00    +0.048 A 
ATOM      8  C   UNL     1      -0.016   1.352   0.009  0.00  0.00    +0.260 A 
ATOM      9  O   UNL     1      -1.106   1.893   0.034  0.00  0.00    -0.267 OA
ATOM     10  N   UNL     1       0.002  -0.004   0.002  0.00  0.00    -0.273 N 
ATOM     11  C   UNL     1       1.152   3.603  -0.159  0.00  0.00    +0.007 C 
ATOM     12  C   UNL     1       1.383   3.937  -1.637  0.00  0.00    +0.012 C 
ATOM     13  C   UNL     1       1.377   5.450  -1.844  0.00  0.00    +0.001 C 
ATOM     14  C   UNL     1       0.047   6.038  -1.372  0.00  0.00    +0.000 C 
ATOM     15  C   UNL     1      -0.165   5.709   0.107  0.00  0.00    +0.001 C 
ATOM     16  C   UNL     1      -0.190   4.186   0.279  0.00  0.00    +0.012 C 
ATOM     17  C   UNL     1       2.270   4.234   0.677  0.00  0.00    +0.047 C 
ATOM     18  C   UNL     1       3.587   3.623   0.272  0.00  0.00    -0.037 A 
ATOM     19  C   UNL     1       3.618   2.256  -0.024  0.00  0.00    +0.003 A 
ATOM     20  C   UNL     1       4.793   1.696  -0.521  0.00  0.00    +0.010 A 
ATOM     21  C   UNL     1       5.938   2.463  -0.608  0.00  0.00    +0.001 A 
ATOM     22  C   UNL     1       5.915   3.795  -0.232  0.00  0.00    +0.000 A 
ATOM     23  C   UNL     1       4.732   4.378   0.192  0.00  0.00    +0.004 A 
ENDROOT
BRANCH   1  24
ATOM     24  S   UNL     1       4.964  -0.368   1.334  0.00  0.00    -0.083 S 
BRANCH  24  26
ATOM     25  C   UNL     1       7.159  -1.793   2.129  0.00  0.00    +0.019 C 
ATOM     26  C   UNL     1       5.702  -1.983   1.702  0.00  0.00    +0.048 C 
ATOM     27  C   UNL     1       4.923  -2.654   2.835  0.00  0.00    +0.019 C 
ENDBRANCH  24  26
ENDBRANCH   1  24
BRANCH  10  28
ATOM     28  C   UNL     1      -1.226  -0.775  -0.204  0.00  0.00    +0.163 C 
BRANCH  28  29
ATOM     29  C   UNL     1      -1.420  -1.028  -1.677  0.00  0.00    -0.028 A 
ATOM     30  C   UNL     1      -2.136  -0.129  -2.445  0.00  0.00    +0.005 A 
ATOM     31  C   UNL     1      -2.309  -0.359  -3.797  0.00  0.00    +0.000 A 
ATOM     32  C   UNL     1      -1.775  -1.494  -4.379  0.00  0.00    +0.000 A 
ATOM     33  C   UNL     1      -1.063  -2.395  -3.610  0.00  0.00    +0.000 A 
ATOM     34  C   UNL     1      -0.885  -2.162  -2.259  0.00  0.00    +0.005 A 
ENDBRANCH  28  29
ENDBRANCH  10  28
TORSDOF 4
