REMARK  Name = ZINC40814614
REMARK  7 active torsions:
REMARK  status: ('A' for Active; 'I' for Inactive)
REMARK    1  A    between atoms: C_1  and  C_2
REMARK    2  A    between atoms: C_6  and  C_7
REMARK    3  A    between atoms: N_9  and  C_10
REMARK    4  A    between atoms: N_21  and  N_22
REMARK    5  A    between atoms: C_23  and  C_25
REMARK    6  A    between atoms: C_25  and  C_26
REMARK    7  A    between atoms: C_29  and  N_32
REMARK                            x       y       z     vdW  Elec       q    Type
REMARK                         _______ _______ _______ _____ _____    ______ ____
ROOT
ATOM      1  C   UNL     1      -0.014   1.502   0.010  0.00  0.00    +0.048 C 
ATOM      2  C   UNL     1      -0.003  -0.005   0.002  0.00  0.00    +0.009 A 
ATOM      3  C   UNL     1      -0.007  -0.839  -1.122  0.00  0.00    +0.042 A 
ATOM      4  C   UNL     1       0.005  -2.138  -0.672  0.00  0.00    +0.115 A 
ATOM      5  O   UNL     1       0.019  -2.112   0.658  0.00  0.00    -0.454 OA
ATOM      6  C   UNL     1       0.018  -0.831   1.091  0.00  0.00    +0.193 A 
ATOM      7  C   UNL     1      -0.000  -3.328  -1.599  0.00  0.00    +0.075 C 
ATOM      8  C   UNL     1      -0.528  -2.901  -2.971  0.00  0.00    +0.014 C 
ATOM      9  C   UNL     1       0.248  -1.688  -3.495  0.00  0.00    +0.058 C 
ATOM     10  C   UNL     1      -0.019  -0.513  -2.566  0.00  0.00    +0.070 C 
ATOM     11  N   UNL     1      -0.241   0.686  -3.007  0.00  0.00    -0.184 NA
ENDROOT
BRANCH   6  12
ATOM     12  C   UNL     1       0.033  -0.400   2.493  0.00  0.00    +0.284 C 
ATOM     13  O   UNL     1       0.027   0.786   2.765  0.00  0.00    -0.266 OA
ATOM     14  N   UNL     1       0.053  -1.318   3.480  0.00  0.00    -0.279 N 
ATOM     15  H   UNL     1      -0.010  -2.262   3.266  0.00  0.00    +0.155 HD
BRANCH  14  16
ATOM     16  C   UNL     1       0.165  -0.909   4.812  0.00  0.00    +0.035 A 
ATOM     17  C   UNL     1       0.886  -1.677   5.718  0.00  0.00    +0.023 A 
ATOM     18  C   UNL     1       0.996  -1.271   7.033  0.00  0.00    +0.003 A 
ATOM     19  C   UNL     1       0.388  -0.101   7.450  0.00  0.00    +0.020 A 
ATOM     20  C   UNL     1      -0.331   0.667   6.552  0.00  0.00    +0.043 A 
ATOM     21  C   UNL     1      -0.439   0.269   5.232  0.00  0.00    +0.043 A 
ATOM     22 CL   UNL     1      -1.093   2.135   7.080  0.00  0.00    -0.083 Cl
ENDBRANCH  14  16
ENDBRANCH   6  12
BRANCH  11  23
ATOM     23  N   UNL     1      -0.240   0.938  -4.385  0.00  0.00    -0.206 N 
ATOM     24  C   UNL     1      -0.471   2.184  -4.843  0.00  0.00    +0.237 C 
ATOM     25  O   UNL     1      -0.679   3.089  -4.062  0.00  0.00    -0.274 OA
ATOM     26  H   UNL     1      -0.074   0.214  -5.010  0.00  0.00    +0.177 HD
BRANCH  24  27
ATOM     27  C   UNL     1      -0.470   2.454  -6.326  0.00  0.00    +0.132 C 
BRANCH  27  28
ATOM     28  C   UNL     1      -0.751   3.914  -6.570  0.00  0.00    -0.038 A 
ATOM     29  C   UNL     1      -2.054   4.352  -6.720  0.00  0.00    +0.006 A 
ATOM     30  C   UNL     1      -2.311   5.692  -6.944  0.00  0.00    +0.033 A 
ATOM     31  C   UNL     1      -1.266   6.593  -7.019  0.00  0.00    +0.126 A 
ATOM     32  C   UNL     1       0.036   6.156  -6.869  0.00  0.00    +0.033 A 
ATOM     33  C   UNL     1       0.294   4.817  -6.640  0.00  0.00    +0.006 A 
BRANCH  31  34
ATOM     34  N   UNL     1      -1.542   8.027  -7.260  0.00  0.00    +0.056 N 
ATOM     35  O   UNL     1      -2.681   8.410  -7.392  0.00  0.00    -0.126 OA
ATOM     36  O   UNL     1      -0.627   8.816  -7.325  0.00  0.00    -0.126 OA
ENDBRANCH  31  34
ENDBRANCH  27  28
ENDBRANCH  24  27
ENDBRANCH  11  23
TORSDOF 6
