REMARK  Name = ZINC20534237
REMARK  6 active torsions:
REMARK  status: ('A' for Active; 'I' for Inactive)
REMARK    1  A    between atoms: C_6  and  S_11
REMARK    2  A    between atoms: S_11  and  N_14
REMARK    3  A    between atoms: C_18  and  C_20
REMARK    4  A    between atoms: C_20  and  O_22
REMARK    5  A    between atoms: O_22  and  N_23
REMARK    6  A    between atoms: C_24  and  C_25
REMARK                            x       y       z     vdW  Elec       q    Type
REMARK                         _______ _______ _______ _____ _____    ______ ____
ROOT
ATOM      1  N   UNL     1       0.621   7.150  -0.072  0.00  0.00    -0.163 NA
ATOM      2  C   UNL     1       1.310   7.846   1.030  0.00  0.00    +0.110 C 
ATOM      3  C   UNL     1       2.372   6.837   1.534  0.00  0.00    +0.019 C 
ATOM      4  C   UNL     1       1.612   5.491   1.396  0.00  0.00    +0.033 C 
ATOM      5  C   UNL     1       0.767   5.700   0.121  0.00  0.00    +0.191 C 
ENDROOT
BRANCH   1   6
ATOM      6  S   UNL     1      -0.183   7.881  -1.322  0.00  0.00    +0.062 S 
ATOM      7  O   UNL     1      -1.030   6.893  -1.893  0.00  0.00    -0.153 OA
ATOM      8  O   UNL     1      -0.683   9.113  -0.819  0.00  0.00    -0.153 OA
BRANCH   6  14
ATOM      9  C   UNL     1       4.536  10.386  -5.380  0.00  0.00    +0.001 A 
ATOM     10  C   UNL     1       4.303  11.270  -4.327  0.00  0.00    +0.001 A 
ATOM     11  C   UNL     1       3.385  10.987  -3.364  0.00  0.00    +0.008 A 
ATOM     12  C   UNL     1       2.658   9.786  -3.428  0.00  0.00    -0.016 A 
ATOM     13  C   UNL     1       1.697   9.461  -2.455  0.00  0.00    +0.037 A 
ATOM     14  C   UNL     1       1.016   8.287  -2.547  0.00  0.00    +0.106 A 
ATOM     15  C   UNL     1       1.248   7.403  -3.599  0.00  0.00    +0.029 A 
ATOM     16  C   UNL     1       2.167   7.686  -4.563  0.00  0.00    +0.010 A 
ATOM     17  C   UNL     1       2.894   8.887  -4.498  0.00  0.00    -0.018 A 
ATOM     18  C   UNL     1       3.851   9.214  -5.475  0.00  0.00    +0.008 A 
ENDBRANCH   6  14
ENDBRANCH   1   6
BRANCH   5  19
ATOM     19  C   UNL     1      -0.589   5.067   0.296  0.00  0.00    +0.354 C 
ATOM     20  O   UNL     1      -1.519   5.730   0.703  0.00  0.00    -0.247 OA
BRANCH  19  21
ATOM     21  O   UNL     1      -0.767   3.771   0.002  0.00  0.00    -0.314 OA
BRANCH  21  22
ATOM     22  N   UNL     1      -1.886   3.316   0.164  0.00  0.00    -0.059 NA
ATOM     23  C   UNL     1      -2.124   2.065  -0.104  0.00  0.00    +0.163 C 
ATOM     24  N   UNL     1      -1.107   1.252  -0.571  0.00  0.00    -0.340 N 
ATOM     25  H   UNL     1      -1.309   0.194  -0.797  0.00  0.00    +0.144 HD
ATOM     26  H   UNL     1      -0.098   1.663  -0.718  0.00  0.00    +0.144 HD
BRANCH  23  27
ATOM     27  C   UNL     1      -3.483   1.512   0.093  0.00  0.00    +0.019 A 
ATOM     28  C   UNL     1      -3.741   0.171  -0.193  0.00  0.00    +0.011 A 
ATOM     29  C   UNL     1      -5.010  -0.339  -0.008  0.00  0.00    +0.002 A 
ATOM     30  C   UNL     1      -6.025   0.476   0.460  0.00  0.00    +0.015 A 
ATOM     31  C   UNL     1      -5.775   1.807   0.746  0.00  0.00    +0.019 A 
ATOM     32  C   UNL     1      -4.508   2.327   0.570  0.00  0.00    +0.026 A 
ATOM     33 BR   UNL     1      -7.170   2.912   1.386  0.00  0.00    -0.050 Br
ENDBRANCH  23  27
ENDBRANCH  21  22
ENDBRANCH  19  21
ENDBRANCH   5  19
TORSDOF 6
