REMARK  Name = ZINC31934804
REMARK  6 active torsions:
REMARK  status: ('A' for Active; 'I' for Inactive)
REMARK    1  A    between atoms: C_1  and  C_2
REMARK    2  A    between atoms: C_3  and  C_24
REMARK    3  A    between atoms: C_11  and  C_13
REMARK    4  A    between atoms: C_13  and  N_14
REMARK    5  A    between atoms: N_14  and  C_15
REMARK    6  A    between atoms: C_21  and  C_23
REMARK                            x       y       z     vdW  Elec       q    Type
REMARK                         _______ _______ _______ _____ _____    ______ ____
ROOT
ATOM      1  C   UNL     1      -7.493   2.125  -5.965  0.00  0.00    +0.045 C 
ATOM      2  C   UNL     1      -6.021   1.913  -5.724  0.00  0.00    -0.026 A 
ATOM      3  C   UNL     1      -5.129   2.181  -6.692  0.00  0.00    -0.008 A 
ATOM      4  S   UNL     1      -3.566   1.776  -5.936  0.00  0.00    -0.073 S 
ATOM      5  C   UNL     1      -4.156   1.258  -4.345  0.00  0.00    +0.116 A 
ATOM      6  C   UNL     1      -5.550   1.415  -4.446  0.00  0.00    +0.075 A 
ATOM      7  C   UNL     1      -6.299   1.062  -3.276  0.00  0.00    +0.260 A 
ATOM      8  O   UNL     1      -7.514   1.163  -3.265  0.00  0.00    -0.267 OA
ATOM      9  N   UNL     1      -5.640   0.611  -2.192  0.00  0.00    -0.312 N 
ATOM     10  H   UNL     1      -6.199   0.326  -1.288  0.00  0.00    +0.170 HD
ATOM     11  C   UNL     1      -4.287   0.498  -2.184  0.00  0.00    +0.094 A 
ATOM     12  N   UNL     1      -3.577   0.812  -3.234  0.00  0.00    -0.229 NA
ATOM     13  C   UNL     1      -5.387   2.700  -8.083  0.00  0.00    +0.052 C 
ENDROOT
BRANCH  11  14
ATOM     14  C   UNL     1      -3.594  -0.005  -0.944  0.00  0.00    -0.007 C 
BRANCH  14  15
ATOM     15  N   UNL     1      -2.144  -0.047  -1.177  0.00  0.00    +0.386 N 
ATOM     16  H   UNL     1      -1.927  -0.722  -2.018  0.00  0.00    -0.085 HD
ATOM     17  H   UNL     1      -1.781   0.964  -1.416  0.00  0.00    -0.085 HD
BRANCH  15  18
ATOM     18  C   UNL     1      -1.433  -0.534   0.013  0.00  0.00    -0.068 C 
ATOM     19  C   UNL     1      -1.413  -2.063   0.004  0.00  0.00    -0.015 C 
ATOM     20  C   UNL     1      -0.673  -2.570   1.244  0.00  0.00    -0.002 C 
ATOM     21  C   UNL     1       0.763  -2.041   1.233  0.00  0.00    +0.000 C 
ATOM     22  C   UNL     1       0.742  -0.511   1.242  0.00  0.00    +0.002 C 
ATOM     23  C   UNL     1       0.002  -0.004   0.002  0.00  0.00    -0.028 C 
ATOM     24  C   UNL     1      -0.019   1.526   0.010  0.00  0.00    +0.006 C 
ENDBRANCH  15  18
ENDBRANCH  14  15
ENDBRANCH  11  14
TORSDOF 3
