REMARK  Name = ZINC25212478
REMARK  6 active torsions:
REMARK  status: ('A' for Active; 'I' for Inactive)
REMARK    1  A    between atoms: C_1  and  C_2
REMARK    2  A    between atoms: C_2  and  C_4
REMARK    3  A    between atoms: C_2  and  N_15
REMARK    4  A    between atoms: N_6  and  C_7
REMARK    5  A    between atoms: N_15  and  C_16
REMARK    6  A    between atoms: C_19  and  N_23
REMARK                            x       y       z     vdW  Elec       q    Type
REMARK                         _______ _______ _______ _____ _____    ______ ____
ROOT
ATOM      1  N   UNL     1      -2.516   0.886   0.332  0.00  0.00    -0.333 N 
ATOM      2  H   UNL     1      -2.579  -0.208   0.437  0.00  0.00    +0.147 HD
ENDROOT
BRANCH   1   3
ATOM      3  C   UNL     1      -1.270   1.520   0.355  0.00  0.00    +0.029 A 
ATOM      4  C   UNL     1      -1.191   2.901   0.227  0.00  0.00    +0.025 A 
ATOM      5  C   UNL     1       0.040   3.527   0.243  0.00  0.00    +0.027 A 
ATOM      6  C   UNL     1       1.199   2.777   0.393  0.00  0.00    +0.055 A 
ATOM      7  C   UNL     1       1.120   1.396   0.527  0.00  0.00    +0.064 A 
ATOM      8  C   UNL     1      -0.111   0.770   0.510  0.00  0.00    +0.044 A 
ATOM      9 CL   UNL     1       2.569   0.458   0.714  0.00  0.00    -0.082 Cl
BRANCH   6  10
ATOM     10  N   UNL     1       2.448   3.413   0.411  0.00  0.00    -0.270 N 
ATOM     11  C   UNL     1       3.266   3.663  -0.782  0.00  0.00    +0.114 C 
ATOM     12  C   UNL     1       4.293   4.739  -0.357  0.00  0.00    +0.029 C 
ATOM     13  C   UNL     1       4.378   4.505   1.169  0.00  0.00    +0.098 C 
ATOM     14  C   UNL     1       3.053   3.867   1.522  0.00  0.00    +0.220 C 
ATOM     15  O   UNL     1       2.601   3.780   2.644  0.00  0.00    -0.275 OA
ENDBRANCH   6  10
ENDBRANCH   1   3
BRANCH   1  17
ATOM     16  C   UNL     1      -4.194   2.201   1.531  0.00  0.00    +0.038 C 
ATOM     17  C   UNL     1      -3.738   1.677   0.167  0.00  0.00    +0.154 C 
BRANCH  17  18
ATOM     18  C   UNL     1      -4.820   0.813  -0.426  0.00  0.00    +0.237 C 
ATOM     19  O   UNL     1      -4.593  -0.350  -0.686  0.00  0.00    -0.273 OA
ATOM     20  N   UNL     1      -6.040   1.331  -0.668  0.00  0.00    -0.284 N 
ATOM     21  H   UNL     1      -6.273   2.360  -0.353  0.00  0.00    +0.155 HD
BRANCH  20  22
ATOM     22  C   UNL     1      -7.012   0.562  -1.320  0.00  0.00    +0.036 A 
ATOM     23  C   UNL     1      -6.635  -0.357  -2.290  0.00  0.00    +0.026 A 
ATOM     24  C   UNL     1      -7.593  -1.119  -2.929  0.00  0.00    +0.043 A 
ATOM     25  C   UNL     1      -8.931  -0.961  -2.610  0.00  0.00    +0.159 A 
ATOM     26  C   UNL     1      -9.311  -0.040  -1.646  0.00  0.00    +0.160 A 
ATOM     27  C   UNL     1      -8.353   0.721  -1.000  0.00  0.00    +0.064 A 
ATOM     28  F   UNL     1     -10.617   0.113  -1.336  0.00  0.00    -0.202 F 
ATOM     29  F   UNL     1      -9.867  -1.704  -3.240  0.00  0.00    -0.202 F 
ENDBRANCH  20  22
ENDBRANCH  17  18
ENDBRANCH   1  17
TORSDOF 5
