REMARK  Name = ZINC20363160
REMARK  8 active torsions:
REMARK  status: ('A' for Active; 'I' for Inactive)
REMARK    1  A    between atoms: C_1  and  C_2
REMARK    2  A    between atoms: C_2  and  N_3
REMARK    3  A    between atoms: C_6  and  C_8
REMARK    4  A    between atoms: N_14  and  C_17
REMARK    5  A    between atoms: C_19  and  N_23
REMARK    6  A    between atoms: N_23  and  C_24
REMARK    7  A    between atoms: C_24  and  C_25
REMARK    8  A    between atoms: C_25  and  C_26
REMARK                            x       y       z     vdW  Elec       q    Type
REMARK                         _______ _______ _______ _____ _____    ______ ____
ROOT
ATOM      1  N   UNL     1      -0.797   5.123  -2.720  0.00  0.00    -0.268 N 
ATOM      2  C   UNL     1      -1.955   5.788  -2.861  0.00  0.00    +0.043 A 
ATOM      3  C   UNL     1      -2.946   4.961  -2.445  0.00  0.00    +0.004 A 
ATOM      4  C   UNL     1      -2.314   3.774  -2.040  0.00  0.00    +0.151 A 
ATOM      5  N   UNL     1      -1.018   3.948  -2.240  0.00  0.00    -0.166 NA
ATOM      6  C   UNL     1      -4.407   5.317  -2.434  0.00  0.00    +0.023 C 
ATOM      7  C   UNL     1      -4.609   6.544  -3.334  0.00  0.00    -0.067 C 
ATOM      8  C   UNL     1      -3.595   7.627  -2.957  0.00  0.00    -0.009 C 
ATOM      9  C   UNL     1      -2.188   7.185  -3.378  0.00  0.00    +0.054 C 
ENDROOT
BRANCH   4  10
ATOM     10  C   UNL     1      -2.969   2.564  -1.502  0.00  0.00    +0.267 C 
ATOM     11  O   UNL     1      -4.182   2.491  -1.475  0.00  0.00    -0.268 OA
ATOM     12  N   UNL     1      -2.222   1.542  -1.040  0.00  0.00    -0.298 N 
ATOM     13  C   UNL     1      -0.782   1.634  -1.148  0.00  0.00    +0.106 C 
ATOM     14  C   UNL     1      -0.322   1.010  -2.489  0.00  0.00    +0.000 C 
ATOM     15  C   UNL     1      -0.520  -0.452  -2.452  0.00  0.00    -0.078 C 
ATOM     16  N   UNL     1      -1.913  -0.868  -2.296  0.00  0.00    +0.379 N 
ATOM     17  C   UNL     1      -2.267  -0.949  -0.894  0.00  0.00    -0.060 C 
ATOM     18  C   UNL     1      -2.909   0.377  -0.445  0.00  0.00    +0.089 C 
ATOM     19  C   UNL     1      -2.158  -2.146  -2.976  0.00  0.00    -0.096 C 
ATOM     20  H   UNL     1      -2.556  -0.102  -2.754  0.00  0.00    -0.082 HD
ENDBRANCH   4  10
BRANCH   7  21
ATOM     21  N   UNL     1      -5.971   7.064  -3.153  0.00  0.00    +0.381 N 
ATOM     22  H   UNL     1      -6.664   6.227  -2.981  0.00  0.00    -0.086 HD
ATOM     23  H   UNL     1      -5.993   7.742  -2.287  0.00  0.00    -0.086 HD
BRANCH  21  24
ATOM     24  C   UNL     1      -6.414   7.805  -4.342  0.00  0.00    -0.078 C 
BRANCH  24  25
ATOM     25  C   UNL     1      -7.833   8.330  -4.116  0.00  0.00    +0.011 C 
BRANCH  25  26
ATOM     26  C   UNL     1      -8.287   9.089  -5.336  0.00  0.00    -0.075 C 
ATOM     27  C   UNL     1      -8.983   8.453  -6.223  0.00  0.00    -0.028 C 
ATOM     28  C   UNL     1      -9.497   9.071  -7.491  0.00  0.00    +0.027 C 
ATOM     29  C   UNL     1      -9.460  10.597  -7.386  0.00  0.00    +0.004 C 
ATOM     30  C   UNL     1      -8.070  11.016  -6.891  0.00  0.00    +0.005 C 
ATOM     31  C   UNL     1      -7.910  10.538  -5.444  0.00  0.00    +0.030 C 
ENDBRANCH  25  26
ENDBRANCH  24  25
ENDBRANCH  21  24
ENDBRANCH   7  21
BRANCH   1  33
ATOM     32  C   UNL     1       0.846   5.317  -4.522  0.00  0.00    +0.029 C 
ATOM     33  C   UNL     1       0.524   5.654  -3.064  0.00  0.00    +0.140 C 
ENDBRANCH   1  33
TORSDOF 6
