REMARK  Name = ZINC16853660
REMARK  7 active torsions:
REMARK  status: ('A' for Active; 'I' for Inactive)
REMARK    1  A    between atoms: C_1  and  C_2
REMARK    2  A    between atoms: C_13  and  C_17
REMARK    3  A    between atoms: C_14  and  O_16
REMARK    4  A    between atoms: C_17  and  C_18
REMARK    5  A    between atoms: C_18  and  C_19
REMARK    6  A    between atoms: C_19  and  O_21
REMARK    7  A    between atoms: O_21  and  C_22
REMARK                            x       y       z     vdW  Elec       q    Type
REMARK                         _______ _______ _______ _____ _____    ______ ____
ROOT
ATOM      1  C   UNL     1       4.892  -2.325  -0.059  0.00  0.00    +0.044 C 
ATOM      2  C   UNL     1       3.965  -1.137  -0.043  0.00  0.00    -0.049 A 
ATOM      3  C   UNL     1       4.475   0.151  -0.040  0.00  0.00    +0.005 A 
ATOM      4  C   UNL     1       3.646   1.247  -0.026  0.00  0.00    +0.028 A 
ATOM      5  C   UNL     1       2.249   1.091  -0.014  0.00  0.00    +0.066 A 
ATOM      6  C   UNL     1       1.765  -0.220  -0.016  0.00  0.00    +0.040 A 
ATOM      7  C   UNL     1       2.593  -1.318  -0.030  0.00  0.00    +0.020 A 
ATOM      8  S   UNL     1       0.002  -0.004   0.002  0.00  0.00    -0.049 S 
ATOM      9  C   UNL     1      -0.022   1.776   0.012  0.00  0.00    +0.184 A 
ATOM     10  N   UNL     1       1.299   2.120   0.001  0.00  0.00    -0.254 N 
ATOM     11  C   UNL     1       1.588   3.457   0.005  0.00  0.00    +0.266 A 
ATOM     12  O   UNL     1       2.751   3.830  -0.003  0.00  0.00    -0.267 OA
ATOM     13  C   UNL     1       0.558   4.391   0.020  0.00  0.00    +0.079 A 
ATOM     14  C   UNL     1      -0.759   3.958   0.031  0.00  0.00    +0.223 A 
ATOM     15  N   UNL     1      -1.003   2.644   0.021  0.00  0.00    -0.188 NA
ENDROOT
BRANCH  14  16
ATOM     16  O   UNL     1      -1.779   4.849   0.045  0.00  0.00    -0.492 OA
ATOM     17  H   UNL     1      -2.656   4.443   0.052  0.00  0.00    +0.294 HD
ENDBRANCH  14  16
BRANCH  13  18
ATOM     18  C   UNL     1       0.871   5.865   0.025  0.00  0.00    +0.057 C 
BRANCH  18  19
ATOM     19  C   UNL     1       1.114   6.331   1.462  0.00  0.00    +0.125 C 
BRANCH  19  20
ATOM     20  C   UNL     1       1.428   7.805   1.466  0.00  0.00    +0.308 C 
ATOM     21  O   UNL     1       1.454   8.420   0.427  0.00  0.00    -0.251 OA
BRANCH  20  22
ATOM     22  O   UNL     1       1.678   8.434   2.625  0.00  0.00    -0.461 OA
BRANCH  22  23
ATOM     23  C   UNL     1       1.972   9.854   2.554  0.00  0.00    +0.176 C 
ATOM     24  C   UNL     1       3.480  10.055   2.388  0.00  0.00    +0.044 C 
ATOM     25  C   UNL     1       3.790  11.551   2.312  0.00  0.00    +0.004 C 
ATOM     26  C   UNL     1       3.324  12.234   3.600  0.00  0.00    +0.000 C 
ATOM     27  C   UNL     1       1.816  12.034   3.766  0.00  0.00    +0.004 C 
ATOM     28  C   UNL     1       1.506  10.537   3.841  0.00  0.00    +0.044 C 
ENDBRANCH  22  23
ENDBRANCH  20  22
ENDBRANCH  19  20
ENDBRANCH  18  19
ENDBRANCH  13  18
TORSDOF 6
