REMARK  Name = ZINC06045195
REMARK  5 active torsions:
REMARK  status: ('A' for Active; 'I' for Inactive)
REMARK    1  A    between atoms: C_3  and  N_11
REMARK    2  A    between atoms: C_5  and  S_7
REMARK    3  A    between atoms: S_7  and  N_10
REMARK    4  A    between atoms: N_11  and  N_12
REMARK    5  A    between atoms: C_14  and  C_19
REMARK                            x       y       z     vdW  Elec       q    Type
REMARK                         _______ _______ _______ _____ _____    ______ ____
ROOT
ATOM      1  N   UNL     1       3.564   3.521  -0.014  0.00  0.00    -0.173 NA
ATOM      2  C   UNL     1       4.692   4.191  -0.022  0.00  0.00    +0.148 C 
ATOM      3  C   UNL     1       4.924   5.648  -0.011  0.00  0.00    +0.107 C 
ATOM      4  N   UNL     1       6.158   6.048  -0.022  0.00  0.00    -0.219 NA
ATOM      5  C   UNL     1       7.190   5.183  -0.043  0.00  0.00    +0.188 C 
ATOM      6  N   UNL     1       8.478   5.444  -0.057  0.00  0.00    -0.276 NA
ATOM      7  S   UNL     1       6.377   3.592  -0.040  0.00  0.00    -0.027 S 
ATOM      8  H   UNL     1       9.120   4.718  -0.072  0.00  0.00    +0.189 HD
ENDROOT
BRANCH   3   9
ATOM      9  C   UNL     1       3.801   6.608   0.012  0.00  0.00    +0.003 A 
ATOM     10  C   UNL     1       2.483   6.146   0.030  0.00  0.00    +0.013 A 
ATOM     11  C   UNL     1       1.439   7.046   0.051  0.00  0.00    +0.039 A 
ATOM     12  C   UNL     1       1.696   8.409   0.055  0.00  0.00    +0.123 A 
ATOM     13  C   UNL     1       3.002   8.873   0.037  0.00  0.00    +0.039 A 
ATOM     14  C   UNL     1       4.053   7.982   0.022  0.00  0.00    +0.013 A 
ATOM     15  F   UNL     1       0.669   9.287   0.076  0.00  0.00    -0.205 F 
ENDBRANCH   3   9
BRANCH   1  16
ATOM     16  N   UNL     1       3.581   2.120  -0.021  0.00  0.00    -0.237 N 
ATOM     17  H   UNL     1       4.426   1.645  -0.032  0.00  0.00    +0.174 HD
BRANCH  16  20
ATOM     18  C   UNL     1      -0.017   1.379   0.010  0.00  0.00    +0.004 A 
ATOM     19  C   UNL     1       1.169   2.087   0.002  0.00  0.00    +0.025 A 
ATOM     20  C   UNL     1       2.382   1.409  -0.013  0.00  0.00    +0.050 A 
ATOM     21  C   UNL     1       2.396   0.018  -0.021  0.00  0.00    +0.053 A 
ATOM     22  C   UNL     1       1.207  -0.683  -0.013  0.00  0.00    +0.107 A 
ATOM     23  C   UNL     1       0.002  -0.004   0.002  0.00  0.00    +0.028 A 
BRANCH  22  24
ATOM     24  S   UNL     1       1.225  -2.445  -0.023  0.00  0.00    +0.056 S 
ATOM     25  O   UNL     1      -0.022  -2.860  -0.565  0.00  0.00    -0.153 OA
ATOM     26  O   UNL     1       2.468  -2.836  -0.589  0.00  0.00    -0.153 OA
BRANCH  24  27
ATOM     27  N   UNL     1       1.245  -2.943   1.556  0.00  0.00    -0.204 NA
ATOM     28  H   UNL     1       1.245  -2.288   2.271  0.00  0.00    +0.144 HD
ATOM     29  H   UNL     1       1.256  -3.890   1.765  0.00  0.00    +0.144 HD
ENDBRANCH  24  27
ENDBRANCH  22  24
ENDBRANCH  16  20
ENDBRANCH   1  16
TORSDOF 5
