REMARK  Name = ZINC57460572
REMARK  7 active torsions:
REMARK  status: ('A' for Active; 'I' for Inactive)
REMARK    1  A    between atoms: C_1  and  C_2
REMARK    2  A    between atoms: C_2  and  C_3
REMARK    3  A    between atoms: C_3  and  C_4
REMARK    4  A    between atoms: C_5  and  C_20
REMARK    5  A    between atoms: C_6  and  C_12
REMARK    6  A    between atoms: C_20  and  O_22
REMARK    7  A    between atoms: O_22  and  C_23
REMARK                            x       y       z     vdW  Elec       q    Type
REMARK                         _______ _______ _______ _____ _____    ______ ____
ROOT
ATOM      1  C   UNL     1      -1.625  -2.028   0.070  0.00  0.00    +0.022 C 
ATOM      2  C   UNL     1      -1.423  -2.711   1.218  0.00  0.00    +0.078 C 
ATOM      3  C   UNL     1      -1.190  -4.205   1.119  0.00  0.00    +0.144 C 
ATOM      4  N   UNL     1      -1.204  -4.793  -0.231  0.00  0.00    -0.315 N 
ATOM      5  C   UNL     1      -1.419  -3.980  -1.283  0.00  0.00    +0.135 C 
ATOM      6  S   UNL     1      -1.438  -4.651  -2.858  0.00  0.00    -0.019 S 
ATOM      7  N   UNL     1      -1.625  -2.665  -1.137  0.00  0.00    -0.300 N 
ATOM      8  H   UNL     1      -1.061  -5.744  -0.359  0.00  0.00    +0.149 HD
ATOM      9  H   UNL     1      -1.779  -2.134  -1.934  0.00  0.00    +0.154 HD
ENDROOT
BRANCH   3  10
ATOM     10  C   UNL     1       0.147  -4.509   1.744  0.00  0.00    +0.013 A 
ATOM     11  C   UNL     1       1.284  -4.546   0.960  0.00  0.00    +0.010 A 
ATOM     12  C   UNL     1       2.511  -4.825   1.533  0.00  0.00    +0.016 A 
ATOM     13  C   UNL     1       2.601  -5.068   2.892  0.00  0.00    +0.021 A 
ATOM     14  C   UNL     1       1.464  -5.032   3.678  0.00  0.00    +0.054 A 
ATOM     15  C   UNL     1       0.236  -4.747   3.105  0.00  0.00    +0.130 A 
ATOM     16  F   UNL     1      -0.874  -4.705   3.873  0.00  0.00    -0.205 F 
ATOM     17 BR   UNL     1       4.280  -5.450   3.675  0.00  0.00    -0.050 Br
ENDBRANCH   3  10
BRANCH   2  18
ATOM     18  C   UNL     1      -1.427  -2.053   2.470  0.00  0.00    +0.339 C 
ATOM     19  O   UNL     1      -2.404  -2.126   3.192  0.00  0.00    -0.245 OA
BRANCH  18  20
ATOM     20  O   UNL     1      -0.348  -1.344   2.864  0.00  0.00    -0.465 OA
ATOM     21  C   UNL     1      -0.422  -0.706   4.140  0.00  0.00    +0.280 C 
ENDBRANCH  18  20
ENDBRANCH   2  18
BRANCH   1  22
ATOM     22  C   UNL     1      -1.860  -0.541   0.123  0.00  0.00    +0.051 C 
BRANCH  22  24
ATOM     23  C   UNL     1      -0.774   1.704  -0.038  0.00  0.00    +0.004 C 
ATOM     24  C   UNL     1      -0.535   0.193  -0.092  0.00  0.00    +0.002 C 
ENDBRANCH  22  24
ENDBRANCH   1  22
TORSDOF 5
