REMARK  Name = ZINC47152238
REMARK  11 active torsions:
REMARK  status: ('A' for Active; 'I' for Inactive)
REMARK    1  A    between atoms: C_1  and  C_2
REMARK    2  A    between atoms: C_2  and  O_3
REMARK    3  A    between atoms: O_3  and  C_4
REMARK    4  A    between atoms: C_6  and  C_11
REMARK    5  A    between atoms: C_9  and  O_10
REMARK    6  A    between atoms: N_15  and  C_19
REMARK    7  A    between atoms: C_19  and  C_20
REMARK    8  A    between atoms: C_20  and  C_21
REMARK    9  A    between atoms: C_21  and  C_22
REMARK   10  A    between atoms: N_24  and  C_25
REMARK   11  A    between atoms: C_28  and  N_31
REMARK                            x       y       z     vdW  Elec       q    Type
REMARK                         _______ _______ _______ _____ _____    ______ ____
ROOT
ATOM      1  C   UNL     1      -0.747  -4.535   1.426  0.00  0.00    +0.028 C 
ATOM      2  C   UNL     1      -0.651  -5.825   1.013  0.00  0.00    +0.077 C 
ATOM      3  C   UNL     1      -1.142  -7.059   1.660  0.00  0.00    +0.258 C 
ATOM      4  O   UNL     1      -1.733  -7.032   2.723  0.00  0.00    -0.269 OA
ATOM      5  N   UNL     1      -0.906  -8.194   1.025  0.00  0.00    -0.255 N 
ATOM      6  C   UNL     1      -0.250  -8.220  -0.153  0.00  0.00    +0.121 C 
ATOM      7  S   UNL     1       0.147  -9.576  -1.120  0.00  0.00    -0.027 S 
ATOM      8  S   UNL     1       0.095  -6.496  -0.466  0.00  0.00    -0.061 S 
ENDROOT
BRANCH   1  11
ATOM      9  C   UNL     1       0.285  -1.148   0.191  0.00  0.00    +0.162 A 
ATOM     10  C   UNL     1      -0.394  -2.137   0.874  0.00  0.00    +0.057 A 
ATOM     11  C   UNL     1      -0.029  -3.478   0.702  0.00  0.00    -0.020 A 
ATOM     12  C   UNL     1       1.022  -3.808  -0.162  0.00  0.00    +0.012 A 
ATOM     13  C   UNL     1       1.693  -2.813  -0.840  0.00  0.00    +0.050 A 
ATOM     14  C   UNL     1       1.327  -1.485  -0.672  0.00  0.00    +0.158 A 
BRANCH  14  15
ATOM     15  O   UNL     1       1.989  -0.509  -1.348  0.00  0.00    -0.503 OA
ATOM     16  H   UNL     1       2.756  -0.156  -0.876  0.00  0.00    +0.292 HD
ENDBRANCH  14  15
BRANCH   9  17
ATOM     17  O   UNL     1      -0.067   0.156   0.355  0.00  0.00    -0.489 OA
BRANCH  17  19
ATOM     18  C   UNL     1      -1.392   1.937   1.309  0.00  0.00    +0.048 C 
ATOM     19  C   UNL     1      -1.143   0.429   1.255  0.00  0.00    +0.226 C 
ENDBRANCH  17  19
ENDBRANCH   9  17
ENDBRANCH   1  11
BRANCH   5  20
ATOM     20  C   UNL     1      -1.367  -9.454   1.615  0.00  0.00    +0.115 C 
BRANCH  20  21
ATOM     21  C   UNL     1      -2.782  -9.761   1.120  0.00  0.00    +0.029 C 
BRANCH  21  22
ATOM     22  C   UNL     1      -3.263 -11.076   1.736  0.00  0.00    +0.097 C 
BRANCH  22  23
ATOM     23  C   UNL     1      -4.657 -11.378   1.249  0.00  0.00    +0.217 C 
ATOM     24  O   UNL     1      -5.210 -10.617   0.484  0.00  0.00    -0.275 OA
ATOM     25  N   UNL     1      -5.288 -12.495   1.663  0.00  0.00    -0.285 N 
ATOM     26  H   UNL     1      -4.873 -13.069   2.325  0.00  0.00    +0.155 HD
BRANCH  25  27
ATOM     27  C   UNL     1      -6.543 -12.825   1.138  0.00  0.00    +0.034 A 
ATOM     28  C   UNL     1      -7.494 -13.438   1.943  0.00  0.00    +0.025 A 
ATOM     29  C   UNL     1      -8.731 -13.763   1.422  0.00  0.00    +0.034 A 
ATOM     30  C   UNL     1      -9.023 -13.477   0.101  0.00  0.00    +0.126 A 
ATOM     31  C   UNL     1      -8.078 -12.867  -0.703  0.00  0.00    +0.034 A 
ATOM     32  C   UNL     1      -6.841 -12.534  -0.186  0.00  0.00    +0.025 A 
BRANCH  30  33
ATOM     33  N   UNL     1     -10.350 -13.826  -0.454  0.00  0.00    +0.056 N 
ATOM     34  O   UNL     1     -11.177 -14.360   0.247  0.00  0.00    -0.126 OA
ATOM     35  O   UNL     1     -10.607 -13.578  -1.609  0.00  0.00    -0.126 OA
ENDBRANCH  30  33
ENDBRANCH  25  27
ENDBRANCH  22  23
ENDBRANCH  21  22
ENDBRANCH  20  21
ENDBRANCH   5  20
TORSDOF 10
