REMARK  Name = ZINC12833011
REMARK  11 active torsions:
REMARK  status: ('A' for Active; 'I' for Inactive)
REMARK    1  A    between atoms: C_1  and  C_2
REMARK    2  A    between atoms: C_4  and  C_35
REMARK    3  A    between atoms: C_9  and  C_14
REMARK    4  A    between atoms: C_14  and  N_67
REMARK    5  A    between atoms: C_15  and  C_16
REMARK    6  A    between atoms: C_15  and  N_67
REMARK    7  A    between atoms: C_19  and  O_22
REMARK    8  A    between atoms: O_22  and  C_23
REMARK    9  A    between atoms: C_24  and  C_25
REMARK   10  A    between atoms: C_24  and  N_67
REMARK   11  A    between atoms: N_29  and  C_30
REMARK                            x       y       z     vdW  Elec       q    Type
REMARK                         _______ _______ _______ _____ _____    ______ ____
ROOT
ATOM      1  N   UNL     1      -1.721   7.929  -1.634  0.00  0.00    +0.390 N 
ATOM      2  H   UNL     1      -2.536   7.472  -2.059  0.00  0.00    -0.080 HD
ENDROOT
BRANCH   1   3
ATOM      3  C   UNL     1      -1.753   7.706  -0.173  0.00  0.00    -0.036 C 
BRANCH   3  12
ATOM      4  C   UNL     1      -0.201   0.847   2.310  0.00  0.00    +0.044 C 
ATOM      5  C   UNL     1      -1.153   1.834   1.685  0.00  0.00    -0.050 A 
ATOM      6  C   UNL     1      -2.431   1.427   1.329  0.00  0.00    +0.008 A 
ATOM      7  C   UNL     1      -3.316   2.311   0.751  0.00  0.00    -0.026 A 
ATOM      8  C   UNL     1      -2.929   3.630   0.531  0.00  0.00    +0.052 A 
ATOM      9  C   UNL     1      -1.632   4.039   0.893  0.00  0.00    -0.001 A 
ATOM     10  C   UNL     1      -0.749   3.122   1.473  0.00  0.00    +0.013 A 
ATOM     11  C   UNL     1      -1.233   5.427   0.653  0.00  0.00    +0.017 A 
ATOM     12  C   UNL     1      -2.132   6.271   0.088  0.00  0.00    +0.001 A 
ATOM     13  C   UNL     1      -3.421   5.810  -0.256  0.00  0.00    +0.251 A 
ATOM     14  O   UNL     1      -4.213   6.585  -0.763  0.00  0.00    -0.268 OA
ATOM     15  N   UNL     1      -3.796   4.537  -0.039  0.00  0.00    -0.322 N 
ATOM     16  H   UNL     1      -4.690   4.254  -0.287  0.00  0.00    +0.169 HD
ATOM     17  C   UNL     1      -4.699   1.854   0.365  0.00  0.00    +0.046 C 
ENDBRANCH   3  12
ENDBRANCH   1   3
BRANCH   1  18
ATOM     18  C   UNL     1      -1.777   9.377  -1.925  0.00  0.00    -0.042 C 
BRANCH  18  19
ATOM     19  C   UNL     1      -2.121   9.566  -3.380  0.00  0.00    -0.064 A 
ATOM     20  C   UNL     1      -1.118   9.795  -4.303  0.00  0.00    +0.005 A 
ATOM     21  C   UNL     1      -1.431   9.962  -5.638  0.00  0.00    +0.046 A 
ATOM     22  C   UNL     1      -2.754   9.911  -6.051  0.00  0.00    +0.120 A 
ATOM     23  C   UNL     1      -3.760   9.687  -5.122  0.00  0.00    +0.046 A 
ATOM     24  C   UNL     1      -3.441   9.514  -3.789  0.00  0.00    +0.005 A 
BRANCH  22  25
ATOM     25  O   UNL     1      -3.065  10.081  -7.363  0.00  0.00    -0.495 OA
ATOM     26  C   UNL     1      -1.978  10.308  -8.263  0.00  0.00    +0.277 C 
ENDBRANCH  22  25
ENDBRANCH  18  19
ENDBRANCH   1  18
BRANCH   1  27
ATOM     27  C   UNL     1      -0.490   7.346  -2.208  0.00  0.00    +0.001 C 
BRANCH  27  28
ATOM     28  C   UNL     1      -0.687   5.860  -2.362  0.00  0.00    +0.135 A 
ATOM     29  N   UNL     1      -0.228   4.923  -1.568  0.00  0.00    -0.115 NA
ATOM     30  N   UNL     1      -0.610   3.784  -2.034  0.00  0.00    -0.023 NA
ATOM     31  N   UNL     1      -1.294   3.970  -3.109  0.00  0.00    -0.044 NA
ATOM     32  N   UNL     1      -1.364   5.236  -3.344  0.00  0.00    -0.228 N 
BRANCH  32  33
ATOM     33  C   UNL     1      -2.052   5.876  -4.468  0.00  0.00    +0.111 C 
ATOM     34  C   UNL     1      -3.561   5.562  -4.412  0.00  0.00    +0.027 C 
ATOM     35  C   UNL     1      -3.968   5.389  -5.898  0.00  0.00    +0.002 C 
ATOM     36  C   UNL     1      -2.743   4.661  -6.505  0.00  0.00    +0.002 C 
ATOM     37  C   UNL     1      -1.532   5.304  -5.799  0.00  0.00    +0.027 C 
ENDBRANCH  32  33
ENDBRANCH  27  28
ENDBRANCH   1  27
TORSDOF 8
