REMARK  Name = ZINC39966755
REMARK  9 active torsions:
REMARK  status: ('A' for Active; 'I' for Inactive)
REMARK    1  A    between atoms: C_1  and  C_2
REMARK    2  A    between atoms: N_4  and  C_5
REMARK    3  A    between atoms: C_8  and  N_11
REMARK    4  A    between atoms: C_12  and  C_14
REMARK    5  A    between atoms: C_14  and  S_15
REMARK    6  A    between atoms: S_15  and  C_16
REMARK    7  A    between atoms: C_19  and  C_24
REMARK    8  A    between atoms: N_20  and  C_21
REMARK    9  A    between atoms: C_21  and  C_22
REMARK                            x       y       z     vdW  Elec       q    Type
REMARK                         _______ _______ _______ _____ _____    ______ ____
ROOT
ATOM      1  C   UNL     1      -2.977 -10.993  -0.436  0.00  0.00    +0.193 A 
ATOM      2  N   UNL     1      -1.831 -11.563  -0.146  0.00  0.00    -0.122 NA
ATOM      3  N   UNL     1      -1.982 -12.836  -0.055  0.00  0.00    -0.128 NA
ATOM      4  C   UNL     1      -3.235 -13.157  -0.281  0.00  0.00    +0.166 A 
ATOM      5  N   UNL     1      -3.913 -11.986  -0.526  0.00  0.00    -0.298 N 
ENDROOT
BRANCH   4   6
ATOM      6  C   UNL     1      -3.809 -14.519  -0.267  0.00  0.00    +0.030 A 
ATOM      7  C   UNL     1      -4.964 -14.769   0.415  0.00  0.00    +0.057 A 
ATOM      8  S   UNL     1      -5.201 -16.512   0.108  0.00  0.00    -0.101 S 
ATOM      9  C   UNL     1      -3.766 -16.781  -0.901  0.00  0.00    -0.006 A 
ATOM     10  C   UNL     1      -3.170 -15.565  -0.963  0.00  0.00    -0.026 A 
ATOM     11  C   UNL     1      -1.868 -15.339  -1.726  0.00  0.00    +0.036 C 
ATOM     12  C   UNL     1      -1.740 -16.361  -2.850  0.00  0.00    +0.005 C 
ATOM     13  C   UNL     1      -1.029 -17.620  -2.357  0.00  0.00    +0.001 C 
ATOM     14  C   UNL     1      -1.848 -18.290  -1.259  0.00  0.00    +0.005 C 
ATOM     15  C   UNL     1      -3.331 -18.057  -1.546  0.00  0.00    +0.043 C 
ENDBRANCH   4   6
BRANCH   1  16
ATOM     16  S   UNL     1      -3.258  -9.268  -0.661  0.00  0.00    -0.077 S 
BRANCH  16  17
ATOM     17  C   UNL     1      -1.625  -8.520  -0.408  0.00  0.00    +0.173 C 
BRANCH  17  19
ATOM     18  N   UNL     1      -0.629  -6.256  -0.430  0.00  0.00    -0.285 N 
ATOM     19  C   UNL     1      -1.726  -7.026  -0.574  0.00  0.00    +0.227 C 
ATOM     20  O   UNL     1      -2.794  -6.515  -0.836  0.00  0.00    -0.275 OA
ATOM     21  H   UNL     1       0.210  -6.655  -0.151  0.00  0.00    +0.155 HD
BRANCH  18  25
ATOM     22  C   UNL     1      -0.841  -2.161  -1.184  0.00  0.00    +0.033 A 
ATOM     23  C   UNL     1       0.309  -2.868  -1.510  0.00  0.00    +0.025 A 
ATOM     24  C   UNL     1       0.379  -4.224  -1.260  0.00  0.00    +0.025 A 
ATOM     25  C   UNL     1      -0.700  -4.880  -0.683  0.00  0.00    +0.034 A 
ATOM     26  C   UNL     1      -1.850  -4.173  -0.357  0.00  0.00    +0.025 A 
ATOM     27  C   UNL     1      -1.918  -2.816  -0.602  0.00  0.00    +0.025 A 
BRANCH  22  31
ATOM     28  C   UNL     1      -1.550   1.517  -0.794  0.00  0.00    +0.109 C 
ATOM     29  C   UNL     1      -1.565   0.025  -0.581  0.00  0.00    +0.214 C 
ATOM     30  O   UNL     1      -2.164  -0.446   0.362  0.00  0.00    -0.276 OA
ATOM     31  N   UNL     1      -0.913  -0.785  -1.438  0.00  0.00    -0.286 N 
ATOM     32  H   UNL     1      -0.492  -0.415  -2.230  0.00  0.00    +0.155 HD
ENDBRANCH  22  31
ENDBRANCH  18  25
ENDBRANCH  17  19
ENDBRANCH  16  17
ENDBRANCH   1  16
BRANCH   5  33
ATOM     33  C   UNL     1      -5.339 -11.835  -0.826  0.00  0.00    +0.152 C 
BRANCH  33  34
ATOM     34  C   UNL     1      -5.550 -11.906  -2.316  0.00  0.00    -0.013 C 
ATOM     35  C   UNL     1      -6.391 -12.775  -2.818  0.00  0.00    +0.005 C 
ENDBRANCH  33  34
ENDBRANCH   5  33
TORSDOF 8
