REMARK  Name = ZINC06955828
REMARK  5 active torsions:
REMARK  status: ('A' for Active; 'I' for Inactive)
REMARK    1  A    between atoms: C_1  and  C_2
REMARK    2  A    between atoms: C_2  and  C_3
REMARK    3  A    between atoms: C_4  and  C_23
REMARK    4  A    between atoms: C_7  and  C_8
REMARK    5  A    between atoms: N_10  and  N_11
REMARK                            x       y       z     vdW  Elec       q    Type
REMARK                         _______ _______ _______ _____ _____    ______ ____
ROOT
ATOM      1  N   UNL     1      -1.607  -0.775  -4.896  0.00  0.00    -0.174 NA
ATOM      2  C   UNL     1      -2.293  -1.019  -5.987  0.00  0.00    +0.154 C 
ATOM      3  C   UNL     1      -3.761  -0.926  -6.169  0.00  0.00    +0.042 A 
ATOM      4  C   UNL     1      -4.017  -1.280  -7.500  0.00  0.00    +0.044 A 
ATOM      5  C   UNL     1      -5.330  -1.282  -7.958  0.00  0.00    +0.024 A 
ATOM      6  C   UNL     1      -6.361  -0.938  -7.107  0.00  0.00    +0.003 A 
ATOM      7  C   UNL     1      -6.104  -0.589  -5.792  0.00  0.00    +0.016 A 
ATOM      8  C   UNL     1      -4.806  -0.582  -5.319  0.00  0.00    +0.029 A 
ATOM      9 BR   UNL     1      -4.452  -0.105  -3.523  0.00  0.00    -0.050 Br
ATOM     10  N   UNL     1      -2.817  -1.579  -8.136  0.00  0.00    -0.280 N 
ATOM     11  C   UNL     1      -1.772  -1.439  -7.303  0.00  0.00    +0.269 C 
ATOM     12  O   UNL     1      -0.602  -1.627  -7.583  0.00  0.00    -0.268 OA
ATOM     13  H   UNL     1      -2.743  -1.851  -9.064  0.00  0.00    +0.155 HD
ENDROOT
BRANCH   1  16
ATOM     14  C   UNL     1      -1.515  -0.685  -2.519  0.00  0.00    +0.264 C 
ATOM     15  O   UNL     1      -0.495  -0.027  -2.595  0.00  0.00    -0.268 OA
ATOM     16  N   UNL     1      -2.164  -1.053  -3.641  0.00  0.00    -0.202 N 
ATOM     17  H   UNL     1      -3.018  -1.510  -3.580  0.00  0.00    +0.178 HD
BRANCH  14  22
ATOM     18  C   UNL     1      -1.321  -0.789   0.015  0.00  0.00    -0.026 A 
ATOM     19  C   UNL     1      -1.912  -1.198   1.155  0.00  0.00    -0.009 A 
ATOM     20  S   UNL     1      -3.411  -1.965   0.580  0.00  0.00    -0.101 S 
ATOM     21  C   UNL     1      -3.239  -1.744  -1.074  0.00  0.00    +0.058 A 
ATOM     22  C   UNL     1      -2.040  -1.078  -1.203  0.00  0.00    +0.049 A 
ATOM     23  C   UNL     1      -1.422  -1.043   2.572  0.00  0.00    +0.052 C 
BRANCH  18  25
ATOM     24  C   UNL     1      -0.233   1.437   0.116  0.00  0.00    +0.009 C 
ATOM     25  C   UNL     1       0.004  -0.071   0.012  0.00  0.00    +0.033 C 
ENDBRANCH  18  25
ENDBRANCH  14  22
ENDBRANCH   1  16
TORSDOF 3
