REMARK  Name = ZINC09542166
REMARK  4 active torsions:
REMARK  status: ('A' for Active; 'I' for Inactive)
REMARK    1  A    between atoms: C_6  and  C_7
REMARK    2  A    between atoms: C_9  and  C_21
REMARK    3  A    between atoms: C_12  and  C_14
REMARK    4  A    between atoms: C_26  and  O_27
REMARK                            x       y       z     vdW  Elec       q    Type
REMARK                         _______ _______ _______ _____ _____    ______ ____
ROOT
ATOM      1  C   UNL     1       0.002  -0.004   0.002  0.00  0.00    +0.081 C 
ATOM      2  C   UNL     1       1.357   1.991  -0.000  0.00  0.00    -0.028 C 
ATOM      3  C   UNL     1       1.990   1.649  -1.353  0.00  0.00    +0.044 C 
ATOM      4  C   UNL     1       1.733   0.204  -1.676  0.00  0.00    +0.040 C 
ATOM      5  N   UNL     1       0.853  -0.501  -1.072  0.00  0.00    -0.299 NA
ATOM      6  N   UNL     1      -0.022   1.466   0.010  0.00  0.00    +0.401 N 
ATOM      7  H   UNL     1      -0.505   1.794   0.855  0.00  0.00    -0.081 HD
ATOM      8  H   UNL     1      -0.521   1.804  -0.822  0.00  0.00    -0.081 HD
ENDROOT
BRANCH   1  14
ATOM      9  C   UNL     1       0.331   0.245   2.471  0.00  0.00    +0.005 A 
ATOM     10  C   UNL     1       0.810  -0.213   3.684  0.00  0.00    +0.020 A 
ATOM     11  C   UNL     1       1.498  -1.411   3.748  0.00  0.00    +0.041 A 
ATOM     12  C   UNL     1       1.701  -2.154   2.599  0.00  0.00    +0.020 A 
ATOM     13  C   UNL     1       1.216  -1.698   1.387  0.00  0.00    +0.005 A 
ATOM     14  C   UNL     1       0.529  -0.501   1.324  0.00  0.00    -0.040 A 
ATOM     15 CL   UNL     1       2.107  -1.982   5.270  0.00  0.00    -0.084 Cl
ENDBRANCH   1  14
BRANCH   4  16
ATOM     16  C   UNL     1       2.535  -0.432  -2.740  0.00  0.00    -0.004 A 
ATOM     17  C   UNL     1       3.501   0.307  -3.426  0.00  0.00    +0.011 A 
ATOM     18  C   UNL     1       4.250  -0.294  -4.415  0.00  0.00    +0.020 A 
ATOM     19  C   UNL     1       4.038  -1.625  -4.737  0.00  0.00    +0.041 A 
ATOM     20  C   UNL     1       3.077  -2.361  -4.064  0.00  0.00    +0.020 A 
ATOM     21  C   UNL     1       2.325  -1.773  -3.068  0.00  0.00    +0.011 A 
ATOM     22 CL   UNL     1       4.980  -2.373  -5.989  0.00  0.00    -0.084 Cl
ENDBRANCH   4  16
BRANCH   2  23
ATOM     23  C   UNL     1       1.330   3.486   0.185  0.00  0.00    -0.018 A 
ATOM     24  C   UNL     1       0.175   4.195  -0.082  0.00  0.00    +0.025 A 
ATOM     25  C   UNL     1       0.147   5.567   0.094  0.00  0.00    +0.041 A 
ATOM     26  C   UNL     1       1.280   6.234   0.526  0.00  0.00    +0.023 A 
ATOM     27  C   UNL     1       2.439   5.529   0.790  0.00  0.00    +0.047 A 
ATOM     28  C   UNL     1       2.466   4.152   0.620  0.00  0.00    +0.119 A 
ATOM     29 CL   UNL     1      -1.308   6.454  -0.236  0.00  0.00    -0.084 Cl
BRANCH  28  30
ATOM     30  O   UNL     1       3.606   3.458   0.879  0.00  0.00    -0.507 OA
ATOM     31  H   UNL     1       4.192   3.365   0.115  0.00  0.00    +0.292 HD
ENDBRANCH  28  30
ENDBRANCH   2  23
TORSDOF 4
