REMARK  Name = ZINC09088915
REMARK  10 active torsions:
REMARK  status: ('A' for Active; 'I' for Inactive)
REMARK    1  A    between atoms: C_1  and  C_2
REMARK    2  A    between atoms: C_2  and  C_36
REMARK    3  A    between atoms: C_6  and  C_26
REMARK    4  A    between atoms: C_8  and  C_24
REMARK    5  A    between atoms: C_9  and  S_11
REMARK    6  A    between atoms: S_11  and  C_12
REMARK    7  A    between atoms: C_12  and  C_13
REMARK    8  A    between atoms: N_15  and  C_16
REMARK    9  A    between atoms: C_19  and  O_22
REMARK   10  A    between atoms: O_22  and  C_23
REMARK                            x       y       z     vdW  Elec       q    Type
REMARK                         _______ _______ _______ _____ _____    ______ ____
ROOT
ATOM      1  C   UNL     1      -0.042   1.538   0.063  0.00  0.00    +0.011 C 
ATOM      2  C   UNL     1      -0.016   0.008   0.046  0.00  0.00    -0.023 C 
ATOM      3  C   UNL     1      -1.448  -0.531   0.075  0.00  0.00    +0.058 C 
ATOM      4  C   UNL     1      -1.420  -2.039   0.108  0.00  0.00    +0.016 C 
ATOM      5  C   UNL     1      -0.405  -2.703   0.700  0.00  0.00    +0.024 C 
ATOM      6  C   UNL     1      -0.379  -4.211   0.732  0.00  0.00    +0.097 C 
ATOM      7  C   UNL     1      -1.737  -4.782   0.448  0.00  0.00    +0.069 C 
ATOM      8  C   UNL     1      -2.706  -4.030  -0.139  0.00  0.00    +0.080 C 
ATOM      9  N   UNL     1      -2.454  -2.720  -0.475  0.00  0.00    -0.311 N 
ATOM     10  C   UNL     1       0.661  -2.011   1.301  0.00  0.00    +0.162 C 
ATOM     11  O   UNL     1       1.550  -2.639   1.842  0.00  0.00    -0.292 OA
ATOM     12  C   UNL     1       0.722  -0.508   1.286  0.00  0.00    +0.086 C 
ATOM     13  C   UNL     1       0.697  -0.480  -1.217  0.00  0.00    +0.011 C 
ATOM     14  H   UNL     1      -3.014  -2.276  -1.131  0.00  0.00    +0.152 HD
ENDROOT
BRANCH   6  15
ATOM     15  C   UNL     1       0.593  -4.710  -0.306  0.00  0.00    -0.035 A 
ATOM     16  C   UNL     1       0.402  -4.398  -1.639  0.00  0.00    +0.006 A 
ATOM     17  C   UNL     1       1.293  -4.855  -2.591  0.00  0.00    +0.020 A 
ATOM     18  C   UNL     1       2.377  -5.626  -2.210  0.00  0.00    +0.041 A 
ATOM     19  C   UNL     1       2.568  -5.939  -0.875  0.00  0.00    +0.020 A 
ATOM     20  C   UNL     1       1.679  -5.476   0.076  0.00  0.00    +0.006 A 
ATOM     21 CL   UNL     1       3.497  -6.202  -3.405  0.00  0.00    -0.084 Cl
ENDBRANCH   6  15
BRANCH   7  22
ATOM     22  C   UNL     1      -2.016  -6.142   0.800  0.00  0.00    +0.098 C 
ATOM     23  N   UNL     1      -2.238  -7.221   1.079  0.00  0.00    -0.191 NA
ENDBRANCH   7  22
BRANCH   8  24
ATOM     24  S   UNL     1      -4.287  -4.735  -0.469  0.00  0.00    -0.100 S 
BRANCH  24  25
ATOM     25  C   UNL     1      -5.219  -3.381  -1.237  0.00  0.00    +0.171 C 
BRANCH  25  26
ATOM     26  C   UNL     1      -6.609  -3.856  -1.574  0.00  0.00    +0.227 C 
ATOM     27  O   UNL     1      -6.939  -4.995  -1.321  0.00  0.00    -0.275 OA
ATOM     28  N   UNL     1      -7.486  -3.014  -2.156  0.00  0.00    -0.285 N 
ATOM     29  H   UNL     1      -7.246  -2.085  -2.297  0.00  0.00    +0.155 HD
BRANCH  28  30
ATOM     30  C   UNL     1      -8.745  -3.482  -2.558  0.00  0.00    +0.034 A 
ATOM     31  C   UNL     1      -9.337  -2.980  -3.708  0.00  0.00    +0.027 A 
ATOM     32  C   UNL     1     -10.577  -3.441  -4.104  0.00  0.00    +0.047 A 
ATOM     33  C   UNL     1     -11.231  -4.405  -3.351  0.00  0.00    +0.120 A 
ATOM     34  C   UNL     1     -10.640  -4.907  -2.201  0.00  0.00    +0.047 A 
ATOM     35  C   UNL     1      -9.397  -4.451  -1.808  0.00  0.00    +0.027 A 
BRANCH  33  36
ATOM     36  O   UNL     1     -12.452  -4.859  -3.740  0.00  0.00    -0.495 OA
ATOM     37  C   UNL     1     -13.068  -5.852  -2.918  0.00  0.00    +0.277 C 
ENDBRANCH  33  36
ENDBRANCH  28  30
ENDBRANCH  25  26
ENDBRANCH  24  25
ENDBRANCH   8  24
TORSDOF 7
