REMARK  Name = ZINC43742987
REMARK  10 active torsions:
REMARK  status: ('A' for Active; 'I' for Inactive)
REMARK    1  A    between atoms: C_1  and  C_2
REMARK    2  A    between atoms: C_3  and  C_31
REMARK    3  A    between atoms: C_9  and  C_30
REMARK    4  A    between atoms: C_22  and  C_29
REMARK    5  A    between atoms: C_25  and  O_28
REMARK    6  A    between atoms: C_31  and  C_32
REMARK    7  A    between atoms: C_32  and  C_33
REMARK    8  A    between atoms: C_33  and  C_35
REMARK    9  A    between atoms: C_33  and  C_36
REMARK   10  A    between atoms: C_36  and  O_37
REMARK                            x       y       z     vdW  Elec       q    Type
REMARK                         _______ _______ _______ _____ _____    ______ ____
ROOT
ATOM      1  C   UNL     1      -0.018   1.503   0.010  0.00  0.00    +0.043 C 
ATOM      2  C   UNL     1       0.002  -0.004   0.002  0.00  0.00    -0.028 C 
ATOM      3  C   UNL     1       0.008  -0.774  -1.063  0.00  0.00    +0.098 C 
ATOM      4  O   UNL     1       0.040  -2.094  -0.779  0.00  0.00    -0.493 OA
ATOM      5  C   UNL     1      -0.339  -2.288   0.597  0.00  0.00    +0.181 C 
ATOM      6  C   UNL     1       0.026  -0.906   1.222  0.00  0.00    +0.065 C 
ATOM      7  C   UNL     1       1.504  -1.082   1.673  0.00  0.00    -0.019 C 
ATOM      8  C   UNL     1       2.363  -0.990   0.410  0.00  0.00    +0.008 C 
ATOM      9  C   UNL     1       3.774  -1.502   0.689  0.00  0.00    +0.005 C 
ATOM     10  C   UNL     1       3.697  -2.983   1.078  0.00  0.00    +0.003 C 
ATOM     11  C   UNL     1       2.885  -3.113   2.364  0.00  0.00    +0.000 C 
ATOM     12  C   UNL     1       1.501  -2.521   2.215  0.00  0.00    +0.003 C 
ATOM     13  C   UNL     1       0.608  -3.325   1.233  0.00  0.00    +0.049 C 
ATOM     14  C   UNL     1       2.771  -4.601   2.720  0.00  0.00    +0.031 C 
ATOM     15  C   UNL     1       4.145  -5.195   2.814  0.00  0.00    -0.027 C 
ATOM     16  C   UNL     1       5.168  -4.720   2.168  0.00  0.00    -0.065 C 
ATOM     17  C   UNL     1       5.106  -3.519   1.276  0.00  0.00    -0.008 C 
ATOM     18  C   UNL     1       5.730  -3.870  -0.077  0.00  0.00    +0.014 C 
ATOM     19  C   UNL     1       7.143  -4.416   0.143  0.00  0.00    +0.032 C 
ATOM     20  C   UNL     1       7.076  -5.709   0.958  0.00  0.00    +0.119 C 
ATOM     21  C   UNL     1       6.511  -5.412   2.333  0.00  0.00    +0.062 C 
ATOM     22  C   UNL     1       5.955  -2.411   1.901  0.00  0.00    +0.016 C 
ATOM     23  C   UNL     1       1.913  -0.063   2.739  0.00  0.00    +0.012 C 
ENDROOT
BRANCH  20  24
ATOM     24  O   UNL     1       8.389  -6.258   1.089  0.00  0.00    -0.391 OA
ATOM     25  H   UNL     1       8.422  -7.080   1.595  0.00  0.00    +0.210 HD
ENDBRANCH  20  24
BRANCH   3  26
ATOM     26  C   UNL     1      -0.018  -0.235  -2.470  0.00  0.00    +0.074 C 
BRANCH  26  27
ATOM     27  C   UNL     1       1.412  -0.138  -3.006  0.00  0.00    +0.013 C 
BRANCH  27  28
ATOM     28  C   UNL     1       1.385   0.410  -4.434  0.00  0.00    +0.012 C 
ATOM     29  C   UNL     1       0.676  -0.590  -5.351  0.00  0.00    +0.010 C 
BRANCH  28  30
ATOM     30  C   UNL     1       2.818   0.624  -4.925  0.00  0.00    +0.159 C 
BRANCH  30  31
ATOM     31  O   UNL     1       2.793   1.244  -6.213  0.00  0.00    -0.395 OA
ATOM     32  H   UNL     1       3.669   1.410  -6.586  0.00  0.00    +0.209 HD
ENDBRANCH  30  31
ENDBRANCH  28  30
ENDBRANCH  27  28
ENDBRANCH  26  27
ENDBRANCH   3  26
TORSDOF 6
