REMARK  Name = ZINC49181550
REMARK  12 active torsions:
REMARK  status: ('A' for Active; 'I' for Inactive)
REMARK    1  A    between atoms: C_1  and  C_2
REMARK    2  A    between atoms: C_2  and  C_33
REMARK    3  A    between atoms: C_3  and  C_4
REMARK    4  A    between atoms: C_4  and  C_5
REMARK    5  A    between atoms: C_6  and  O_31
REMARK    6  A    between atoms: C_8  and  O_30
REMARK    7  A    between atoms: C_18  and  O_28
REMARK    8  A    between atoms: C_19  and  O_26
REMARK    9  A    between atoms: C_22  and  O_25
REMARK   10  A    between atoms: O_26  and  C_27
REMARK   11  A    between atoms: O_28  and  C_29
REMARK   12  A    between atoms: O_31  and  C_32
REMARK                            x       y       z     vdW  Elec       q    Type
REMARK                         _______ _______ _______ _____ _____    ______ ____
ROOT
ATOM      1  C   UNL     1       3.391  -0.491   0.873  0.00  0.00    +0.040 A 
ATOM      2  C   UNL     1       3.399  -0.048   2.189  0.00  0.00    +0.131 A 
ATOM      3  C   UNL     1       4.272  -0.601   3.118  0.00  0.00    +0.092 A 
ATOM      4  C   UNL     1       5.140  -1.610   2.738  0.00  0.00    +0.134 A 
ATOM      5  C   UNL     1       5.127  -2.069   1.412  0.00  0.00    +0.104 A 
ATOM      6  C   UNL     1       4.250  -1.498   0.470  0.00  0.00    +0.142 A 
ATOM      7  O   UNL     1       4.256  -1.908  -0.817  0.00  0.00    -0.481 OA
ATOM      8  C   UNL     1       4.752  -3.206  -1.147  0.00  0.00    +0.254 C 
ATOM      9  C   UNL     1       4.957  -3.261  -2.672  0.00  0.00    +0.277 C 
ATOM     10  O   UNL     1       5.756  -2.139  -3.051  0.00  0.00    -0.488 OA
ATOM     11  C   UNL     1       6.890  -1.888  -2.345  0.00  0.00    +0.131 A 
ATOM     12  C   UNL     1       7.832  -1.021  -2.889  0.00  0.00    +0.095 A 
ATOM     13  C   UNL     1       8.997  -0.736  -2.201  0.00  0.00    +0.165 A 
ATOM     14  C   UNL     1       9.227  -1.318  -0.958  0.00  0.00    +0.162 A 
ATOM     15  C   UNL     1       8.289  -2.180  -0.418  0.00  0.00    +0.060 A 
ATOM     16  C   UNL     1       7.122  -2.467  -1.109  0.00  0.00    +0.040 A 
ATOM     17  C   UNL     1       6.120  -3.420  -0.487  0.00  0.00    +0.197 C 
ATOM     18  C   UNL     1       6.012  -3.156   0.984  0.00  0.00    +0.210 C 
ATOM     19  O   UNL     1       6.620  -3.830   1.790  0.00  0.00    -0.288 OA
ENDROOT
BRANCH  17  20
ATOM     20  O   UNL     1       6.548  -4.766  -0.706  0.00  0.00    -0.373 OA
ATOM     21  H   UNL     1       7.408  -4.974  -0.315  0.00  0.00    +0.211 HD
ENDBRANCH  17  20
BRANCH  14  22
ATOM     22  O   UNL     1      10.371  -1.041  -0.275  0.00  0.00    -0.491 OA
ATOM     23  C   UNL     1      10.539  -1.675   0.995  0.00  0.00    +0.277 C 
ENDBRANCH  14  22
BRANCH  13  24
ATOM     24  O   UNL     1       9.916   0.111  -2.737  0.00  0.00    -0.491 OA
ATOM     25  C   UNL     1       9.614   0.670  -4.016  0.00  0.00    +0.277 C 
ENDBRANCH  13  24
BRANCH   4  26
ATOM     26  O   UNL     1       5.997  -2.150   3.639  0.00  0.00    -0.506 OA
ATOM     27  H   UNL     1       5.637  -2.911   4.116  0.00  0.00    +0.292 HD
ENDBRANCH   4  26
BRANCH   2  28
ATOM     28  O   UNL     1       2.546   0.935   2.573  0.00  0.00    -0.495 OA
ATOM     29  C   UNL     1       2.603   1.347   3.940  0.00  0.00    +0.277 C 
ENDBRANCH   2  28
BRANCH   1  30
ATOM     30  C   UNL     1       2.437   0.124  -0.120  0.00  0.00    +0.069 C 
BRANCH  30  33
ATOM     31  C   UNL     1      -0.011   1.490   0.181  0.00  0.00    +0.038 C 
ATOM     32  C   UNL     1       0.008  -0.014   0.087  0.00  0.00    -0.079 C 
ATOM     33  C   UNL     1       1.140  -0.643  -0.111  0.00  0.00    -0.023 C 
ATOM     34  C   UNL     1      -1.274  -0.794   0.221  0.00  0.00    +0.038 C 
ENDBRANCH  30  33
ENDBRANCH   1  30
TORSDOF 7
