REMARK  Name = ZINC39935120
REMARK  4 active torsions:
REMARK  status: ('A' for Active; 'I' for Inactive)
REMARK    1  A    between atoms: N_15  and  N_16
REMARK    2  A    between atoms: C_17  and  C_18
REMARK    3  A    between atoms: C_21  and  O_25
REMARK    4  A    between atoms: C_22  and  O_24
REMARK                            x       y       z     vdW  Elec       q    Type
REMARK                         _______ _______ _______ _____ _____    ______ ____
ROOT
ATOM      1  C   UNL     1      -0.016   1.352   0.009  0.00  0.00    +0.001 A 
ATOM      2  C   UNL     1       1.164   2.103   0.002  0.00  0.00    +0.002 A 
ATOM      3  C   UNL     1       2.383   1.514  -0.019  0.00  0.00    +0.026 A 
ATOM      4  C   UNL     1       2.486   0.098  -0.035  0.00  0.00    +0.046 A 
ATOM      5  N   UNL     1       3.535  -0.702  -0.015  0.00  0.00    -0.361 N 
ATOM      6  C   UNL     1       3.081  -2.067  -0.196  0.00  0.00    +0.220 C 
ATOM      7  C   UNL     1       1.573  -2.032  -0.012  0.00  0.00    +0.113 C 
ATOM      8  C   UNL     1       1.234  -0.692  -0.014  0.00  0.00    +0.025 A 
ATOM      9  C   UNL     1       0.002  -0.004   0.002  0.00  0.00    +0.012 A 
ATOM     10  N   UNL     1       0.866  -3.121   0.260  0.00  0.00    -0.147 NA
ATOM     11  N   UNL     1       1.498  -4.188   0.624  0.00  0.00    -0.113 NA
ATOM     12  C   UNL     1       2.809  -4.206   0.885  0.00  0.00    +0.231 C 
ATOM     13  N   UNL     1       3.576  -3.037   0.785  0.00  0.00    -0.288 N 
ATOM     14  N   UNL     1       3.391  -5.342   1.241  0.00  0.00    -0.247 N 
ATOM     15  H   UNL     1       4.457  -0.424   0.101  0.00  0.00    +0.162 HD
ATOM     16  H   UNL     1       4.369  -2.881   1.322  0.00  0.00    +0.151 HD
ATOM     17  H   UNL     1       2.866  -6.154   1.311  0.00  0.00    +0.192 HD
ENDROOT
BRANCH  14  18
ATOM     18  N   UNL     1       4.656  -5.367   1.495  0.00  0.00    -0.179 NA
ATOM     19  C   UNL     1       5.234  -6.495   1.848  0.00  0.00    +0.140 C 
BRANCH  19  20
ATOM     20  C   UNL     1       6.669  -6.523   2.136  0.00  0.00    -0.002 A 
ATOM     21  C   UNL     1       7.429  -5.348   2.041  0.00  0.00    +0.013 A 
ATOM     22  C   UNL     1       8.778  -5.378   2.312  0.00  0.00    +0.050 A 
ATOM     23  C   UNL     1       9.390  -6.571   2.680  0.00  0.00    +0.158 A 
ATOM     24  C   UNL     1       8.642  -7.745   2.778  0.00  0.00    +0.159 A 
ATOM     25  C   UNL     1       7.288  -7.724   2.513  0.00  0.00    +0.058 A 
BRANCH  24  26
ATOM     26  O   UNL     1       9.246  -8.909   3.138  0.00  0.00    -0.503 OA
ATOM     27  H   UNL     1       9.254  -9.069   4.091  0.00  0.00    +0.292 HD
ENDBRANCH  24  26
BRANCH  23  28
ATOM     28  O   UNL     1      10.722  -6.594   2.946  0.00  0.00    -0.503 OA
ATOM     29  H   UNL     1      10.941  -6.424   3.872  0.00  0.00    +0.292 HD
ENDBRANCH  23  28
ENDBRANCH  19  20
ENDBRANCH  14  18
TORSDOF 4
