REMARK  Name = ZINC08998634
REMARK  13 active torsions:
REMARK  status: ('A' for Active; 'I' for Inactive)
REMARK    1  A    between atoms: C_1  and  C_2
REMARK    2  A    between atoms: C_2  and  O_3
REMARK    3  A    between atoms: O_3  and  C_4
REMARK    4  A    between atoms: C_4  and  C_5
REMARK    5  A    between atoms: C_5  and  N_6
REMARK    6  A    between atoms: C_10  and  S_28
REMARK    7  A    between atoms: N_15  and  C_16
REMARK    8  A    between atoms: C_16  and  C_18
REMARK    9  A    between atoms: C_21  and  C_24
REMARK   10  A    between atoms: C_24  and  C_25
REMARK   11  A    between atoms: C_24  and  C_26
REMARK   12  A    between atoms: C_24  and  C_27
REMARK   13  A    between atoms: S_28  and  N_31
REMARK                            x       y       z     vdW  Elec       q    Type
REMARK                         _______ _______ _______ _____ _____    ______ ____
ROOT
ATOM      1  N   UNL     1      -0.235   1.244   4.841  0.00  0.00    -0.319 N 
ATOM      2  C   UNL     1      -0.620   0.056   5.435  0.00  0.00    +0.058 A 
ATOM      3  C   UNL     1      -1.578  -0.869   4.990  0.00  0.00    +0.029 A 
ATOM      4  C   UNL     1      -1.836  -2.013   5.707  0.00  0.00    +0.030 A 
ATOM      5  C   UNL     1      -1.159  -2.292   6.882  0.00  0.00    +0.106 A 
ATOM      6  C   UNL     1      -0.205  -1.400   7.341  0.00  0.00    +0.045 A 
ATOM      7  C   UNL     1       0.053  -0.255   6.625  0.00  0.00    +0.041 A 
ATOM      8  S   UNL     1       1.157   1.119   6.840  0.00  0.00    -0.052 S 
ATOM      9  C   UNL     1       0.724   2.016   5.420  0.00  0.00    +0.167 A 
ATOM     10  N   UNL     1       1.212   3.178   4.999  0.00  0.00    -0.152 NA
ENDROOT
BRANCH   5  11
ATOM     11  S   UNL     1      -1.506  -3.765   7.783  0.00  0.00    +0.056 S 
ATOM     12  O   UNL     1      -2.049  -4.692   6.852  0.00  0.00    -0.153 OA
ATOM     13  O   UNL     1      -0.349  -4.052   8.556  0.00  0.00    -0.153 OA
BRANCH  11  14
ATOM     14  N   UNL     1      -2.716  -3.409   8.857  0.00  0.00    -0.204 NA
ATOM     15  H   UNL     1      -3.343  -4.098   9.127  0.00  0.00    +0.144 HD
ATOM     16  H   UNL     1      -2.797  -2.512   9.215  0.00  0.00    +0.144 HD
ENDBRANCH  11  14
ENDBRANCH   5  11
BRANCH  10  17
ATOM     17  C   UNL     1       2.161   3.800   5.706  0.00  0.00    +0.269 C 
ATOM     18  O   UNL     1       2.579   3.300   6.736  0.00  0.00    -0.268 OA
BRANCH  17  19
ATOM     19  C   UNL     1       2.705   5.095   5.236  0.00  0.00    +0.039 A 
ATOM     20  C   UNL     1       2.233   5.666   4.054  0.00  0.00    +0.013 A 
ATOM     21  C   UNL     1       2.740   6.875   3.625  0.00  0.00    +0.005 A 
ATOM     22  C   UNL     1       3.723   7.516   4.359  0.00  0.00    -0.042 A 
ATOM     23  C   UNL     1       4.199   6.952   5.529  0.00  0.00    +0.005 A 
ATOM     24  C   UNL     1       3.696   5.746   5.971  0.00  0.00    +0.013 A 
BRANCH  22  25
ATOM     25  C   UNL     1       4.277   8.833   3.881  0.00  0.00    -0.013 C 
ATOM     26  C   UNL     1       5.782   8.697   3.642  0.00  0.00    +0.015 C 
ATOM     27  C   UNL     1       3.588   9.233   2.574  0.00  0.00    +0.015 C 
ATOM     28  C   UNL     1       4.024   9.907   4.940  0.00  0.00    +0.015 C 
ENDBRANCH  22  25
ENDBRANCH  17  19
ENDBRANCH  10  17
BRANCH   1  29
ATOM     29  C   UNL     1      -0.864   1.675   3.590  0.00  0.00    +0.152 C 
BRANCH  29  30
ATOM     30  C   UNL     1      -0.068   1.127   2.404  0.00  0.00    +0.181 C 
BRANCH  30  31
ATOM     31  O   UNL     1      -0.682   1.547   1.184  0.00  0.00    -0.378 OA
BRANCH  31  33
ATOM     32  C   UNL     1      -0.753   1.593  -1.232  0.00  0.00    +0.034 C 
ATOM     33  C   UNL     1      -0.013   1.086   0.008  0.00  0.00    +0.156 C 
ENDBRANCH  31  33
ENDBRANCH  30  31
ENDBRANCH  29  30
ENDBRANCH   1  29
TORSDOF 9
