REMARK  Name = ZINC13408221
REMARK  8 active torsions:
REMARK  status: ('A' for Active; 'I' for Inactive)
REMARK    1  A    between atoms: C_1  and  O_2
REMARK    2  A    between atoms: O_2  and  C_3
REMARK    3  A    between atoms: C_6  and  C_9
REMARK    4  A    between atoms: C_12  and  C_14
REMARK    5  A    between atoms: C_14  and  C_24
REMARK    6  A    between atoms: N_15  and  N_16
REMARK    7  A    between atoms: N_16  and  C_17
REMARK    8  A    between atoms: C_20  and  O_23
REMARK                            x       y       z     vdW  Elec       q    Type
REMARK                         _______ _______ _______ _____ _____    ______ ____
ROOT
ATOM      1  C   UNL     1      -2.396   4.111  -0.063  0.00  0.00    +0.190 C 
ATOM      2  N   UNL     1      -1.269   3.496   0.215  0.00  0.00    -0.169 NA
ENDROOT
BRANCH   1   6
ATOM      3  C   UNL     1      -5.936   2.985  -0.200  0.00  0.00    +0.079 A 
ATOM      4  C   UNL     1      -5.727   1.648   0.014  0.00  0.00    +0.075 A 
ATOM      5  S   UNL     1      -3.946   1.611   0.171  0.00  0.00    -0.073 S 
ATOM      6  C   UNL     1      -3.666   3.361  -0.062  0.00  0.00    +0.139 A 
ATOM      7  N   UNL     1      -4.903   3.807  -0.226  0.00  0.00    -0.237 NA
BRANCH   3  11
ATOM      8  C   UNL     1      -9.881   4.478  -0.752  0.00  0.00    +0.120 A 
ATOM      9  C   UNL     1      -8.799   5.348  -0.789  0.00  0.00    +0.046 A 
ATOM     10  C   UNL     1      -7.519   4.867  -0.610  0.00  0.00    +0.013 A 
ATOM     11  C   UNL     1      -7.312   3.506  -0.393  0.00  0.00    +0.001 A 
ATOM     12  C   UNL     1      -8.399   2.634  -0.363  0.00  0.00    +0.013 A 
ATOM     13  C   UNL     1      -9.677   3.122  -0.536  0.00  0.00    +0.046 A 
BRANCH   8  15
ATOM     14  C   UNL     1     -12.207   4.005  -0.879  0.00  0.00    +0.277 C 
ATOM     15  O   UNL     1     -11.141   4.955  -0.929  0.00  0.00    -0.495 OA
ENDBRANCH   8  15
ENDBRANCH   3  11
ENDBRANCH   1   6
BRANCH   2  16
ATOM     16  N   UNL     1      -1.289   2.173   0.676  0.00  0.00    -0.237 N 
ATOM     17  H   UNL     1      -2.134   1.745   0.886  0.00  0.00    +0.174 HD
BRANCH  16  18
ATOM     18  C   UNL     1      -0.092   1.471   0.835  0.00  0.00    +0.049 A 
ATOM     19  C   UNL     1       1.118   2.082   0.529  0.00  0.00    +0.028 A 
ATOM     20  C   UNL     1       2.300   1.385   0.681  0.00  0.00    +0.047 A 
ATOM     21  C   UNL     1       2.280   0.075   1.138  0.00  0.00    +0.117 A 
ATOM     22  C   UNL     1       1.072  -0.536   1.444  0.00  0.00    +0.047 A 
ATOM     23  C   UNL     1      -0.111   0.159   1.293  0.00  0.00    +0.028 A 
BRANCH  21  24
ATOM     24  O   UNL     1       3.444  -0.611   1.288  0.00  0.00    -0.507 OA
ATOM     25  H   UNL     1       3.717  -1.099   0.499  0.00  0.00    +0.292 HD
ENDBRANCH  21  24
ENDBRANCH  16  18
ENDBRANCH   2  16
BRANCH   1  26
ATOM     26  C   UNL     1      -2.391   5.511  -0.368  0.00  0.00    +0.123 C 
ATOM     27  N   UNL     1      -2.387   6.620  -0.610  0.00  0.00    -0.189 NA
ENDBRANCH   1  26
TORSDOF 7
