REMARK  Name = ZINC11789884
REMARK  9 active torsions:
REMARK  status: ('A' for Active; 'I' for Inactive)
REMARK    1  A    between atoms: C_1  and  O_2
REMARK    2  A    between atoms: O_2  and  C_3
REMARK    3  A    between atoms: C_6  and  S_9
REMARK    4  A    between atoms: S_9  and  C_10
REMARK    5  A    between atoms: C_13  and  C_23
REMARK    6  A    between atoms: C_16  and  C_17
REMARK    7  A    between atoms: C_16  and  N_68
REMARK    8  A    between atoms: N_25  and  C_26
REMARK    9  A    between atoms: C_26  and  C_27
REMARK                            x       y       z     vdW  Elec       q    Type
REMARK                         _______ _______ _______ _____ _____    ______ ____
ROOT
ATOM      1  C   UNL     1      -4.462   2.913   4.846  0.00  0.00    +0.034 C 
ATOM      2  C   UNL     1      -3.319   2.478   3.905  0.00  0.00    +0.006 C 
ATOM      3  C   UNL     1      -2.984   3.736   3.074  0.00  0.00    +0.020 C 
ATOM      4  C   UNL     1      -4.721   4.396   4.504  0.00  0.00    -0.063 C 
ATOM      5  N   UNL     1      -4.216   4.529   3.139  0.00  0.00    +0.388 N 
ATOM      6  H   UNL     1      -4.907   4.161   2.473  0.00  0.00    -0.081 HD
ENDROOT
BRANCH   3   7
ATOM      7  C   UNL     1      -2.650   3.354   1.655  0.00  0.00    +0.200 C 
ATOM      8  O   UNL     1      -3.347   3.745   0.742  0.00  0.00    -0.278 OA
ATOM      9  N   UNL     1      -1.577   2.580   1.400  0.00  0.00    -0.311 N 
ATOM     10  H   UNL     1      -1.020   2.268   2.130  0.00  0.00    +0.149 HD
BRANCH   9  11
ATOM     11  C   UNL     1      -1.252   2.209   0.020  0.00  0.00    +0.161 C 
BRANCH  11  12
ATOM     12  C   UNL     1      -0.016   1.347   0.009  0.00  0.00    +0.077 A 
ATOM     13  C   UNL     1       0.002  -0.004   0.002  0.00  0.00    +0.117 A 
ATOM     14  N   UNL     1       1.315  -0.390  -0.013  0.00  0.00    -0.306 N 
ATOM     15  C   UNL     1       1.917  -1.615  -0.025  0.00  0.00    +0.092 A 
ATOM     16  C   UNL     1       3.262  -1.720  -0.039  0.00  0.00    +0.018 A 
ATOM     17  C   UNL     1       4.062  -0.566  -0.040  0.00  0.00    +0.005 A 
ATOM     18  C   UNL     1       3.475   0.661  -0.028  0.00  0.00    +0.047 A 
ATOM     19  C   UNL     1       2.069   0.754  -0.014  0.00  0.00    +0.138 A 
ATOM     20  N   UNL     1       1.243   1.790  -0.000  0.00  0.00    -0.231 NA
ENDBRANCH  11  12
ENDBRANCH   9  11
ENDBRANCH   3   7
BRANCH   1  21
ATOM     21  S   UNL     1      -3.950   2.745   6.578  0.00  0.00    -0.124 S 
BRANCH  21  25
ATOM     22  C   UNL     1      -7.690   3.749   8.929  0.00  0.00    +0.120 A 
ATOM     23  C   UNL     1      -6.521   3.414   9.596  0.00  0.00    +0.047 A 
ATOM     24  C   UNL     1      -5.381   3.108   8.881  0.00  0.00    +0.018 A 
ATOM     25  C   UNL     1      -5.404   3.135   7.492  0.00  0.00    +0.008 A 
ATOM     26  C   UNL     1      -6.574   3.476   6.825  0.00  0.00    +0.018 A 
ATOM     27  C   UNL     1      -7.715   3.777   7.543  0.00  0.00    +0.047 A 
BRANCH  22  29
ATOM     28  C   UNL     1      -9.981   4.387   8.883  0.00  0.00    +0.277 C 
ATOM     29  O   UNL     1      -8.813   4.051   9.635  0.00  0.00    -0.495 OA
ENDBRANCH  22  29
ENDBRANCH  21  25
ENDBRANCH   1  21
BRANCH   5  30
ATOM     30  C   UNL     1      -3.933   5.963   2.812  0.00  0.00    -0.074 C 
BRANCH  30  31
ATOM     31  C   UNL     1      -5.246   6.723   2.615  0.00  0.00    -0.028 C 
ATOM     32  C   UNL     1      -5.967   6.184   1.377  0.00  0.00    +0.002 C 
ATOM     33  C   UNL     1      -7.280   6.944   1.180  0.00  0.00    +0.000 C 
ATOM     34  C   UNL     1      -6.984   8.434   0.990  0.00  0.00    +0.000 C 
ATOM     35  C   UNL     1      -6.263   8.972   2.228  0.00  0.00    +0.000 C 
ATOM     36  C   UNL     1      -4.950   8.212   2.425  0.00  0.00    +0.002 C 
ENDBRANCH  30  31
ENDBRANCH   5  30
TORSDOF 8
