REMARK  Name = ZINC50481404
REMARK  10 active torsions:
REMARK  status: ('A' for Active; 'I' for Inactive)
REMARK    1  A    between atoms: C_1  and  C_2
REMARK    2  A    between atoms: C_2  and  C_3
REMARK    3  A    between atoms: C_3  and  C_4
REMARK    4  A    between atoms: C_4  and  O_5
REMARK    5  A    between atoms: O_5  and  C_6
REMARK    6  A    between atoms: C_6  and  C_7
REMARK    7  A    between atoms: C_7  and  O_8
REMARK    8  A    between atoms: O_8  and  C_9
REMARK    9  A    between atoms: C_9  and  C_11
REMARK   10  A    between atoms: C_9  and  C_13
REMARK                            x       y       z     vdW  Elec       q    Type
REMARK                         _______ _______ _______ _____ _____    ______ ____
ROOT
ATOM      1  C   UNL     1       4.347  -4.148  -4.923  0.00  0.00    +0.160 C 
ENDROOT
BRANCH   1   2
ATOM      2  C   UNL     1       5.412  -3.097  -5.104  0.00  0.00    -0.004 A 
ATOM      3  C   UNL     1       5.868  -2.380  -4.015  0.00  0.00    +0.007 A 
ATOM      4  C   UNL     1       6.845  -1.416  -4.181  0.00  0.00    +0.000 A 
ATOM      5  C   UNL     1       7.367  -1.170  -5.438  0.00  0.00    +0.001 A 
ATOM      6  C   UNL     1       6.911  -1.887  -6.528  0.00  0.00    +0.015 A 
ATOM      7  C   UNL     1       5.937  -2.855  -6.361  0.00  0.00    +0.024 A 
ATOM      8 BR   UNL     1       5.318  -3.841  -7.851  0.00  0.00    -0.050 Br
ENDBRANCH   1   2
BRANCH   1   9
ATOM      9  C   UNL     1       5.006  -5.518  -4.750  0.00  0.00    +0.116 C 
ATOM     10 BR   UNL     1       3.618  -6.908  -4.674  0.00  0.00    -0.089 Br
ENDBRANCH   1   9
BRANCH   1  11
ATOM     11  O   UNL     1       3.571  -3.844  -3.762  0.00  0.00    -0.369 OA
BRANCH  11  12
ATOM     12  C   UNL     1       2.215  -4.289  -3.836  0.00  0.00    +0.188 C 
BRANCH  12  13
ATOM     13  C   UNL     1       1.483  -3.911  -2.547  0.00  0.00    +0.188 C 
BRANCH  13  14
ATOM     14  O   UNL     1       1.408  -2.488  -2.441  0.00  0.00    -0.377 OA
BRANCH  14  15
ATOM     15  C   UNL     1       0.739  -2.027  -1.265  0.00  0.00    +0.160 C 
BRANCH  15  16
ATOM     16  C   UNL     1       0.718  -0.497  -1.257  0.00  0.00    +0.028 C 
BRANCH  16  18
ATOM     17  C   UNL     1      -0.019   1.526   0.010  0.00  0.00    +0.004 C 
ATOM     18  C   UNL     1       0.002  -0.004   0.002  0.00  0.00    -0.001 C 
ENDBRANCH  16  18
ENDBRANCH  15  16
ENDBRANCH  14  15
ENDBRANCH  13  14
ENDBRANCH  12  13
ENDBRANCH  11  12
ENDBRANCH   1  11
TORSDOF 9
