REMARK  Name = ZINC33059716
REMARK  3 active torsions:
REMARK  status: ('A' for Active; 'I' for Inactive)
REMARK    1  A    between atoms: C_1  and  C_2
REMARK    2  A    between atoms: N_14  and  C_17
REMARK    3  A    between atoms: C_17  and  C_18
REMARK                            x       y       z     vdW  Elec       q    Type
REMARK                         _______ _______ _______ _____ _____    ______ ____
ROOT
ATOM      1  C   UNL     1      -0.100  -7.363  -9.414  0.00  0.00    +0.008 C 
ATOM      2  C   UNL     1       0.628  -7.260  -8.072  0.00  0.00    -0.009 C 
ATOM      3  C   UNL     1       1.985  -6.574  -8.271  0.00  0.00    +0.010 C 
ATOM      4  C   UNL     1       2.787  -6.705  -6.979  0.00  0.00    +0.056 C 
ATOM      5  C   UNL     1       1.972  -6.237  -5.798  0.00  0.00    +0.047 A 
ATOM      6  C   UNL     1       0.596  -6.113  -5.859  0.00  0.00    -0.025 A 
ATOM      7  C   UNL     1      -0.104  -5.686  -4.738  0.00  0.00    +0.022 A 
ATOM      8  C   UNL     1       0.613  -5.395  -3.581  0.00  0.00    +0.084 A 
ATOM      9  C   UNL     1       2.019  -5.540  -3.584  0.00  0.00    +0.167 A 
ATOM     10  N   UNL     1       2.632  -5.951  -4.685  0.00  0.00    -0.232 NA
ATOM     11  N   UNL     1       2.705  -5.251  -2.451  0.00  0.00    -0.218 NA
ATOM     12  C   UNL     1       2.103  -4.850  -1.371  0.00  0.00    +0.204 A 
ATOM     13  N   UNL     1       0.759  -4.685  -1.280  0.00  0.00    -0.293 N 
ATOM     14  C   UNL     1      -0.038  -4.944  -2.343  0.00  0.00    +0.263 A 
ATOM     15  O   UNL     1      -1.245  -4.805  -2.278  0.00  0.00    -0.267 OA
ATOM     16  C   UNL     1      -0.197  -6.418  -7.102  0.00  0.00    +0.040 C 
ENDROOT
BRANCH  13  17
ATOM     17  C   UNL     1       0.167  -4.229  -0.020  0.00  0.00    +0.181 C 
BRANCH  17  18
ATOM     18  C   UNL     1       0.100  -2.724  -0.012  0.00  0.00    +0.069 A 
ATOM     19  C   UNL     1      -1.126  -2.087   0.002  0.00  0.00    +0.095 A 
ATOM     20  C   UNL     1      -1.162  -0.688   0.009  0.00  0.00    +0.259 A 
ATOM     21  O   UNL     1      -2.229  -0.096   0.023  0.00  0.00    -0.267 OA
ATOM     22  N   UNL     1       0.002  -0.004   0.002  0.00  0.00    -0.268 N 
ATOM     23  C   UNL     1      -0.016   1.358   0.009  0.00  0.00    +0.096 A 
ATOM     24  C   UNL     1       1.136   2.064   0.002  0.00  0.00    +0.018 A 
ATOM     25  C   UNL     1       2.370   1.399  -0.014  0.00  0.00    +0.005 A 
ATOM     26  C   UNL     1       2.400   0.037  -0.020  0.00  0.00    +0.047 A 
ATOM     27  C   UNL     1       1.190  -0.681  -0.013  0.00  0.00    +0.141 A 
ATOM     28  N   UNL     1       1.216  -2.013  -0.019  0.00  0.00    -0.232 NA
ENDBRANCH  17  18
ENDBRANCH  13  17
TORSDOF 2
