REMARK  Name = ZINC64966598
REMARK  6 active torsions:
REMARK  status: ('A' for Active; 'I' for Inactive)
REMARK    1  A    between atoms: C_6  and  S_7
REMARK    2  A    between atoms: S_7  and  N_10
REMARK    3  A    between atoms: N_15  and  C_25
REMARK    4  A    between atoms: C_25  and  C_26
REMARK    5  A    between atoms: N_28  and  C_29
REMARK    6  A    between atoms: C_29  and  C_30
REMARK                            x       y       z     vdW  Elec       q    Type
REMARK                         _______ _______ _______ _____ _____    ______ ____
ROOT
ATOM      1  C   UNL     1      -0.017   1.378   0.010  0.00  0.00    +0.030 A 
ATOM      2  C   UNL     1       1.169   2.091   0.002  0.00  0.00    +0.027 A 
ATOM      3  C   UNL     1       2.378   1.414  -0.010  0.00  0.00    +0.052 A 
ATOM      4  C   UNL     1       2.398   0.022  -0.008  0.00  0.00    +0.060 A 
ATOM      5  C   UNL     1       1.206  -0.685  -0.008  0.00  0.00    +0.054 A 
ATOM      6  C   UNL     1       0.002  -0.004   0.002  0.00  0.00    +0.107 A 
ATOM      7  N   UNL     1       3.624  -0.652   0.010  0.00  0.00    -0.259 N 
ATOM      8  C   UNL     1       4.766   0.008  -0.241  0.00  0.00    +0.241 C 
ATOM      9  O   UNL     1       5.812  -0.605  -0.235  0.00  0.00    -0.273 OA
ATOM     10  C   UNL     1       4.789   1.487  -0.529  0.00  0.00    +0.160 C 
ATOM     11  N   UNL     1       3.587   2.135  -0.032  0.00  0.00    -0.317 N 
ATOM     12  C   UNL     1       3.543   3.527   0.416  0.00  0.00    +0.106 C 
ATOM     13  C   UNL     1       4.846   3.928   1.101  0.00  0.00    +0.019 C 
ATOM     14  C   UNL     1       6.008   3.585   0.161  0.00  0.00    +0.004 C 
ATOM     15  C   UNL     1       6.082   2.070   0.017  0.00  0.00    +0.032 C 
ENDROOT
BRANCH   6  16
ATOM     16  S   UNL     1      -1.514  -0.902   0.005  0.00  0.00    +0.061 S 
ATOM     17  O   UNL     1      -1.226  -2.183   0.547  0.00  0.00    -0.153 OA
ATOM     18  O   UNL     1      -2.495  -0.040   0.566  0.00  0.00    -0.153 OA
BRANCH  16  19
ATOM     19  N   UNL     1      -1.944  -1.143  -1.576  0.00  0.00    -0.177 NA
ATOM     20  C   UNL     1      -2.769  -0.236  -2.387  0.00  0.00    +0.109 C 
ATOM     21  C   UNL     1      -2.925  -0.882  -3.780  0.00  0.00    +0.018 C 
ATOM     22  C   UNL     1      -2.652  -2.383  -3.500  0.00  0.00    +0.018 C 
ATOM     23  C   UNL     1      -1.556  -2.299  -2.405  0.00  0.00    +0.109 C 
ENDBRANCH  16  19
ENDBRANCH   6  16
BRANCH   7  24
ATOM     24  C   UNL     1       3.663  -2.087   0.304  0.00  0.00    +0.209 C 
BRANCH  24  25
ATOM     25  C   UNL     1       3.538  -2.866  -0.979  0.00  0.00    +0.231 C 
ATOM     26  O   UNL     1       3.428  -2.281  -2.036  0.00  0.00    -0.274 OA
ATOM     27  N   UNL     1       3.550  -4.214  -0.953  0.00  0.00    -0.312 N 
ATOM     28  H   UNL     1       3.638  -4.682  -0.107  0.00  0.00    +0.149 HD
BRANCH  27  29
ATOM     29  C   UNL     1       3.428  -4.972  -2.200  0.00  0.00    +0.135 C 
BRANCH  29  30
ATOM     30  C   UNL     1       3.469  -6.470  -1.893  0.00  0.00    +0.135 C 
ATOM     31  C   UNL     1       3.463  -7.276  -3.210  0.00  0.00    +0.035 C 
ATOM     32  C   UNL     1       2.539  -8.474  -2.860  0.00  0.00    +0.031 C 
ATOM     33  C   UNL     1       1.528  -7.795  -1.901  0.00  0.00    +0.160 C 
ATOM     34  O   UNL     1       2.303  -6.845  -1.149  0.00  0.00    -0.375 OA
ENDBRANCH  29  30
ENDBRANCH  27  29
ENDBRANCH  24  25
ENDBRANCH   7  24
TORSDOF 6
