REMARK  Name = ZINC15834171
REMARK  6 active torsions:
REMARK  status: ('A' for Active; 'I' for Inactive)
REMARK    1  A    between atoms: C_1  and  C_2
REMARK    2  A    between atoms: C_5  and  C_8
REMARK    3  A    between atoms: C_20  and  C_22
REMARK    4  A    between atoms: C_27  and  O_28
REMARK    5  A    between atoms: N_30  and  C_37
REMARK    6  A    between atoms: N_33  and  C_36
REMARK                            x       y       z     vdW  Elec       q    Type
REMARK                         _______ _______ _______ _____ _____    ______ ____
ROOT
ATOM      1  C   UNL     1      -0.905   2.239  -0.522  0.00  0.00    +0.069 A 
ATOM      2  C   UNL     1      -0.322   3.479  -0.606  0.00  0.00    +0.089 A 
ATOM      3  C   UNL     1       1.124   3.286  -0.325  0.00  0.00    +0.082 A 
ATOM      4  C   UNL     1       1.296   1.993  -0.097  0.00  0.00    +0.073 A 
ATOM      5  N   UNL     1       0.076   1.344  -0.226  0.00  0.00    -0.306 N 
ATOM      6  C   UNL     1      -0.031  -0.045  -0.065  0.00  0.00    +0.068 A 
ATOM      7  C   UNL     1      -1.258  -0.675   0.012  0.00  0.00    +0.028 A 
ATOM      8  C   UNL     1      -1.316  -2.047   0.186  0.00  0.00    +0.002 A 
ATOM      9  C   UNL     1      -0.150  -2.786   0.275  0.00  0.00    +0.002 A 
ATOM     10  C   UNL     1       1.081  -2.164   0.179  0.00  0.00    +0.025 A 
ATOM     11  C   UNL     1       1.150  -0.792  -0.003  0.00  0.00    +0.052 A 
ATOM     12  N   UNL     1       2.388  -0.158  -0.156  0.00  0.00    -0.330 N 
ATOM     13  C   UNL     1       2.559   1.241   0.265  0.00  0.00    +0.154 C 
ATOM     14  N   UNL     1       1.972   4.403  -0.350  0.00  0.00    -0.294 N 
ATOM     15  C   UNL     1       1.410   5.601  -0.630  0.00  0.00    +0.332 A 
ATOM     16  O   UNL     1       2.146   6.569  -0.651  0.00  0.00    -0.246 OA
ATOM     17  N   UNL     1       0.115   5.810  -0.885  0.00  0.00    -0.263 N 
ATOM     18  C   UNL     1      -0.821   4.827  -0.897  0.00  0.00    +0.266 A 
ATOM     19  O   UNL     1      -1.994   5.048  -1.133  0.00  0.00    -0.267 OA
ATOM     20  C   UNL     1      -0.319   7.180  -1.168  0.00  0.00    +0.157 C 
ATOM     21  C   UNL     1       3.406   4.278  -0.081  0.00  0.00    +0.154 C 
ATOM     22  H   UNL     1       3.136  -0.642  -0.541  0.00  0.00    +0.147 HD
ENDROOT
BRANCH   1  27
ATOM     23  C   UNL     1      -6.480   1.046  -1.284  0.00  0.00    +0.044 C 
ATOM     24  C   UNL     1      -5.020   1.359  -1.084  0.00  0.00    -0.050 A 
ATOM     25  C   UNL     1      -4.636   2.267  -0.113  0.00  0.00    +0.004 A 
ATOM     26  C   UNL     1      -3.301   2.558   0.075  0.00  0.00    +0.010 A 
ATOM     27  C   UNL     1      -2.335   1.933  -0.718  0.00  0.00    -0.000 A 
ATOM     28  C   UNL     1      -2.730   1.021  -1.700  0.00  0.00    +0.010 A 
ATOM     29  C   UNL     1      -4.068   0.736  -1.873  0.00  0.00    +0.004 A 
ENDBRANCH   1  27
BRANCH  13  30
ATOM     30  C   UNL     1       2.779   1.302   1.755  0.00  0.00    +0.021 A 
ATOM     31  C   UNL     1       1.755   1.706   2.589  0.00  0.00    +0.029 A 
ATOM     32  C   UNL     1       1.955   1.757   3.957  0.00  0.00    +0.042 A 
ATOM     33  C   UNL     1       3.184   1.413   4.492  0.00  0.00    +0.023 A 
ATOM     34  C   UNL     1       4.212   1.013   3.660  0.00  0.00    +0.047 A 
ATOM     35  C   UNL     1       4.012   0.957   2.288  0.00  0.00    +0.122 A 
ATOM     36 CL   UNL     1       0.665   2.259   5.004  0.00  0.00    -0.084 Cl
BRANCH  35  37
ATOM     37  O   UNL     1       5.022   0.564   1.469  0.00  0.00    -0.506 OA
ATOM     38  H   UNL     1       5.627   1.277   1.220  0.00  0.00    +0.292 HD
ENDBRANCH  35  37
ENDBRANCH  13  30
TORSDOF 3
