REMARK  Name = ZINC53054887
REMARK  8 active torsions:
REMARK  status: ('A' for Active; 'I' for Inactive)
REMARK    1  A    between atoms: C_1  and  C_2
REMARK    2  A    between atoms: C_2  and  C_3
REMARK    3  A    between atoms: C_6  and  C_28
REMARK    4  A    between atoms: C_13  and  O_14
REMARK    5  A    between atoms: O_14  and  C_15
REMARK    6  A    between atoms: C_15  and  C_17
REMARK    7  A    between atoms: C_21  and  N_23
REMARK    8  A    between atoms: C_24  and  C_26
REMARK                            x       y       z     vdW  Elec       q    Type
REMARK                         _______ _______ _______ _____ _____    ______ ____
ROOT
ATOM      1  O   UNL     1       2.836  -0.309  -0.156  0.00  0.00    -0.422 OA
ENDROOT
BRANCH   1  12
ATOM      2  C   UNL     1       0.745  -0.525  -1.269  0.00  0.00    -0.004 A 
ATOM      3  C   UNL     1       0.024  -0.853  -2.381  0.00  0.00    +0.019 A 
ATOM      4  C   UNL     1       0.682  -1.317  -3.525  0.00  0.00    +0.021 A 
ATOM      5  C   UNL     1      -0.065  -1.676  -4.732  0.00  0.00    -0.033 A 
ATOM      6  C   UNL     1       0.632  -2.121  -5.810  0.00  0.00    +0.096 A 
ATOM      7  C   UNL     1       2.037  -2.225  -5.743  0.00  0.00    +0.337 A 
ATOM      8  O   UNL     1       2.650  -2.624  -6.717  0.00  0.00    -0.245 OA
ATOM      9  O   UNL     1       2.716  -1.894  -4.633  0.00  0.00    -0.422 OA
ATOM     10  C   UNL     1       2.084  -1.446  -3.527  0.00  0.00    +0.143 A 
ATOM     11  C   UNL     1       2.801  -1.109  -2.389  0.00  0.00    +0.093 A 
ATOM     12  C   UNL     1       2.133  -0.644  -1.268  0.00  0.00    +0.139 A 
ATOM     13  C   UNL     1      -1.567  -1.556  -4.777  0.00  0.00    +0.045 C 
BRANCH   2  15
ATOM     14  C   UNL     1       0.022   1.506  -0.043  0.00  0.00    +0.009 C 
ATOM     15  C   UNL     1       0.035  -0.024  -0.038  0.00  0.00    +0.035 C 
ENDBRANCH   2  15
ENDBRANCH   1  12
BRANCH   1  16
ATOM     16  C   UNL     1       2.891  -1.202   0.852  0.00  0.00    +0.345 C 
ATOM     17  O   UNL     1       2.400  -2.305   0.714  0.00  0.00    -0.245 OA
BRANCH  16  18
ATOM     18  C   UNL     1       3.548  -0.841   2.123  0.00  0.00    +0.061 A 
ATOM     19  C   UNL     1       4.109   0.429   2.286  0.00  0.00    +0.018 A 
ATOM     20  C   UNL     1       4.722   0.764   3.474  0.00  0.00    +0.041 A 
ATOM     21  C   UNL     1       4.786  -0.154   4.509  0.00  0.00    +0.145 A 
ATOM     22  C   UNL     1       4.231  -1.421   4.356  0.00  0.00    +0.070 A 
ATOM     23  C   UNL     1       3.607  -1.765   3.168  0.00  0.00    +0.041 A 
ATOM     24  F   UNL     1       5.389   0.181   5.671  0.00  0.00    -0.204 F 
BRANCH  22  25
ATOM     25  N   UNL     1       4.298  -2.348   5.404  0.00  0.00    -0.283 N 
ATOM     26  C   UNL     1       3.383  -3.333   5.493  0.00  0.00    +0.214 C 
ATOM     27  O   UNL     1       2.444  -3.360   4.726  0.00  0.00    -0.276 OA
ATOM     28  C   UNL     1       3.526  -4.402   6.546  0.00  0.00    +0.109 C 
ATOM     29  H   UNL     1       5.003  -2.279   6.067  0.00  0.00    +0.155 HD
ENDBRANCH  22  25
ENDBRANCH  16  18
ENDBRANCH   1  16
TORSDOF 5
