REMARK  Name = ZINC20181197
REMARK  13 active torsions:
REMARK  status: ('A' for Active; 'I' for Inactive)
REMARK    1  A    between atoms: C_1  and  C_2
REMARK    2  A    between atoms: C_2  and  C_3
REMARK    3  A    between atoms: C_3  and  C_4
REMARK    4  A    between atoms: C_4  and  N_5
REMARK    5  A    between atoms: N_5  and  C_6
REMARK    6  A    between atoms: N_5  and  C_8
REMARK    7  A    between atoms: C_6  and  C_7
REMARK    8  A    between atoms: C_8  and  C_9
REMARK    9  A    between atoms: C_9  and  C_10
REMARK   10  A    between atoms: C_10  and  N_11
REMARK   11  A    between atoms: C_12  and  C_14
REMARK   12  A    between atoms: C_14  and  N_15
REMARK   13  A    between atoms: C_24  and  C_25
REMARK                            x       y       z     vdW  Elec       q    Type
REMARK                         _______ _______ _______ _____ _____    ______ ____
ROOT
ATOM      1  N   UNL     1       3.528   2.291  -0.262  0.00  0.00    -0.257 N 
ATOM      2  C   UNL     1       3.710   3.618   0.104  0.00  0.00    +0.051 A 
ATOM      3  C   UNL     1       4.873   4.268  -0.305  0.00  0.00    +0.024 A 
ATOM      4  C   UNL     1       5.093   5.588   0.031  0.00  0.00    +0.002 A 
ATOM      5  C   UNL     1       4.162   6.286   0.779  0.00  0.00    +0.001 A 
ATOM      6  C   UNL     1       3.003   5.657   1.195  0.00  0.00    +0.017 A 
ATOM      7  C   UNL     1       2.778   4.331   0.861  0.00  0.00    +0.034 A 
ATOM      8  S   UNL     1       1.299   3.526   1.396  0.00  0.00    -0.082 S 
ATOM      9  C   UNL     1       1.119   2.266   0.161  0.00  0.00    +0.076 C 
ATOM     10  C   UNL     1      -0.093   1.909  -0.329  0.00  0.00    +0.031 C 
ATOM     11  C   UNL     1       2.370   1.627  -0.304  0.00  0.00    +0.258 C 
ATOM     12  O   UNL     1       2.343   0.487  -0.728  0.00  0.00    -0.269 OA
ENDROOT
BRANCH  10  13
ATOM     13  C   UNL     1      -1.318   2.466   0.264  0.00  0.00    +0.011 A 
ATOM     14  C   UNL     1      -1.368   2.757   1.631  0.00  0.00    +0.011 A 
ATOM     15  C   UNL     1      -2.519   3.283   2.178  0.00  0.00    +0.001 A 
ATOM     16  C   UNL     1      -3.627   3.514   1.381  0.00  0.00    +0.003 A 
ATOM     17  C   UNL     1      -3.590   3.225   0.029  0.00  0.00    +0.039 A 
ATOM     18  C   UNL     1      -2.443   2.702  -0.537  0.00  0.00    +0.131 A 
ATOM     19  F   UNL     1      -2.407   2.420  -1.857  0.00  0.00    -0.205 F 
ENDBRANCH  10  13
BRANCH   1  20
ATOM     20  C   UNL     1       4.729   1.543  -0.641  0.00  0.00    +0.209 C 
BRANCH  20  22
ATOM     21  N   UNL     1       5.968   1.004  -2.713  0.00  0.00    -0.314 N 
ATOM     22  C   UNL     1       4.920   1.623  -2.134  0.00  0.00    +0.231 C 
ATOM     23  O   UNL     1       4.131   2.244  -2.814  0.00  0.00    -0.274 OA
ATOM     24  H   UNL     1       6.684   0.441  -2.096  0.00  0.00    +0.149 HD
BRANCH  21  25
ATOM     25  C   UNL     1       6.154   1.083  -4.164  0.00  0.00    +0.102 C 
BRANCH  25  26
ATOM     26  C   UNL     1       7.409   0.301  -4.560  0.00  0.00    +0.000 C 
BRANCH  26  27
ATOM     27  C   UNL     1       7.603   0.383  -6.076  0.00  0.00    -0.077 C 
BRANCH  27  28
ATOM     28  N   UNL     1       8.807  -0.368  -6.456  0.00  0.00    +0.380 N 
ATOM     29  H   UNL     1       9.639  -0.012  -5.830  0.00  0.00    -0.082 HD
BRANCH  28  30
ATOM     30  C   UNL     1       8.634  -1.804  -6.202  0.00  0.00    -0.082 C 
ATOM     31  C   UNL     1       7.512  -2.347  -7.089  0.00  0.00    -0.017 C 
ENDBRANCH  28  30
BRANCH  28  32
ATOM     32  C   UNL     1       9.161  -0.120  -7.860  0.00  0.00    -0.079 C 
BRANCH  32  33
ATOM     33  C   UNL     1      10.594  -0.590  -8.116  0.00  0.00    -0.019 C 
BRANCH  33  35
ATOM     34  C   UNL     1      12.442  -0.681  -9.795  0.00  0.00    +0.004 C 
ATOM     35  C   UNL     1      11.009  -0.211  -9.539  0.00  0.00    -0.005 C 
ENDBRANCH  33  35
ENDBRANCH  32  33
ENDBRANCH  28  32
ENDBRANCH  27  28
ENDBRANCH  26  27
ENDBRANCH  25  26
ENDBRANCH  21  25
ENDBRANCH  20  22
ENDBRANCH   1  20
TORSDOF 11
