REMARK  Name = ZINC59830346
REMARK  11 active torsions:
REMARK  status: ('A' for Active; 'I' for Inactive)
REMARK    1  A    between atoms: C_1  and  C_2
REMARK    2  A    between atoms: C_2  and  C_3
REMARK    3  A    between atoms: C_12  and  C_13
REMARK    4  A    between atoms: C_13  and  C_15
REMARK    5  A    between atoms: C_15  and  C_17
REMARK    6  A    between atoms: C_15  and  N_23
REMARK    7  A    between atoms: N_23  and  C_24
REMARK    8  A    between atoms: C_27  and  N_30
REMARK    9  A    between atoms: N_30  and  S_31
REMARK   10  A    between atoms: S_31  and  C_34
REMARK   11  A    between atoms: C_34  and  C_35
REMARK                            x       y       z     vdW  Elec       q    Type
REMARK                         _______ _______ _______ _____ _____    ______ ____
ROOT
ATOM      1  C   UNL     1      -0.716  -1.833   7.190  0.00  0.00    +0.173 C 
ENDROOT
BRANCH   1   2
ATOM      2  C   UNL     1      -0.907  -0.398   7.611  0.00  0.00    -0.020 A 
ATOM      3  C   UNL     1      -0.106   0.144   8.599  0.00  0.00    +0.006 A 
ATOM      4  C   UNL     1      -0.281   1.460   8.985  0.00  0.00    +0.000 A 
ATOM      5  C   UNL     1      -1.256   2.233   8.384  0.00  0.00    +0.000 A 
ATOM      6  C   UNL     1      -2.057   1.691   7.395  0.00  0.00    +0.000 A 
ATOM      7  C   UNL     1      -1.879   0.376   7.006  0.00  0.00    +0.006 A 
ENDBRANCH   1   2
BRANCH   1   8
ATOM      8  C   UNL     1       0.456  -1.928   6.248  0.00  0.00    +0.190 C 
ATOM      9  O   UNL     1       1.512  -2.384   6.636  0.00  0.00    -0.290 OA
BRANCH   8  19
ATOM     10  C   UNL     1       1.512  -0.860   1.542  0.00  0.00    -0.024 A 
ATOM     11  C   UNL     1       2.825  -1.277   1.522  0.00  0.00    +0.005 A 
ATOM     12  C   UNL     1       3.416  -1.807   2.659  0.00  0.00    +0.001 A 
ATOM     13  C   UNL     1       2.694  -1.924   3.827  0.00  0.00    +0.011 A 
ATOM     14  C   UNL     1       1.367  -1.507   3.861  0.00  0.00    +0.010 A 
ATOM     15  C   UNL     1       0.768  -0.965   2.713  0.00  0.00    +0.050 A 
ATOM     16  N   UNL     1      -0.533  -0.637   3.036  0.00  0.00    -0.360 N 
ATOM     17  H   UNL     1      -1.172  -0.246   2.419  0.00  0.00    +0.165 HD
ATOM     18  C   UNL     1      -0.794  -0.934   4.323  0.00  0.00    +0.095 A 
ATOM     19  C   UNL     1       0.326  -1.485   4.908  0.00  0.00    +0.045 A 
BRANCH  10  21
ATOM     20  C   UNL     1       0.992   1.240   0.331  0.00  0.00    +0.009 C 
ATOM     21  C   UNL     1       0.883  -0.285   0.299  0.00  0.00    +0.034 C 
ENDBRANCH  10  21
ENDBRANCH   8  19
ENDBRANCH   1   8
BRANCH   1  22
ATOM     22  N   UNL     1      -0.461  -2.659   8.372  0.00  0.00    -0.330 N 
ATOM     23  H   UNL     1       0.451  -2.858   8.637  0.00  0.00    +0.147 HD
BRANCH  22  24
ATOM     24  C   UNL     1      -1.532  -3.162   9.120  0.00  0.00    +0.028 A 
ATOM     25  C   UNL     1      -2.837  -2.882   8.738  0.00  0.00    +0.025 A 
ATOM     26  C   UNL     1      -3.894  -3.377   9.476  0.00  0.00    +0.026 A 
ATOM     27  C   UNL     1      -3.652  -4.155  10.600  0.00  0.00    +0.048 A 
ATOM     28  C   UNL     1      -2.347  -4.436  10.982  0.00  0.00    +0.026 A 
ATOM     29  C   UNL     1      -1.290  -3.945  10.241  0.00  0.00    +0.025 A 
BRANCH  27  30
ATOM     30  N   UNL     1      -4.724  -4.657  11.348  0.00  0.00    -0.221 N 
ATOM     31  H   UNL     1      -4.948  -4.257  12.203  0.00  0.00    +0.173 HD
BRANCH  30  32
ATOM     32  S   UNL     1      -5.609  -5.934  10.774  0.00  0.00    +0.043 S 
ATOM     33  O   UNL     1      -6.596  -6.167  11.768  0.00  0.00    -0.155 OA
ATOM     34  O   UNL     1      -5.982  -5.553   9.457  0.00  0.00    -0.155 OA
BRANCH  32  35
ATOM     35  C   UNL     1      -4.441  -7.321  10.715  0.00  0.00    +0.185 C 
ATOM     36  C   UNL     1      -5.123  -8.535  10.081  0.00  0.00    +0.030 C 
ENDBRANCH  32  35
ENDBRANCH  30  32
ENDBRANCH  27  30
ENDBRANCH  22  24
ENDBRANCH   1  22
TORSDOF 9
