REMARK  Name = ZINC60330180
REMARK  11 active torsions:
REMARK  status: ('A' for Active; 'I' for Inactive)
REMARK    1  A    between atoms: C_1  and  C_2
REMARK    2  A    between atoms: C_5  and  C_34
REMARK    3  A    between atoms: C_6  and  O_9
REMARK    4  A    between atoms: C_7  and  C_8
REMARK    5  A    between atoms: O_9  and  C_10
REMARK    6  A    between atoms: C_10  and  C_11
REMARK    7  A    between atoms: C_11  and  C_13
REMARK    8  A    between atoms: C_11  and  O_33
REMARK    9  A    between atoms: C_13  and  N_14
REMARK   10  A    between atoms: N_21  and  C_23
REMARK   11  A    between atoms: C_23  and  C_24
REMARK                            x       y       z     vdW  Elec       q    Type
REMARK                         _______ _______ _______ _____ _____    ______ ____
ROOT
ATOM      1  N   UNL     1       2.328  -5.136   5.938  0.00  0.00    -0.222 N 
ATOM      2  C   UNL     1       2.271  -4.661   7.199  0.00  0.00    +0.245 C 
ATOM      3  O   UNL     1       2.358  -3.505   7.553  0.00  0.00    -0.273 OA
ATOM      4  C   UNL     1       2.075  -5.875   8.078  0.00  0.00    +0.098 C 
ATOM      5  C   UNL     1       0.756  -5.775   8.838  0.00  0.00    +0.031 C 
ATOM      6  C   UNL     1       0.608  -6.998   9.750  0.00  0.00    -0.016 C 
ATOM      7  C   UNL     1       1.825  -7.085  10.674  0.00  0.00    -0.078 C 
ATOM      8  N   UNL     1       3.046  -7.226   9.873  0.00  0.00    +0.384 N 
ATOM      9  C   UNL     1       3.241  -6.026   9.048  0.00  0.00    -0.043 C 
ATOM     10  N   UNL     1       2.040  -6.998   7.134  0.00  0.00    -0.287 N 
ATOM     11  C   UNL     1       2.191  -6.467   5.905  0.00  0.00    +0.309 C 
ATOM     12  O   UNL     1       2.205  -7.124   4.883  0.00  0.00    -0.252 OA
ATOM     13  H   UNL     1       1.927  -7.937   7.352  0.00  0.00    +0.151 HD
ATOM     14  H   UNL     1       2.964  -8.034   9.275  0.00  0.00    -0.081 HD
ENDROOT
BRANCH   1  15
ATOM     15  C   UNL     1       2.512  -4.298   4.750  0.00  0.00    +0.152 C 
BRANCH  15  16
ATOM     16  C   UNL     1       1.146  -3.857   4.221  0.00  0.00    +0.170 C 
BRANCH  16  17
ATOM     17  O   UNL     1       0.512  -3.013   5.185  0.00  0.00    -0.387 OA
ATOM     18  H   UNL     1       1.010  -2.211   5.394  0.00  0.00    +0.210 HD
ENDBRANCH  16  17
BRANCH  16  19
ATOM     19  C   UNL     1       1.330  -3.087   2.912  0.00  0.00    +0.262 C 
BRANCH  19  20
ATOM     20  O   UNL     1       0.050  -2.776   2.358  0.00  0.00    -0.489 OA
BRANCH  20  26
ATOM     21  C   UNL     1      -0.018   1.503   0.010  0.00  0.00    +0.044 C 
ATOM     22  C   UNL     1       0.002  -0.004   0.002  0.00  0.00    -0.044 A 
ATOM     23  C   UNL     1       0.006  -0.688  -1.200  0.00  0.00    +0.004 A 
ATOM     24  C   UNL     1       0.024  -2.071  -1.211  0.00  0.00    +0.007 A 
ATOM     25  C   UNL     1       0.039  -2.772  -0.020  0.00  0.00    -0.009 A 
ATOM     26  C   UNL     1       0.035  -2.088   1.186  0.00  0.00    +0.127 A 
ATOM     27  C   UNL     1       0.023  -0.700   1.195  0.00  0.00    -0.006 A 
ATOM     28  C   UNL     1       0.026   0.046   2.504  0.00  0.00    +0.048 C 
ATOM     29  C   UNL     1       0.059  -4.279  -0.033  0.00  0.00    +0.047 C 
ENDBRANCH  20  26
ENDBRANCH  19  20
ENDBRANCH  16  19
ENDBRANCH  15  16
ENDBRANCH   1  15
BRANCH   8  30
ATOM     30  C   UNL     1       4.200  -7.397  10.767  0.00  0.00    -0.043 C 
BRANCH  30  31
ATOM     31  C   UNL     1       4.064  -8.695  11.519  0.00  0.00    -0.064 A 
ATOM     32  C   UNL     1       3.405  -8.725  12.734  0.00  0.00    +0.002 A 
ATOM     33  C   UNL     1       3.280  -9.916  13.424  0.00  0.00    +0.000 A 
ATOM     34  C   UNL     1       3.814 -11.078  12.899  0.00  0.00    +0.000 A 
ATOM     35  C   UNL     1       4.473 -11.049  11.684  0.00  0.00    +0.000 A 
ATOM     36  C   UNL     1       4.594  -9.858  10.992  0.00  0.00    +0.002 A 
ENDBRANCH  30  31
ENDBRANCH   8  30
TORSDOF 8
