REMARK  Name = ZINC20636562
REMARK  1 active torsions:
REMARK  status: ('A' for Active; 'I' for Inactive)
REMARK    1  A    between atoms: C_4  and  N_7
REMARK                            x       y       z     vdW  Elec       q    Type
REMARK                         _______ _______ _______ _____ _____    ______ ____
ROOT
ATOM      1  N   UNL     1       3.621  -0.650  -0.037  0.00  0.00    -0.234 N 
ATOM      2  C   UNL     1       4.769   0.049  -0.142  0.00  0.00    +0.255 C 
ATOM      3  O   UNL     1       4.742   1.245  -0.364  0.00  0.00    -0.269 OA
ATOM      4  C   UNL     1       6.058  -0.649   0.015  0.00  0.00    +0.058 A 
ATOM      5  C   UNL     1       7.267  -0.015  -0.265  0.00  0.00    +0.015 A 
ATOM      6  C   UNL     1       8.450  -0.708  -0.113  0.00  0.00    +0.001 A 
ATOM      7  C   UNL     1       8.442  -2.027   0.314  0.00  0.00    +0.002 A 
ATOM      8  C   UNL     1       7.251  -2.667   0.597  0.00  0.00    +0.024 A 
ATOM      9  C   UNL     1       6.055  -1.984   0.454  0.00  0.00    +0.041 A 
ATOM     10  N   UNL     1       4.833  -2.579   0.752  0.00  0.00    -0.311 N 
ATOM     11  C   UNL     1       3.633  -2.107   0.066  0.00  0.00    +0.212 C 
ATOM     12  C   UNL     1       3.516  -2.739  -1.287  0.00  0.00    +0.025 A 
ATOM     13  C   UNL     1       4.337  -2.686  -2.393  0.00  0.00    +0.010 A 
ATOM     14  C   UNL     1       3.930  -3.401  -3.514  0.00  0.00    +0.001 A 
ATOM     15  C   UNL     1       2.758  -4.129  -3.517  0.00  0.00    +0.002 A 
ATOM     16  C   UNL     1       1.928  -4.187  -2.408  0.00  0.00    +0.024 A 
ATOM     17  C   UNL     1       2.325  -3.475  -1.275  0.00  0.00    +0.041 A 
ATOM     18  N   UNL     1       1.702  -3.362  -0.046  0.00  0.00    -0.282 N 
ATOM     19  C   UNL     1       2.398  -2.581   0.806  0.00  0.00    +0.264 C 
ATOM     20  O   UNL     1       2.094  -2.309   1.948  0.00  0.00    -0.271 OA
ATOM     21  H   UNL     1       4.778  -3.294   1.405  0.00  0.00    +0.149 HD
ATOM     22  H   UNL     1       0.862  -3.794   0.178  0.00  0.00    +0.155 HD
ENDROOT
BRANCH   1  26
ATOM     23  C   UNL     1      -0.016   1.380   0.011  0.00  0.00    +0.000 A 
ATOM     24  C   UNL     1       0.720   1.255   1.175  0.00  0.00    +0.002 A 
ATOM     25  C   UNL     1       1.926   0.583   1.162  0.00  0.00    +0.023 A 
ATOM     26  C   UNL     1       2.400   0.031  -0.021  0.00  0.00    +0.039 A 
ATOM     27  C   UNL     1       1.658   0.157  -1.188  0.00  0.00    +0.023 A 
ATOM     28  C   UNL     1       0.453   0.831  -1.169  0.00  0.00    +0.002 A 
ENDBRANCH   1  26
TORSDOF 1
