REMARK  Name = ZINC19311055
REMARK  12 active torsions:
REMARK  status: ('A' for Active; 'I' for Inactive)
REMARK    1  A    between atoms: C_1  and  C_2
REMARK    2  A    between atoms: C_2  and  C_3
REMARK    3  A    between atoms: C_3  and  C_4
REMARK    4  A    between atoms: C_4  and  C_31
REMARK    5  A    between atoms: N_7  and  C_11
REMARK    6  A    between atoms: C_11  and  C_12
REMARK    7  A    between atoms: N_14  and  C_15
REMARK    8  A    between atoms: C_18  and  S_21
REMARK    9  A    between atoms: S_21  and  N_24
REMARK   10  A    between atoms: N_27  and  C_30
REMARK   11  A    between atoms: C_31  and  C_32
REMARK   12  A    between atoms: C_32  and  C_33
REMARK                            x       y       z     vdW  Elec       q    Type
REMARK                         _______ _______ _______ _____ _____    ______ ____
ROOT
ATOM      1  C   UNL     1       4.335  -0.668   6.117  0.00  0.00    +0.235 C 
ATOM      2  O   UNL     1       4.292  -1.444   5.186  0.00  0.00    -0.274 OA
ATOM      3  N   UNL     1       3.408   0.303   6.228  0.00  0.00    -0.284 N 
ATOM      4  H   UNL     1       3.490   1.053   7.029  0.00  0.00    +0.155 HD
ENDROOT
BRANCH   3   5
ATOM      5  C   UNL     1       2.340   0.357   5.325  0.00  0.00    +0.034 A 
ATOM      6  C   UNL     1       2.531  -0.007   3.999  0.00  0.00    +0.025 A 
ATOM      7  C   UNL     1       1.475   0.047   3.110  0.00  0.00    +0.030 A 
ATOM      8  C   UNL     1       0.229   0.464   3.540  0.00  0.00    +0.106 A 
ATOM      9  C   UNL     1       0.036   0.833   4.859  0.00  0.00    +0.030 A 
ATOM     10  C   UNL     1       1.087   0.776   5.753  0.00  0.00    +0.025 A 
BRANCH   8  11
ATOM     11  S   UNL     1      -1.116   0.532   2.403  0.00  0.00    +0.061 S 
ATOM     12  O   UNL     1      -0.546   0.662   1.108  0.00  0.00    -0.153 OA
ATOM     13  O   UNL     1      -2.043   1.473   2.926  0.00  0.00    -0.153 OA
BRANCH  11  14
ATOM     14  N   UNL     1      -1.866  -0.944   2.444  0.00  0.00    -0.180 NA
ATOM     15  C   UNL     1      -2.967  -1.206   3.384  0.00  0.00    +0.091 C 
ATOM     16  C   UNL     1      -4.151  -1.786   2.603  0.00  0.00    -0.062 C 
ATOM     17  N   UNL     1      -3.702  -2.953   1.833  0.00  0.00    +0.380 N 
ATOM     18  C   UNL     1      -2.698  -2.575   0.829  0.00  0.00    -0.062 C 
ATOM     19  C   UNL     1      -1.454  -2.027   1.537  0.00  0.00    +0.091 C 
ATOM     20  C   UNL     1      -4.839  -3.640   1.207  0.00  0.00    -0.096 C 
ATOM     21  H   UNL     1      -3.226  -3.653   2.535  0.00  0.00    -0.082 HD
ENDBRANCH  11  14
ENDBRANCH   8  11
ENDBRANCH   3   5
BRANCH   1  22
ATOM     22  C   UNL     1       5.426  -0.790   7.150  0.00  0.00    +0.214 C 
BRANCH  22  26
ATOM     23  C   UNL     1       7.243  -3.988   6.635  0.00  0.00    +0.113 C 
ATOM     24  C   UNL     1       6.110  -3.179   7.234  0.00  0.00    +0.247 C 
ATOM     25  O   UNL     1       5.218  -3.584   7.947  0.00  0.00    -0.273 OA
ATOM     26  N   UNL     1       6.300  -1.915   6.807  0.00  0.00    -0.215 N 
ATOM     27  C   UNL     1       7.388  -1.812   6.035  0.00  0.00    +0.310 C 
ATOM     28  O   UNL     1       7.767  -0.771   5.536  0.00  0.00    -0.252 OA
ATOM     29  N   UNL     1       8.017  -2.991   5.875  0.00  0.00    -0.285 N 
ATOM     30  H   UNL     1       8.919  -3.297   5.325  0.00  0.00    +0.151 HD
BRANCH  23  31
ATOM     31  C   UNL     1       6.701  -5.074   5.703  0.00  0.00    +0.035 C 
BRANCH  31  33
ATOM     32  C   UNL     1       5.364  -5.508   3.638  0.00  0.00    +0.004 C 
ATOM     33  C   UNL     1       5.906  -4.422   4.570  0.00  0.00    -0.001 C 
ENDBRANCH  31  33
ENDBRANCH  23  31
BRANCH  23  34
ATOM     34  C   UNL     1       8.101  -4.605   7.741  0.00  0.00    +0.035 C 
BRANCH  34  35
ATOM     35  C   UNL     1       8.583  -3.504   8.687  0.00  0.00    -0.001 C 
ATOM     36  C   UNL     1       9.441  -4.121   9.793  0.00  0.00    +0.004 C 
ENDBRANCH  34  35
ENDBRANCH  23  34
ENDBRANCH  22  26
ENDBRANCH   1  22
TORSDOF 9
