REMARK  Name = ZINC39710248
REMARK  12 active torsions:
REMARK  status: ('A' for Active; 'I' for Inactive)
REMARK    1  A    between atoms: C_1  and  C_2
REMARK    2  A    between atoms: C_9  and  C_14
REMARK    3  A    between atoms: C_14  and  C_16
REMARK    4  A    between atoms: C_14  and  N_26
REMARK    5  A    between atoms: N_21  and  C_22
REMARK    6  A    between atoms: C_22  and  C_23
REMARK    7  A    between atoms: C_22  and  C_24
REMARK    8  A    between atoms: C_22  and  C_25
REMARK    9  A    between atoms: N_26  and  C_27
REMARK   10  A    between atoms: N_26  and  C_34
REMARK   11  A    between atoms: C_27  and  C_28
REMARK   12  A    between atoms: C_34  and  C_35
REMARK                            x       y       z     vdW  Elec       q    Type
REMARK                         _______ _______ _______ _____ _____    ______ ____
ROOT
ATOM      1  C   UNL     1      -0.264  -5.682   2.078  0.00  0.00    -0.009 C 
ENDROOT
BRANCH   1  10
ATOM      2  C   UNL     1      -5.211  -8.282  -2.368  0.00  0.00    +0.044 C 
ATOM      3  C   UNL     1      -3.864  -8.303  -1.693  0.00  0.00    -0.050 A 
ATOM      4  C   UNL     1      -3.168  -9.508  -1.595  0.00  0.00    +0.005 A 
ATOM      5  C   UNL     1      -1.950  -9.604  -1.001  0.00  0.00    +0.024 A 
ATOM      6  C   UNL     1      -1.331  -8.465  -0.451  0.00  0.00    +0.040 A 
ATOM      7  N   UNL     1      -0.136  -8.571   0.128  0.00  0.00    -0.285 N 
ATOM      8  C   UNL     1       0.500  -7.543   0.664  0.00  0.00    +0.223 C 
ATOM      9  O   UNL     1       1.591  -7.702   1.180  0.00  0.00    -0.275 OA
ATOM     10  C   UNL     1      -0.132  -6.171   0.634  0.00  0.00    +0.088 C 
ATOM     11  C   UNL     1      -1.492  -6.045  -0.025  0.00  0.00    -0.006 C 
ATOM     12  C   UNL     1      -2.044  -7.179  -0.541  0.00  0.00    -0.007 A 
ATOM     13  C   UNL     1      -3.351  -7.147  -1.199  0.00  0.00    +0.012 A 
ATOM     14  H   UNL     1       0.288  -9.444   0.159  0.00  0.00    +0.155 HD
ENDBRANCH   1  10
BRANCH   1  15
ATOM     15  C   UNL     1       0.995  -4.905   2.470  0.00  0.00    +0.205 C 
ATOM     16  N   UNL     1       0.839  -4.319   3.808  0.00  0.00    -0.152 NA
ATOM     17  N   UNL     1       0.918  -3.092   3.718  0.00  0.00    -0.070 NA
ATOM     18  N   UNL     1       1.125  -2.657   2.409  0.00  0.00    -0.179 N 
ATOM     19  N   UNL     1       1.185  -3.745   1.574  0.00  0.00    -0.183 NA
ATOM     20  H   UNL     1       1.214  -1.731   2.133  0.00  0.00    +0.191 HD
BRANCH  19  21
ATOM     21  C   UNL     1       2.482  -3.816   0.889  0.00  0.00    +0.035 C 
ATOM     22  C   UNL     1       2.512  -5.045  -0.021  0.00  0.00    +0.029 C 
ATOM     23  C   UNL     1       2.684  -2.554   0.048  0.00  0.00    +0.029 C 
ATOM     24  C   UNL     1       3.602  -3.921   1.927  0.00  0.00    +0.029 C 
ENDBRANCH  19  21
ENDBRANCH   1  15
BRANCH   1  25
ATOM     25  N   UNL     1      -0.426  -6.836   2.972  0.00  0.00    +0.390 N 
ATOM     26  H   UNL     1       0.413  -7.396   2.954  0.00  0.00    -0.080 HD
BRANCH  25  27
ATOM     27  C   UNL     1      -0.670  -6.363   4.341  0.00  0.00    -0.042 C 
BRANCH  27  28
ATOM     28  C   UNL     1      -1.960  -5.585   4.382  0.00  0.00    -0.064 A 
ATOM     29  C   UNL     1      -1.942  -4.209   4.253  0.00  0.00    +0.002 A 
ATOM     30  C   UNL     1      -3.126  -3.496   4.290  0.00  0.00    +0.000 A 
ATOM     31  C   UNL     1      -4.327  -4.159   4.456  0.00  0.00    +0.000 A 
ATOM     32  C   UNL     1      -4.346  -5.535   4.584  0.00  0.00    +0.000 A 
ATOM     33  C   UNL     1      -3.162  -6.249   4.542  0.00  0.00    +0.002 A 
ENDBRANCH  27  28
ENDBRANCH  25  27
BRANCH  25  34
ATOM     34  C   UNL     1      -1.565  -7.647   2.524  0.00  0.00    -0.042 C 
BRANCH  34  35
ATOM     35  C   UNL     1      -1.255  -9.107   2.732  0.00  0.00    -0.064 A 
ATOM     36  C   UNL     1      -0.030  -9.486   3.247  0.00  0.00    +0.003 A 
ATOM     37  C   UNL     1       0.255 -10.825   3.438  0.00  0.00    +0.020 A 
ATOM     38  C   UNL     1      -0.687 -11.786   3.114  0.00  0.00    +0.041 A 
ATOM     39  C   UNL     1      -1.913 -11.405   2.599  0.00  0.00    +0.020 A 
ATOM     40  C   UNL     1      -2.199 -10.066   2.413  0.00  0.00    +0.003 A 
ATOM     41 CL   UNL     1      -0.329 -13.468   3.353  0.00  0.00    -0.084 Cl
ENDBRANCH  34  35
ENDBRANCH  25  34
ENDBRANCH   1  25
TORSDOF 8
