REMARK  Name = ZINC01049792
REMARK  10 active torsions:
REMARK  status: ('A' for Active; 'I' for Inactive)
REMARK    1  A    between atoms: C_1  and  O_2
REMARK    2  A    between atoms: O_2  and  C_3
REMARK    3  A    between atoms: C_5  and  N_11
REMARK    4  A    between atoms: C_7  and  O_9
REMARK    5  A    between atoms: O_9  and  C_10
REMARK    6  A    between atoms: C_12  and  C_14
REMARK    7  A    between atoms: C_14  and  S_15
REMARK    8  A    between atoms: S_15  and  C_16
REMARK    9  A    between atoms: N_29  and  C_30
REMARK   10  A    between atoms: C_30  and  C_31
REMARK                            x       y       z     vdW  Elec       q    Type
REMARK                         _______ _______ _______ _____ _____    ______ ____
ROOT
ATOM      1  C   UNL     1      -5.208   0.734   0.261  0.00  0.00    +0.173 A 
ATOM      2  N   UNL     1      -4.925  -0.551   0.335  0.00  0.00    -0.216 NA
ATOM      3  C   UNL     1      -5.892  -1.455   0.449  0.00  0.00    +0.117 A 
ATOM      4  C   UNL     1      -7.250  -1.096   0.485  0.00  0.00    +0.076 A 
ATOM      5  C   UNL     1      -8.200  -2.203   0.607  0.00  0.00    -0.023 A 
ATOM      6  C   UNL     1      -7.686  -3.447   0.672  0.00  0.00    -0.004 A 
ATOM      7  S   UNL     1      -5.930  -3.225   0.577  0.00  0.00    -0.073 S 
ATOM      8  C   UNL     1      -8.440  -4.736   0.798  0.00  0.00    +0.043 C 
ATOM      9  C   UNL     1      -9.882  -4.415   1.216  0.00  0.00    +0.005 C 
ATOM     10  C   UNL     1     -10.415  -3.293   0.321  0.00  0.00    +0.005 C 
ATOM     11  C   UNL     1      -9.709  -1.979   0.659  0.00  0.00    +0.037 C 
ATOM     12  C   UNL     1      -7.527   0.305   0.398  0.00  0.00    +0.264 A 
ATOM     13  O   UNL     1      -8.677   0.710   0.420  0.00  0.00    -0.267 OA
ATOM     14  N   UNL     1      -6.501   1.169   0.289  0.00  0.00    -0.280 N 
ENDROOT
BRANCH   1  15
ATOM     15  S   UNL     1      -3.899   1.904   0.118  0.00  0.00    -0.078 S 
BRANCH  15  16
ATOM     16  C   UNL     1      -2.475   0.787   0.133  0.00  0.00    +0.173 C 
BRANCH  16  18
ATOM     17  N   UNL     1      -0.011   0.966   0.007  0.00  0.00    -0.285 N 
ATOM     18  C   UNL     1      -1.205   1.591   0.017  0.00  0.00    +0.227 C 
ATOM     19  O   UNL     1      -1.258   2.799  -0.067  0.00  0.00    -0.275 OA
ATOM     20  H   UNL     1       0.029  -0.003   0.007  0.00  0.00    +0.155 HD
BRANCH  17  23
ATOM     21  C   UNL     1       3.461   2.002   0.657  0.00  0.00    +0.125 A 
ATOM     22  C   UNL     1       2.291   1.259   0.673  0.00  0.00    +0.069 A 
ATOM     23  C   UNL     1       1.170   1.715  -0.008  0.00  0.00    +0.040 A 
ATOM     24  C   UNL     1       1.224   2.912  -0.709  0.00  0.00    +0.069 A 
ATOM     25  C   UNL     1       2.394   3.657  -0.719  0.00  0.00    +0.125 A 
ATOM     26  C   UNL     1       3.513   3.200  -0.039  0.00  0.00    +0.091 A 
BRANCH  21  28
ATOM     27  C   UNL     1       5.730   2.371   1.264  0.00  0.00    +0.277 C 
ATOM     28  O   UNL     1       4.558   1.555   1.323  0.00  0.00    -0.495 OA
ENDBRANCH  21  28
BRANCH  25  29
ATOM     29  O   UNL     1       2.445   4.832  -1.400  0.00  0.00    -0.495 OA
ATOM     30  C   UNL     1       3.684   5.544  -1.373  0.00  0.00    +0.277 C 
ENDBRANCH  25  29
ENDBRANCH  17  23
ENDBRANCH  16  18
ENDBRANCH  15  16
ENDBRANCH   1  15
BRANCH  14  31
ATOM     31  C   UNL     1      -6.777   2.605   0.199  0.00  0.00    +0.201 C 
BRANCH  31  32
ATOM     32  C   UNL     1      -6.937   2.996  -1.248  0.00  0.00    +0.125 A 
ATOM     33  C   UNL     1      -8.090   2.993  -1.941  0.00  0.00    +0.046 A 
ATOM     34  C   UNL     1      -7.782   3.429  -3.250  0.00  0.00    +0.041 A 
ATOM     35  C   UNL     1      -6.458   3.665  -3.281  0.00  0.00    +0.195 A 
ATOM     36  O   UNL     1      -5.951   3.401  -2.065  0.00  0.00    -0.466 OA
ENDBRANCH  31  32
ENDBRANCH  14  31
TORSDOF 8
