REMARK  Name = ZINC08846427
REMARK  14 active torsions:
REMARK  status: ('A' for Active; 'I' for Inactive)
REMARK    1  A    between atoms: C_1  and  C_2
REMARK    2  A    between atoms: C_2  and  O_3
REMARK    3  A    between atoms: O_3  and  C_4
REMARK    4  A    between atoms: C_6  and  C_11
REMARK    5  A    between atoms: C_9  and  O_10
REMARK    6  A    between atoms: C_16  and  C_21
REMARK    7  A    between atoms: C_27  and  C_37
REMARK    8  A    between atoms: C_28  and  C_29
REMARK    9  A    between atoms: C_29  and  O_31
REMARK   10  A    between atoms: O_31  and  C_32
REMARK   11  A    between atoms: C_32  and  C_33
REMARK   12  A    between atoms: C_33  and  S_34
REMARK   13  A    between atoms: S_34  and  C_35
REMARK   14  A    between atoms: C_35  and  C_36
REMARK                            x       y       z     vdW  Elec       q    Type
REMARK                         _______ _______ _______ _____ _____    ______ ____
ROOT
ATOM      1  C   UNL     1      -0.013   1.086   0.008  0.00  0.00    +0.092 C 
ATOM      2  C   UNL     1       1.405   1.600  -0.003  0.00  0.00    +0.024 C 
ATOM      3  C   UNL     1       1.768   2.639   0.780  0.00  0.00    +0.016 C 
ATOM      4  C   UNL     1       3.185   3.155   0.779  0.00  0.00    +0.060 C 
ATOM      5  C   UNL     1       3.810   2.938  -0.601  0.00  0.00    +0.039 C 
ATOM      6  C   UNL     1       3.761   1.441  -0.927  0.00  0.00    +0.088 C 
ATOM      7  C   UNL     1       2.334   0.971  -0.850  0.00  0.00    +0.162 C 
ATOM      8  O   UNL     1       1.978   0.030  -1.531  0.00  0.00    -0.292 OA
ATOM      9  N   UNL     1       0.852   3.245   1.597  0.00  0.00    -0.321 N 
ATOM     10  C   UNL     1      -0.300   2.600   1.951  0.00  0.00    +0.016 C 
ATOM     11  C   UNL     1      -0.749   1.562   1.226  0.00  0.00    +0.065 C 
ATOM     12  C   UNL     1      -1.072   3.057   3.163  0.00  0.00    +0.061 C 
ATOM     13  H   UNL     1       1.040   4.261   1.976  0.00  0.00    +0.152 HD
ENDROOT
BRANCH   1  16
ATOM     14  C   UNL     1      -1.890   1.121  -3.271  0.00  0.00    +0.162 A 
ATOM     15  C   UNL     1      -1.229   0.670  -2.139  0.00  0.00    +0.054 A 
ATOM     16  C   UNL     1      -0.727   1.577  -1.225  0.00  0.00    -0.032 A 
ATOM     17  C   UNL     1      -0.874   2.935  -1.441  0.00  0.00    +0.008 A 
ATOM     18  C   UNL     1      -1.527   3.391  -2.571  0.00  0.00    +0.049 A 
ATOM     19  C   UNL     1      -2.037   2.487  -3.489  0.00  0.00    +0.158 A 
BRANCH  19  20
ATOM     20  O   UNL     1      -2.680   2.934  -4.600  0.00  0.00    -0.503 OA
ATOM     21  H   UNL     1      -2.796   4.014  -4.772  0.00  0.00    +0.292 HD
ENDBRANCH  19  20
BRANCH  14  22
ATOM     22  O   UNL     1      -2.388   0.229  -4.168  0.00  0.00    -0.489 OA
BRANCH  22  24
ATOM     23  C   UNL     1      -2.824  -2.000  -4.994  0.00  0.00    +0.048 C 
ATOM     24  C   UNL     1      -2.200  -1.157  -3.879  0.00  0.00    +0.226 C 
ENDBRANCH  22  24
ENDBRANCH  14  22
ENDBRANCH   1  16
BRANCH   5  25
ATOM     25  C   UNL     1       5.243   3.406  -0.587  0.00  0.00    -0.006 A 
ATOM     26  C   UNL     1       5.835   4.363  -1.342  0.00  0.00    +0.011 A 
ATOM     27  C   UNL     1       7.178   4.631  -1.153  0.00  0.00    +0.008 A 
ATOM     28  C   UNL     1       7.865   3.920  -0.225  0.00  0.00    +0.045 A 
ATOM     29  S   UNL     1       6.601   2.838   0.422  0.00  0.00    -0.101 S 
ENDBRANCH   5  25
BRANCH  11  30
ATOM     30  C   UNL     1      -1.939   0.905   1.617  0.00  0.00    +0.338 C 
ATOM     31  O   UNL     1      -2.546   1.281   2.602  0.00  0.00    -0.245 OA
BRANCH  30  32
ATOM     32  O   UNL     1      -2.402  -0.139   0.898  0.00  0.00    -0.460 OA
BRANCH  32  33
ATOM     33  C   UNL     1      -3.609  -0.755   1.351  0.00  0.00    +0.243 C 
BRANCH  33  34
ATOM     34  C   UNL     1      -3.974  -1.910   0.416  0.00  0.00    +0.110 C 
BRANCH  34  35
ATOM     35  S   UNL     1      -5.507  -2.692   0.992  0.00  0.00    -0.158 S 
BRANCH  35  36
ATOM     36  C   UNL     1      -5.797  -4.022  -0.206  0.00  0.00    +0.066 C 
ATOM     37  C   UNL     1      -7.077  -4.774   0.165  0.00  0.00    +0.015 C 
ENDBRANCH  35  36
ENDBRANCH  34  35
ENDBRANCH  33  34
ENDBRANCH  32  33
ENDBRANCH  30  32
ENDBRANCH  11  30
TORSDOF 11
