REMARK  Name = ZINC67043115
REMARK  5 active torsions:
REMARK  status: ('A' for Active; 'I' for Inactive)
REMARK    1  A    between atoms: C_4  and  C_7
REMARK    2  A    between atoms: C_7  and  C_14
REMARK    3  A    between atoms: C_14  and  N_15
REMARK    4  A    between atoms: N_18  and  C_19
REMARK    5  A    between atoms: C_19  and  C_20
REMARK                            x       y       z     vdW  Elec       q    Type
REMARK                         _______ _______ _______ _____ _____    ______ ____
ROOT
ATOM      1  C   UNL     1       4.448  -0.412  -1.346  0.00  0.00    +0.117 C 
ENDROOT
BRANCH   1   2
ATOM      2  C   UNL     1       3.632  -0.449  -0.052  0.00  0.00    +0.011 C 
ATOM      3  C   UNL     1       4.121   0.618   0.889  0.00  0.00    +0.013 C 
ATOM      4  C   UNL     1       5.593   0.998   0.636  0.00  0.00    +0.001 C 
ATOM      5  C   UNL     1       6.486  -0.226   0.359  0.00  0.00    +0.000 C 
ATOM      6  C   UNL     1       6.174  -1.385   1.267  0.00  0.00    +0.000 C 
ATOM      7  C   UNL     1       5.172  -2.313   0.549  0.00  0.00    +0.001 C 
ATOM      8  C   UNL     1       3.805  -1.822   0.630  0.00  0.00    +0.013 C 
BRANCH   2  12
ATOM      9  C   UNL     1      -0.495   0.201  -0.941  0.00  0.00    +0.000 A 
ATOM     10  C   UNL     1       0.458   1.093  -1.394  0.00  0.00    +0.000 A 
ATOM     11  C   UNL     1       1.794   0.883  -1.106  0.00  0.00    +0.004 A 
ATOM     12  C   UNL     1       2.176  -0.220  -0.365  0.00  0.00    -0.040 A 
ATOM     13  C   UNL     1       1.222  -1.112   0.088  0.00  0.00    +0.004 A 
ATOM     14  C   UNL     1      -0.113  -0.902  -0.201  0.00  0.00    +0.000 A 
ENDBRANCH   2  12
ENDBRANCH   1   2
BRANCH   1  15
ATOM     15  N   UNL     1       3.580  -0.743  -2.479  0.00  0.00    -0.299 N 
ATOM     16  C   UNL     1       4.056  -0.659  -3.738  0.00  0.00    +0.300 C 
ATOM     17  O   UNL     1       5.204  -0.310  -3.933  0.00  0.00    -0.253 OA
ATOM     18  N   UNL     1       3.258  -0.963  -4.781  0.00  0.00    -0.299 N 
ATOM     19  H   UNL     1       2.665  -1.022  -2.324  0.00  0.00    +0.150 HD
ATOM     20  H   UNL     1       2.342  -1.242  -4.626  0.00  0.00    +0.150 HD
BRANCH  18  21
ATOM     21  C   UNL     1       3.774  -0.873  -6.149  0.00  0.00    +0.111 C 
BRANCH  21  22
ATOM     22  C   UNL     1       2.675  -1.268  -7.136  0.00  0.00    +0.029 C 
ATOM     23  C   UNL     1       1.536  -0.237  -7.073  0.00  0.00    +0.029 C 
ATOM     24  C   UNL     1       0.594  -0.480  -8.287  0.00  0.00    +0.166 C 
ATOM     25  S   UNL     1       1.831  -0.821  -9.609  0.00  0.00    -0.031 S 
ATOM     26  O   UNL     1       2.143   0.395 -10.275  0.00  0.00    -0.174 OA
ATOM     27  O   UNL     1       1.399  -1.942 -10.368  0.00  0.00    -0.174 OA
ATOM     28  C   UNL     1       3.262  -1.316  -8.568  0.00  0.00    +0.171 C 
ENDBRANCH  21  22
ENDBRANCH  18  21
ENDBRANCH   1  15
TORSDOF 5
