REMARK  Name = ZINC41586492
REMARK  8 active torsions:
REMARK  status: ('A' for Active; 'I' for Inactive)
REMARK    1  A    between atoms: C_1  and  C_2
REMARK    2  A    between atoms: C_2  and  O_3
REMARK    3  A    between atoms: O_3  and  C_4
REMARK    4  A    between atoms: C_4  and  C_6
REMARK    5  A    between atoms: N_11  and  C_13
REMARK    6  A    between atoms: C_13  and  C_14
REMARK    7  A    between atoms: C_15  and  O_32
REMARK    8  A    between atoms: C_22  and  C_23
REMARK                            x       y       z     vdW  Elec       q    Type
REMARK                         _______ _______ _______ _____ _____    ______ ____
ROOT
ATOM      1  C   UNL     1      -5.673  -6.120   0.199  0.00  0.00    +0.020 A 
ATOM      2  C   UNL     1      -6.174  -6.397   1.461  0.00  0.00    +0.122 A 
ATOM      3  C   UNL     1      -7.294  -7.209   1.616  0.00  0.00    +0.046 A 
ATOM      4  C   UNL     1      -7.913  -7.742   0.520  0.00  0.00    +0.019 A 
ATOM      5  C   UNL     1      -7.420  -7.471  -0.756  0.00  0.00    +0.068 A 
ATOM      6  C   UNL     1      -6.293  -6.649  -0.926  0.00  0.00    +0.144 A 
ATOM      7  O   UNL     1      -6.011  -6.529  -2.241  0.00  0.00    -0.451 OA
ATOM      8  C   UNL     1      -6.884  -7.221  -3.010  0.00  0.00    +0.176 C 
ATOM      9  C   UNL     1      -6.872  -7.301  -4.363  0.00  0.00    +0.058 C 
ATOM     10  C   UNL     1      -7.843  -7.880  -2.108  0.00  0.00    +0.231 C 
ATOM     11  O   UNL     1      -8.784  -8.593  -2.412  0.00  0.00    -0.283 OA
ENDROOT
BRANCH   9  12
ATOM     12  C   UNL     1      -5.760  -6.713  -5.124  0.00  0.00    -0.020 A 
ATOM     13  C   UNL     1      -4.633  -6.220  -4.456  0.00  0.00    +0.008 A 
ATOM     14  C   UNL     1      -3.594  -5.670  -5.176  0.00  0.00    +0.002 A 
ATOM     15  C   UNL     1      -3.663  -5.604  -6.557  0.00  0.00    +0.020 A 
ATOM     16  C   UNL     1      -4.775  -6.088  -7.227  0.00  0.00    +0.042 A 
ATOM     17  C   UNL     1      -5.820  -6.647  -6.520  0.00  0.00    +0.028 A 
ATOM     18 CL   UNL     1      -4.850  -5.998  -8.959  0.00  0.00    -0.084 Cl
ENDBRANCH   9  12
BRANCH   2  19
ATOM     19  O   UNL     1      -5.566  -5.873   2.556  0.00  0.00    -0.506 OA
ATOM     20  H   UNL     1      -5.912  -5.010   2.822  0.00  0.00    +0.292 HD
ENDBRANCH   2  19
BRANCH   1  21
ATOM     21  C   UNL     1      -4.460  -5.240   0.046  0.00  0.00    -0.036 C 
BRANCH  21  26
ATOM     22  C   UNL     1      -4.138  -1.506  -0.143  0.00  0.00    +0.081 C 
ATOM     23  C   UNL     1      -4.969  -1.267  -1.407  0.00  0.00    +0.011 C 
ATOM     24  C   UNL     1      -6.160  -2.229  -1.413  0.00  0.00    -0.018 C 
ATOM     25  C   UNL     1      -5.647  -3.668  -1.319  0.00  0.00    -0.078 C 
ATOM     26  N   UNL     1      -4.883  -3.839  -0.077  0.00  0.00    +0.383 N 
ATOM     27  C   UNL     1      -3.700  -2.971  -0.096  0.00  0.00    -0.064 C 
ATOM     28  H   UNL     1      -5.465  -3.595   0.711  0.00  0.00    -0.081 HD
BRANCH  22  29
ATOM     29  C   UNL     1      -2.921  -0.617  -0.166  0.00  0.00    +0.308 C 
ATOM     30  O   UNL     1      -1.816  -1.106  -0.144  0.00  0.00    -0.251 OA
BRANCH  29  31
ATOM     31  O   UNL     1      -3.064   0.717  -0.210  0.00  0.00    -0.465 OA
BRANCH  31  33
ATOM     32  C   UNL     1      -2.229   2.983  -0.279  0.00  0.00    +0.048 C 
ATOM     33  C   UNL     1      -1.867   1.498  -0.229  0.00  0.00    +0.229 C 
ENDBRANCH  31  33
ENDBRANCH  29  31
ENDBRANCH  22  29
ENDBRANCH  21  26
ENDBRANCH   1  21
TORSDOF 7
