REMARK  Name = ZINC04275310
REMARK  10 active torsions:
REMARK  status: ('A' for Active; 'I' for Inactive)
REMARK    1  A    between atoms: C_1  and  C_2
REMARK    2  A    between atoms: C_2  and  C_27
REMARK    3  A    between atoms: C_5  and  C_25
REMARK    4  A    between atoms: C_6  and  N_12
REMARK    5  A    between atoms: C_9  and  C_10
REMARK    6  A    between atoms: C_9  and  C_11
REMARK    7  A    between atoms: C_13  and  C_15
REMARK    8  A    between atoms: C_18  and  C_21
REMARK    9  A    between atoms: C_21  and  O_23
REMARK   10  A    between atoms: O_23  and  C_24
REMARK                            x       y       z     vdW  Elec       q    Type
REMARK                         _______ _______ _______ _____ _____    ______ ____
ROOT
ATOM      1  C   UNL     1      -0.013   1.086   0.008  0.00  0.00    -0.010 C 
ATOM      2  C   UNL     1      -0.729   1.580   1.268  0.00  0.00    -0.069 C 
ATOM      3  C   UNL     1      -2.138   0.980   1.315  0.00  0.00    +0.024 C 
ATOM      4  C   UNL     1      -2.981   1.649   0.239  0.00  0.00    -0.021 A 
ATOM      5  C   UNL     1      -4.129   1.056  -0.416  0.00  0.00    +0.084 A 
ATOM      6  C   UNL     1      -4.792   1.825  -1.365  0.00  0.00    +0.090 A 
ATOM      7  S   UNL     1      -3.892   3.305  -1.374  0.00  0.00    -0.078 S 
ATOM      8  C   UNL     1      -2.673   2.906  -0.155  0.00  0.00    -0.015 A 
ATOM      9  C   UNL     1      -1.544   3.749   0.344  0.00  0.00    -0.041 C 
ATOM     10  C   UNL     1      -2.143   5.006   1.007  0.00  0.00    -0.005 C 
ATOM     11  C   UNL     1      -0.677   4.205  -0.834  0.00  0.00    -0.005 C 
ATOM     12  C   UNL     1       0.048   1.047   2.488  0.00  0.00    -0.010 C 
ATOM     13  N   UNL     1      -0.716   3.061   1.375  0.00  0.00    +0.389 N 
ATOM     14  H   UNL     1       0.254   3.383   1.279  0.00  0.00    -0.084 HD
ATOM     15  H   UNL     1      -1.073   3.320   2.303  0.00  0.00    -0.084 HD
ENDROOT
BRANCH   6  16
ATOM     16  N   UNL     1      -5.905   1.487  -2.119  0.00  0.00    -0.275 N 
ATOM     17  C   UNL     1      -6.416   2.371  -3.000  0.00  0.00    +0.249 C 
ATOM     18  O   UNL     1      -5.900   3.464  -3.132  0.00  0.00    -0.270 OA
ATOM     19  H   UNL     1      -6.316   0.615  -2.014  0.00  0.00    +0.156 HD
BRANCH  17  20
ATOM     20  C   UNL     1      -7.603   2.011  -3.805  0.00  0.00    +0.037 A 
ATOM     21  C   UNL     1      -8.192   0.753  -3.658  0.00  0.00    +0.014 A 
ATOM     22  C   UNL     1      -9.301   0.420  -4.404  0.00  0.00    +0.016 A 
ATOM     23  C   UNL     1      -9.830   1.335  -5.316  0.00  0.00    +0.059 A 
ATOM     24  C   UNL     1      -9.238   2.591  -5.467  0.00  0.00    +0.016 A 
ATOM     25  C   UNL     1      -8.132   2.926  -4.717  0.00  0.00    +0.014 A 
BRANCH  23  26
ATOM     26  C   UNL     1     -11.018   0.975  -6.120  0.00  0.00    +0.339 C 
ATOM     27  O   UNL     1     -11.478   1.772  -6.913  0.00  0.00    -0.245 OA
BRANCH  26  28
ATOM     28  O   UNL     1     -11.589  -0.236  -5.974  0.00  0.00    -0.464 OA
ATOM     29  C   UNL     1     -12.751  -0.520  -6.796  0.00  0.00    +0.280 C 
ENDBRANCH  26  28
ENDBRANCH  23  26
ENDBRANCH  17  20
ENDBRANCH   6  16
BRANCH   5  30
ATOM     30  C   UNL     1      -4.574  -0.269  -0.103  0.00  0.00    +0.102 C 
ATOM     31  N   UNL     1      -4.927  -1.320   0.145  0.00  0.00    -0.191 NA
ENDBRANCH   5  30
TORSDOF 5
