REMARK  Name = ZINC16688415
REMARK  9 active torsions:
REMARK  status: ('A' for Active; 'I' for Inactive)
REMARK    1  A    between atoms: C_1  and  C_2
REMARK    2  A    between atoms: C_2  and  O_3
REMARK    3  A    between atoms: O_3  and  C_4
REMARK    4  A    between atoms: C_6  and  C_20
REMARK    5  A    between atoms: C_9  and  O_10
REMARK    6  A    between atoms: O_10  and  C_11
REMARK    7  A    between atoms: C_11  and  C_12
REMARK    8  A    between atoms: C_15  and  C_18
REMARK    9  A    between atoms: N_21  and  O_22
REMARK                            x       y       z     vdW  Elec       q    Type
REMARK                         _______ _______ _______ _____ _____    ______ ____
ROOT
ATOM      1  C   UNL     1       0.802  -1.825   1.306  0.00  0.00    +0.164 A 
ATOM      2  C   UNL     1       0.261  -2.669   0.354  0.00  0.00    +0.059 A 
ATOM      3  C   UNL     1       0.375  -4.053   0.507  0.00  0.00    +0.001 A 
ATOM      4  C   UNL     1       1.034  -4.578   1.621  0.00  0.00    +0.028 A 
ATOM      5  C   UNL     1       1.571  -3.730   2.567  0.00  0.00    +0.064 A 
ATOM      6  C   UNL     1       1.464  -2.355   2.412  0.00  0.00    +0.176 A 
ATOM      7 BR   UNL     1       2.464  -4.442   4.074  0.00  0.00    -0.046 Br
ENDROOT
BRANCH   3   8
ATOM      8  C   UNL     1      -0.201  -4.958  -0.506  0.00  0.00    +0.160 C 
ATOM      9  N   UNL     1      -0.096  -6.240  -0.363  0.00  0.00    -0.095 NA
BRANCH   9  10
ATOM     10  O   UNL     1      -0.648  -7.109  -1.335  0.00  0.00    -0.409 OA
ATOM     11  H   UNL     1      -0.519  -8.047  -1.142  0.00  0.00    +0.328 HD
ENDBRANCH   9  10
ENDBRANCH   3   8
BRANCH   1  12
ATOM     12  O   UNL     1       0.693  -0.477   1.160  0.00  0.00    -0.489 OA
BRANCH  12  14
ATOM     13  C   UNL     1      -0.019   1.526   0.010  0.00  0.00    +0.048 C 
ATOM     14  C   UNL     1       0.002  -0.004   0.002  0.00  0.00    +0.226 C 
ENDBRANCH  12  14
ENDBRANCH   1  12
BRANCH   6  15
ATOM     15  O   UNL     1       1.999  -1.523   3.343  0.00  0.00    -0.483 OA
BRANCH  15  16
ATOM     16  C   UNL     1       1.159  -1.144   4.435  0.00  0.00    +0.264 C 
BRANCH  16  17
ATOM     17  C   UNL     1       1.918  -0.227   5.359  0.00  0.00    -0.010 A 
ATOM     18  C   UNL     1       2.655  -0.754   6.404  0.00  0.00    +0.007 A 
ATOM     19  C   UNL     1       3.351   0.087   7.251  0.00  0.00    +0.004 A 
ATOM     20  C   UNL     1       3.311   1.455   7.054  0.00  0.00    -0.050 A 
ATOM     21  C   UNL     1       2.575   1.981   6.009  0.00  0.00    +0.004 A 
ATOM     22  C   UNL     1       1.882   1.140   5.159  0.00  0.00    +0.007 A 
ATOM     23  C   UNL     1       4.069   2.372   7.979  0.00  0.00    +0.044 C 
ENDBRANCH  16  17
ENDBRANCH  15  16
ENDBRANCH   6  15
TORSDOF 7
