REMARK  Name = ZINC62204431
REMARK  4 active torsions:
REMARK  status: ('A' for Active; 'I' for Inactive)
REMARK    1  A    between atoms: C_7  and  C_10
REMARK    2  A    between atoms: C_10  and  N_11
REMARK    3  A    between atoms: C_12  and  C_14
REMARK    4  A    between atoms: N_16  and  C_17
REMARK                            x       y       z     vdW  Elec       q    Type
REMARK                         _______ _______ _______ _____ _____    ______ ____
ROOT
ATOM      1  N   UNL     1      -0.246  -3.234  -1.378  0.00  0.00    -0.303 N 
ATOM      2  C   UNL     1      -1.307  -4.031  -1.613  0.00  0.00    +0.300 C 
ATOM      3  O   UNL     1      -1.806  -4.660  -0.703  0.00  0.00    -0.265 OA
ATOM      4  H   UNL     1       0.153  -2.731  -2.105  0.00  0.00    +0.149 HD
ENDROOT
BRANCH   2   5
ATOM      5  C   UNL     1      -1.869  -4.139  -2.992  0.00  0.00    +0.303 C 
ATOM      6  O   UNL     1      -1.370  -3.510  -3.902  0.00  0.00    -0.265 OA
ATOM      7  N   UNL     1      -2.930  -4.936  -3.227  0.00  0.00    -0.275 N 
ATOM      8  H   UNL     1      -3.289  -5.489  -2.514  0.00  0.00    +0.155 HD
BRANCH   7   9
ATOM      9  C   UNL     1      -3.515  -4.967  -4.497  0.00  0.00    +0.071 A 
ATOM     10  C   UNL     1      -2.724  -4.827  -5.630  0.00  0.00    +0.046 A 
ATOM     11  C   UNL     1      -3.305  -4.857  -6.884  0.00  0.00    +0.043 A 
ATOM     12  C   UNL     1      -4.673  -5.028  -7.011  0.00  0.00    +0.023 A 
ATOM     13  C   UNL     1      -5.463  -5.168  -5.886  0.00  0.00    +0.041 A 
ATOM     14  C   UNL     1      -4.888  -5.143  -4.628  0.00  0.00    +0.145 A 
ATOM     15  F   UNL     1      -5.660  -5.285  -3.528  0.00  0.00    -0.204 F 
ATOM     16 CL   UNL     1      -2.318  -4.682  -8.301  0.00  0.00    -0.083 Cl
ENDBRANCH   7   9
ENDBRANCH   2   5
BRANCH   1  17
ATOM     17  C   UNL     1       0.306  -3.127  -0.025  0.00  0.00    +0.141 C 
BRANCH  17  24
ATOM     18  C   UNL     1       0.024   1.329   0.024  0.00  0.00    +0.001 A 
ATOM     19  C   UNL     1       1.200   2.067   0.014  0.00  0.00    +0.001 A 
ATOM     20  C   UNL     1       2.415   1.410  -0.011  0.00  0.00    +0.015 A 
ATOM     21  C   UNL     1       2.442   0.032  -0.025  0.00  0.00    +0.020 A 
ATOM     22  C   UNL     1       1.261  -0.742  -0.015  0.00  0.00    -0.006 A 
ATOM     23  C   UNL     1       0.037  -0.030   0.010  0.00  0.00    +0.009 A 
ATOM     24  C   UNL     1       1.478  -2.181  -0.033  0.00  0.00    -0.016 A 
ATOM     25  C   UNL     1       2.732  -2.655  -0.057  0.00  0.00    +0.051 A 
ATOM     26  S   UNL     1       3.735  -1.182  -0.057  0.00  0.00    -0.096 S 
ENDBRANCH  17  24
ENDBRANCH   1  17
TORSDOF 4
