REMARK  Name = ZINC08748102
REMARK  11 active torsions:
REMARK  status: ('A' for Active; 'I' for Inactive)
REMARK    1  A    between atoms: C_1  and  C_2
REMARK    2  A    between atoms: C_2  and  C_3
REMARK    3  A    between atoms: C_2  and  N_4
REMARK    4  A    between atoms: N_4  and  S_5
REMARK    5  A    between atoms: S_5  and  C_8
REMARK    6  A    between atoms: C_8  and  C_9
REMARK    7  A    between atoms: C_14  and  C_15
REMARK    8  A    between atoms: C_15  and  N_63
REMARK    9  A    between atoms: C_16  and  C_18
REMARK   10  A    between atoms: C_16  and  C_24
REMARK   11  A    between atoms: C_16  and  N_63
REMARK                            x       y       z     vdW  Elec       q    Type
REMARK                         _______ _______ _______ _____ _____    ______ ____
ROOT
ATOM      1  N   UNL     1      -0.104   4.661   2.599  0.00  0.00    +0.392 N 
ATOM      2  H   UNL     1      -0.280   4.568   3.606  0.00  0.00    -0.084 HD
ATOM      3  H   UNL     1      -0.839   4.170   2.076  0.00  0.00    -0.084 HD
ENDROOT
BRANCH   1   4
ATOM      4  C   UNL     1       1.205   4.063   2.276  0.00  0.00    -0.045 C 
BRANCH   4  10
ATOM      5  C   UNL     1       0.595   1.678   1.828  0.00  0.00    -0.024 A 
ATOM      6  C   UNL     1       0.577   0.342   2.183  0.00  0.00    +0.005 A 
ATOM      7  C   UNL     1       1.163  -0.067   3.366  0.00  0.00    +0.000 A 
ATOM      8  C   UNL     1       1.759   0.862   4.199  0.00  0.00    +0.000 A 
ATOM      9  C   UNL     1       1.773   2.198   3.846  0.00  0.00    +0.002 A 
ATOM     10  C   UNL     1       1.190   2.606   2.661  0.00  0.00    -0.060 A 
BRANCH   5  11
ATOM     11  C   UNL     1      -0.040   2.122   0.535  0.00  0.00    +0.220 C 
BRANCH  11  12
ATOM     12  S   UNL     1       1.194   2.073  -0.793  0.00  0.00    +0.034 S 
ATOM     13  O   UNL     1       1.561   0.728  -1.071  0.00  0.00    -0.158 OA
ATOM     14  O   UNL     1       2.189   3.064  -0.575  0.00  0.00    -0.158 OA
BRANCH  12  15
ATOM     15  N   UNL     1       0.384   2.577  -2.146  0.00  0.00    -0.192 NA
ATOM     16  H   UNL     1       0.249   1.966  -2.887  0.00  0.00    +0.148 HD
BRANCH  15  18
ATOM     17  C   UNL     1      -0.022   4.451  -3.665  0.00  0.00    +0.025 C 
ATOM     18  C   UNL     1      -0.130   3.947  -2.224  0.00  0.00    +0.070 C 
ATOM     19  C   UNL     1      -1.595   3.968  -1.784  0.00  0.00    +0.025 C 
ENDBRANCH  15  18
ENDBRANCH  12  15
ENDBRANCH  11  12
ENDBRANCH   5  11
ENDBRANCH   4  10
ENDBRANCH   1   4
BRANCH   1  20
ATOM     20  C   UNL     1      -0.119   6.090   2.232  0.00  0.00    +0.047 C 
BRANCH  20  21
ATOM     21  C   UNL     1      -1.540   6.522   1.981  0.00  0.00    +0.206 C 
ATOM     22  O   UNL     1      -2.460   5.870   2.428  0.00  0.00    -0.277 OA
ATOM     23  N   UNL     1      -1.790   7.633   1.259  0.00  0.00    -0.303 N 
ATOM     24  C   UNL     1      -0.692   8.374   0.623  0.00  0.00    +0.107 C 
ATOM     25  C   UNL     1      -1.014   8.535  -0.871  0.00  0.00    +0.019 C 
ATOM     26  C   UNL     1      -2.387   9.193  -1.023  0.00  0.00    +0.003 C 
ATOM     27  C   UNL     1      -3.456   8.296  -0.395  0.00  0.00    +0.019 C 
ATOM     28  C   UNL     1      -3.163   8.129   1.099  0.00  0.00    +0.107 C 
ENDBRANCH  20  21
BRANCH  20  29
ATOM     29  C   UNL     1       0.462   6.904   3.359  0.00  0.00    -0.053 A 
ATOM     30  C   UNL     1       0.049   6.678   4.659  0.00  0.00    +0.002 A 
ATOM     31  C   UNL     1       0.585   7.422   5.694  0.00  0.00    +0.000 A 
ATOM     32  C   UNL     1       1.526   8.399   5.428  0.00  0.00    +0.000 A 
ATOM     33  C   UNL     1       1.935   8.629   4.127  0.00  0.00    +0.000 A 
ATOM     34  C   UNL     1       1.403   7.882   3.093  0.00  0.00    +0.002 A 
ENDBRANCH  20  29
ENDBRANCH   1  20
TORSDOF 9
