REMARK  Name = ZINC63699205
REMARK  13 active torsions:
REMARK  status: ('A' for Active; 'I' for Inactive)
REMARK    1  A    between atoms: C_1  and  C_2
REMARK    2  A    between atoms: C_6  and  C_34
REMARK    3  A    between atoms: N_8  and  C_10
REMARK    4  A    between atoms: C_10  and  C_11
REMARK    5  A    between atoms: C_13  and  C_19
REMARK    6  A    between atoms: C_16  and  O_17
REMARK    7  A    between atoms: O_17  and  C_18
REMARK    8  A    between atoms: N_20  and  N_21
REMARK    9  A    between atoms: C_22  and  C_24
REMARK   10  A    between atoms: C_27  and  C_30
REMARK   11  A    between atoms: C_30  and  C_31
REMARK   12  A    between atoms: C_30  and  C_32
REMARK   13  A    between atoms: C_30  and  C_33
REMARK                            x       y       z     vdW  Elec       q    Type
REMARK                         _______ _______ _______ _____ _____    ______ ____
ROOT
ATOM      1  C   UNL     1       2.304  -2.857   1.687  0.00  0.00    +0.010 A 
ATOM      2  C   UNL     1       3.407  -2.184   1.208  0.00  0.00    +0.018 A 
ATOM      3  C   UNL     1       4.587  -2.159   1.957  0.00  0.00    -0.005 A 
ATOM      4  C   UNL     1       4.642  -2.818   3.188  0.00  0.00    +0.013 A 
ATOM      5  C   UNL     1       3.534  -3.488   3.659  0.00  0.00    +0.046 A 
ATOM      6  C   UNL     1       2.361  -3.505   2.914  0.00  0.00    +0.125 A 
ENDROOT
BRANCH   6   7
ATOM      7  O   UNL     1       1.269  -4.162   3.385  0.00  0.00    -0.495 OA
ATOM      8  C   UNL     1       1.397  -4.807   4.653  0.00  0.00    +0.277 C 
ENDBRANCH   6   7
BRANCH   3   9
ATOM      9  C   UNL     1       5.770  -1.442   1.449  0.00  0.00    +0.138 C 
ATOM     10  N   UNL     1       6.865  -1.420   2.146  0.00  0.00    -0.188 NA
BRANCH  10  11
ATOM     11  N   UNL     1       7.989  -0.738   1.663  0.00  0.00    -0.205 N 
ATOM     12  C   UNL     1       9.126  -0.715   2.386  0.00  0.00    +0.262 C 
ATOM     13  O   UNL     1       9.175  -1.286   3.456  0.00  0.00    -0.271 OA
ATOM     14  H   UNL     1       7.949  -0.281   0.808  0.00  0.00    +0.177 HD
BRANCH  12  15
ATOM     15  C   UNL     1      10.335   0.018   1.867  0.00  0.00    +0.240 C 
ATOM     16  C   UNL     1      11.105  -0.844   0.882  0.00  0.00    +0.036 C 
ATOM     17  C   UNL     1      12.301  -0.995   1.454  0.00  0.00    +0.067 C 
ATOM     18  N   UNL     1      12.353  -0.345   2.638  0.00  0.00    -0.158 NA
ATOM     19  N   UNL     1      11.310   0.245   2.947  0.00  0.00    -0.170 NA
BRANCH  17  20
ATOM     20  C   UNL     1      13.441  -1.783   0.861  0.00  0.00    +0.006 C 
ATOM     21  C   UNL     1      13.007  -2.372  -0.484  0.00  0.00    +0.017 C 
ATOM     22  C   UNL     1      14.643  -0.861   0.650  0.00  0.00    +0.017 C 
ATOM     23  C   UNL     1      13.828  -2.916   1.813  0.00  0.00    +0.017 C 
ENDBRANCH  17  20
ENDBRANCH  12  15
ENDBRANCH  10  11
ENDBRANCH   3   9
BRANCH   1  24
ATOM     24  C   UNL     1       1.031  -2.884   0.881  0.00  0.00    +0.141 C 
BRANCH  24  29
ATOM     25  C   UNL     1      -0.019   1.526   0.010  0.00  0.00    +0.026 C 
ATOM     26  C   UNL     1       0.002  -0.004   0.002  0.00  0.00    +0.082 C 
ATOM     27  C   UNL     1      -1.437  -0.576   0.083  0.00  0.00    +0.093 C 
ATOM     28  C   UNL     1      -1.210  -1.964   0.723  0.00  0.00    +0.085 C 
ATOM     29  N   UNL     1       0.093  -1.885   1.411  0.00  0.00    -0.234 NA
ATOM     30  N   UNL     1       0.626  -0.532   1.244  0.00  0.00    -0.250 NA
ATOM     31  C   UNL     1      -2.322  -2.269   1.728  0.00  0.00    +0.027 C 
ATOM     32 BR   UNL     1      -2.572   0.549   1.228  0.00  0.00    -0.085 Br
ATOM     33  H   UNL     1       0.396   0.047   2.038  0.00  0.00    +0.141 HD
ENDBRANCH  24  29
ENDBRANCH   1  24
TORSDOF 7
