REMARK  Name = ZINC39702827
REMARK  9 active torsions:
REMARK  status: ('A' for Active; 'I' for Inactive)
REMARK    1  A    between atoms: C_1  and  C_2
REMARK    2  A    between atoms: C_7  and  C_12
REMARK    3  A    between atoms: C_12  and  C_32
REMARK    4  A    between atoms: C_13  and  C_14
REMARK    5  A    between atoms: C_18  and  O_30
REMARK    6  A    between atoms: C_19  and  O_20
REMARK    7  A    between atoms: O_20  and  C_21
REMARK    8  A    between atoms: C_21  and  C_22
REMARK    9  A    between atoms: O_30  and  C_31
REMARK                            x       y       z     vdW  Elec       q    Type
REMARK                         _______ _______ _______ _____ _____    ______ ____
ROOT
ATOM      1  C   UNL     1      -2.175  -7.045   3.106  0.00  0.00    +0.021 A 
ATOM      2  C   UNL     1      -3.476  -6.596   2.849  0.00  0.00    +0.012 A 
ATOM      3  C   UNL     1      -4.556  -7.303   3.329  0.00  0.00    +0.004 A 
ATOM      4  C   UNL     1      -4.363  -8.459   4.067  0.00  0.00    +0.049 A 
ATOM      5  C   UNL     1      -3.083  -8.916   4.331  0.00  0.00    +0.162 A 
ATOM      6  C   UNL     1      -1.982  -8.218   3.849  0.00  0.00    +0.169 A 
ENDROOT
BRANCH   1   8
ATOM      7  C   UNL     1      -1.082  -4.950   2.488  0.00  0.00    +0.072 C 
ATOM      8  C   UNL     1      -1.020  -6.294   2.595  0.00  0.00    +0.030 C 
BRANCH   7  15
ATOM      9  C   UNL     1       0.875   1.758   2.378  0.00  0.00    +0.044 C 
ATOM     10  C   UNL     1       0.502   0.379   1.898  0.00  0.00    -0.048 A 
ATOM     11  C   UNL     1      -0.146   0.249   0.657  0.00  0.00    +0.005 A 
ATOM     12  C   UNL     1      -0.515  -0.945   0.152  0.00  0.00    +0.027 A 
ATOM     13  C   UNL     1      -0.239  -2.171   0.913  0.00  0.00    +0.060 A 
ATOM     14  N   UNL     1      -0.475  -3.430   0.680  0.00  0.00    -0.359 N 
ATOM     15  C   UNL     1       0.040  -4.194   1.824  0.00  0.00    +0.216 C 
ATOM     16  N   UNL     1       0.608  -3.212   2.756  0.00  0.00    -0.359 N 
ATOM     17  C   UNL     1       0.447  -2.033   2.227  0.00  0.00    +0.061 A 
ATOM     18  C   UNL     1       0.807  -0.680   2.674  0.00  0.00    +0.030 A 
ATOM     19  H   UNL     1      -0.911  -3.796  -0.105  0.00  0.00    +0.162 HD
ATOM     20  H   UNL     1       1.027  -3.406   3.609  0.00  0.00    +0.162 HD
ENDBRANCH   7  15
BRANCH   7  21
ATOM     21  C   UNL     1      -2.214  -4.242   3.006  0.00  0.00    +0.099 C 
ATOM     22  N   UNL     1      -3.112  -3.681   3.416  0.00  0.00    -0.191 NA
ENDBRANCH   7  21
ENDBRANCH   1   8
BRANCH   5  23
ATOM     23  O   UNL     1      -2.902 -10.052   5.058  0.00  0.00    -0.491 OA
ATOM     24  C   UNL     1      -4.078 -10.722   5.517  0.00  0.00    +0.277 C 
ENDBRANCH   5  23
BRANCH   6  25
ATOM     25  O   UNL     1      -0.725  -8.667   4.100  0.00  0.00    -0.483 OA
BRANCH  25  26
ATOM     26  C   UNL     1      -0.094  -8.197   5.293  0.00  0.00    +0.266 C 
BRANCH  26  27
ATOM     27  C   UNL     1       1.284  -8.797   5.403  0.00  0.00    +0.008 A 
ATOM     28  C   UNL     1       1.745  -9.654   4.421  0.00  0.00    +0.010 A 
ATOM     29  C   UNL     1       3.008 -10.205   4.521  0.00  0.00    +0.020 A 
ATOM     30  C   UNL     1       3.813  -9.898   5.604  0.00  0.00    +0.042 A 
ATOM     31  C   UNL     1       3.353  -9.041   6.587  0.00  0.00    +0.040 A 
ATOM     32  C   UNL     1       2.089  -8.486   6.484  0.00  0.00    +0.049 A 
ATOM     33 CL   UNL     1       1.513  -7.405   7.713  0.00  0.00    -0.083 Cl
ATOM     34 CL   UNL     1       5.400 -10.591   5.730  0.00  0.00    -0.083 Cl
ENDBRANCH  26  27
ENDBRANCH  25  26
ENDBRANCH   6  25
TORSDOF 7
