REMARK  Name = ZINC01230592
REMARK  9 active torsions:
REMARK  status: ('A' for Active; 'I' for Inactive)
REMARK    1  A    between atoms: C_1  and  C_2
REMARK    2  A    between atoms: C_2  and  O_3
REMARK    3  A    between atoms: O_3  and  C_4
REMARK    4  A    between atoms: C_8  and  C_11
REMARK    5  A    between atoms: C_9  and  O_10
REMARK    6  A    between atoms: N_12  and  C_13
REMARK    7  A    between atoms: C_15  and  C_21
REMARK    8  A    between atoms: C_17  and  C_20
REMARK    9  A    between atoms: C_18  and  O_19
REMARK                            x       y       z     vdW  Elec       q    Type
REMARK                         _______ _______ _______ _____ _____    ______ ____
ROOT
ATOM      1  C   UNL     1       8.404  -0.632  -0.499  0.00  0.00    +0.163 A 
ATOM      2  C   UNL     1       8.416  -2.018  -0.504  0.00  0.00    +0.065 A 
ATOM      3  C   UNL     1       7.232  -2.729  -0.393  0.00  0.00    +0.036 A 
ATOM      4  C   UNL     1       6.029  -2.064  -0.269  0.00  0.00    +0.044 A 
ATOM      5  C   UNL     1       6.001  -0.665  -0.267  0.00  0.00    +0.053 A 
ATOM      6  C   UNL     1       7.200   0.053  -0.381  0.00  0.00    +0.168 A 
ATOM      7 BR   UNL     1       4.419  -3.043  -0.109  0.00  0.00    -0.048 Br
ATOM      8 BR   UNL     1       7.266  -4.620  -0.403  0.00  0.00    -0.049 Br
ENDROOT
BRANCH   6   9
ATOM      9  O   UNL     1       7.186   1.411  -0.375  0.00  0.00    -0.503 OA
ATOM     10  H   UNL     1       7.267   1.801   0.506  0.00  0.00    +0.292 HD
ENDBRANCH   6   9
BRANCH   5  11
ATOM     11  C   UNL     1       4.722   0.049  -0.141  0.00  0.00    +0.124 C 
ATOM     12  N   UNL     1       3.609  -0.622  -0.035  0.00  0.00    -0.251 NA
BRANCH  12  13
ATOM     13  C   UNL     1       2.432   0.037   0.191  0.00  0.00    +0.106 A 
ATOM     14  C   UNL     1       2.351   1.006   1.194  0.00  0.00    +0.034 A 
ATOM     15  C   UNL     1       1.161   1.666   1.417  0.00  0.00    -0.048 A 
ATOM     16  C   UNL     1       0.046   1.374   0.651  0.00  0.00    +0.010 A 
ATOM     17  C   UNL     1       0.114   0.417  -0.344  0.00  0.00    -0.007 A 
ATOM     18  C   UNL     1       1.300  -0.256  -0.582  0.00  0.00    +0.145 A 
ATOM     19  C   UNL     1      -1.106   0.106  -1.173  0.00  0.00    +0.047 C 
ATOM     20  C   UNL     1       1.075   2.711   2.500  0.00  0.00    +0.044 C 
BRANCH  18  21
ATOM     21  O   UNL     1       1.367  -1.197  -1.560  0.00  0.00    -0.504 OA
ATOM     22  H   UNL     1       1.623  -0.847  -2.425  0.00  0.00    +0.292 HD
ENDBRANCH  18  21
ENDBRANCH  12  13
ENDBRANCH   5  11
BRANCH   1  23
ATOM     23  O   UNL     1       9.571   0.058  -0.610  0.00  0.00    -0.489 OA
BRANCH  23  25
ATOM     24  C   UNL     1      11.970   0.232  -0.841  0.00  0.00    +0.048 C 
ATOM     25  C   UNL     1      10.770  -0.710  -0.728  0.00  0.00    +0.226 C 
ENDBRANCH  23  25
ENDBRANCH   1  23
TORSDOF 6
