REMARK  Name = ZINC00167814
REMARK  3 active torsions:
REMARK  status: ('A' for Active; 'I' for Inactive)
REMARK    1  A    between atoms: C_4  and  C_8
REMARK    2  A    between atoms: C_8  and  C_10
REMARK    3  A    between atoms: C_8  and  C_12
REMARK                            x       y       z     vdW  Elec       q    Type
REMARK                         _______ _______ _______ _____ _____    ______ ____
ROOT
ATOM      1  C   UNL     1      -1.292  -0.776   0.011  0.00  0.00    +0.174 C 
ENDROOT
BRANCH   1   5
ATOM      2  C   UNL     1       1.097   2.629   0.993  0.00  0.00    +0.003 A 
ATOM      3  C   UNL     1       1.686   1.385   0.863  0.00  0.00    +0.020 A 
ATOM      4  C   UNL     1       0.913   0.283   0.545  0.00  0.00    +0.047 A 
ATOM      5  C   UNL     1      -0.450   0.425   0.357  0.00  0.00    +0.012 A 
ATOM      6  C   UNL     1      -1.039   1.669   0.488  0.00  0.00    +0.047 A 
ATOM      7  C   UNL     1      -0.265   2.771   0.806  0.00  0.00    +0.020 A 
ATOM      8 CL   UNL     1      -2.750   1.849   0.254  0.00  0.00    -0.083 Cl
ATOM      9 CL   UNL     1       1.653  -1.280   0.388  0.00  0.00    -0.083 Cl
ENDBRANCH   1   5
BRANCH   1  10
ATOM     10  C   UNL     1      -1.295  -1.739   1.169  0.00  0.00    +0.085 A 
ATOM     11  C   UNL     1      -0.623  -2.947   1.070  0.00  0.00    +0.030 A 
ATOM     12  C   UNL     1      -0.650  -3.800   2.165  0.00  0.00    +0.044 A 
ATOM     13  C   UNL     1      -1.357  -3.395   3.288  0.00  0.00    +0.151 A 
ATOM     14  N   UNL     1      -1.972  -2.226   3.290  0.00  0.00    -0.137 NA
ATOM     15  N   UNL     1      -1.942  -1.437   2.279  0.00  0.00    -0.151 NA
ATOM     16 CL   UNL     1      -1.432  -4.420   4.686  0.00  0.00    -0.060 Cl
ENDBRANCH   1  10
BRANCH   1  17
ATOM     17  C   UNL     1      -0.734  -1.440  -1.178  0.00  0.00    +0.077 C 
ATOM     18  N   UNL     1      -0.303  -1.952  -2.096  0.00  0.00    -0.196 NA
ENDBRANCH   1  17
TORSDOF 3
