REMARK  Name = ZINC66248666
REMARK  5 active torsions:
REMARK  status: ('A' for Active; 'I' for Inactive)
REMARK    1  A    between atoms: C_5  and  C_7
REMARK    2  A    between atoms: C_8  and  S_9
REMARK    3  A    between atoms: S_9  and  N_12
REMARK    4  A    between atoms: C_15  and  C_18
REMARK    5  A    between atoms: C_18  and  N_19
REMARK                            x       y       z     vdW  Elec       q    Type
REMARK                         _______ _______ _______ _____ _____    ______ ____
ROOT
ATOM      1  N   UNL     1      -0.500  -5.116   1.410  0.00  0.00    -0.104 NA
ATOM      2  C   UNL     1      -0.596  -6.398   1.667  0.00  0.00    +0.191 A 
ATOM      3  N   UNL     1      -1.100  -7.030   2.783  0.00  0.00    -0.338 N 
ATOM      4  C   UNL     1      -1.093  -8.393   2.817  0.00  0.00    +0.008 A 
ATOM      5  C   UNL     1      -0.607  -9.088   1.788  0.00  0.00    +0.068 A 
ATOM      6  S   UNL     1      -0.117  -7.793   0.660  0.00  0.00    -0.057 S 
ATOM      7  H   UNL     1      -1.451  -6.517   3.527  0.00  0.00    +0.167 HD
ENDROOT
BRANCH   1   8
ATOM      8  S   UNL     1       0.145  -4.606  -0.027  0.00  0.00    +0.094 S 
ATOM      9  O   UNL     1      -0.753  -5.022  -1.046  0.00  0.00    -0.147 OA
ATOM     10  O   UNL     1       1.514  -4.987  -0.016  0.00  0.00    -0.147 OA
BRANCH   8  12
ATOM     11  C   UNL     1       1.249  -2.160  -0.023  0.00  0.00    +0.030 C 
ATOM     12  C   UNL     1       0.113  -2.844  -0.016  0.00  0.00    +0.161 C 
BRANCH  11  17
ATOM     13  C   UNL     1      -0.017   1.375   0.010  0.00  0.00    +0.001 A 
ATOM     14  C   UNL     1       1.170   2.087   0.002  0.00  0.00    +0.001 A 
ATOM     15  C   UNL     1       2.382   1.422  -0.013  0.00  0.00    +0.020 A 
ATOM     16  C   UNL     1       2.416   0.041  -0.021  0.00  0.00    +0.048 A 
ATOM     17  C   UNL     1       1.221  -0.682  -0.014  0.00  0.00    -0.005 A 
ATOM     18  C   UNL     1       0.002  -0.004   0.002  0.00  0.00    +0.009 A 
ATOM     19 CL   UNL     1       3.938  -0.793  -0.042  0.00  0.00    -0.083 Cl
ENDBRANCH  11  17
ENDBRANCH   8  12
ENDBRANCH   1   8
BRANCH   4  20
ATOM     20  C   UNL     1      -1.636  -9.117   4.022  0.00  0.00    -0.024 C 
BRANCH  20  21
ATOM     21  N   UNL     1      -0.797  -8.820   5.191  0.00  0.00    +0.383 N 
ATOM     22  C   UNL     1       0.550  -9.363   4.976  0.00  0.00    -0.078 C 
ATOM     23  C   UNL     1       1.450  -8.986   6.155  0.00  0.00    -0.019 C 
ATOM     24  C   UNL     1       0.864  -9.568   7.444  0.00  0.00    -0.004 C 
ATOM     25  C   UNL     1      -0.568  -9.053   7.620  0.00  0.00    -0.019 C 
ATOM     26  C   UNL     1      -1.393  -9.428   6.387  0.00  0.00    -0.078 C 
ATOM     27  H   UNL     1      -0.739  -7.821   5.317  0.00  0.00    -0.081 HD
ENDBRANCH  20  21
ENDBRANCH   4  20
TORSDOF 5
