REMARK  Name = ZINC32069991
REMARK  7 active torsions:
REMARK  status: ('A' for Active; 'I' for Inactive)
REMARK    1  A    between atoms: C_1  and  C_2
REMARK    2  A    between atoms: C_5  and  C_24
REMARK    3  A    between atoms: N_8  and  C_10
REMARK    4  A    between atoms: C_10  and  C_12
REMARK    5  A    between atoms: C_10  and  C_14
REMARK    6  A    between atoms: C_12  and  N_13
REMARK    7  A    between atoms: C_18  and  N_20
REMARK                            x       y       z     vdW  Elec       q    Type
REMARK                         _______ _______ _______ _____ _____    ______ ____
ROOT
ATOM      1  C   UNL     1      -2.513   0.979   0.019  0.00  0.00    -0.056 C 
ENDROOT
BRANCH   1   7
ATOM      2  C   UNL     1      -3.948   4.416   1.980  0.00  0.00    +0.005 C 
ATOM      3  C   UNL     1      -3.893   3.120   2.792  0.00  0.00    -0.031 C 
ATOM      4  C   UNL     1      -5.296   2.513   2.880  0.00  0.00    +0.003 C 
ATOM      5  C   UNL     1      -5.780   2.161   1.471  0.00  0.00    -0.031 C 
ATOM      6  C   UNL     1      -4.787   1.194   0.822  0.00  0.00    -0.075 C 
ATOM      7  N   UNL     1      -3.461   1.822   0.760  0.00  0.00    +0.383 N 
ATOM      8  C   UNL     1      -2.954   2.126   2.104  0.00  0.00    -0.075 C 
ATOM      9  C   UNL     1      -7.157   1.498   1.555  0.00  0.00    +0.005 C 
ATOM     10  H   UNL     1      -3.565   2.773   0.218  0.00  0.00    -0.081 HD
ENDBRANCH   1   7
BRANCH   1  11
ATOM     11  C   UNL     1      -2.537   1.359  -1.439  0.00  0.00    -0.060 A 
ATOM     12  C   UNL     1      -3.744   1.579  -2.077  0.00  0.00    +0.003 A 
ATOM     13  C   UNL     1      -3.766   1.921  -3.416  0.00  0.00    +0.022 A 
ATOM     14  C   UNL     1      -2.579   2.051  -4.116  0.00  0.00    +0.071 A 
ATOM     15  C   UNL     1      -1.372   1.837  -3.476  0.00  0.00    +0.145 A 
ATOM     16  C   UNL     1      -1.351   1.494  -2.137  0.00  0.00    +0.036 A 
ATOM     17 CL   UNL     1      -2.606   2.481  -5.798  0.00  0.00    -0.081 Cl
BRANCH  15  18
ATOM     18  N   UNL     1      -0.102   1.976  -4.224  0.00  0.00    +0.058 N 
ATOM     19  O   UNL     1       0.961   1.788  -3.660  0.00  0.00    -0.126 OA
ATOM     20  O   UNL     1      -0.121   2.278  -5.404  0.00  0.00    -0.126 OA
ENDBRANCH  15  18
ENDBRANCH   1  11
BRANCH   1  21
ATOM     21  C   UNL     1      -2.913  -0.490   0.169  0.00  0.00    -0.098 C 
BRANCH  21  22
ATOM     22  N   UNL     1      -2.947  -0.846   1.594  0.00  0.00    +0.377 N 
ATOM     23  H   UNL     1      -3.234  -1.902   1.702  0.00  0.00    -0.090 HD
ATOM     24  H   UNL     1      -3.681  -0.211   2.112  0.00  0.00    -0.090 HD
ATOM     25  H   UNL     1      -1.951  -0.689   2.034  0.00  0.00    -0.090 HD
ENDBRANCH  21  22
ENDBRANCH   1  21
TORSDOF 5
