REMARK  Name = ZINC23077947
REMARK  16 active torsions:
REMARK  status: ('A' for Active; 'I' for Inactive)
REMARK    1  A    between atoms: C_1  and  C_2
REMARK    2  A    between atoms: C_2  and  C_3
REMARK    3  A    between atoms: C_3  and  C_4
REMARK    4  A    between atoms: C_4  and  C_5
REMARK    5  A    between atoms: C_8  and  C_11
REMARK    6  A    between atoms: N_13  and  C_14
REMARK    7  A    between atoms: N_13  and  C_19
REMARK    8  A    between atoms: C_14  and  C_15
REMARK    9  A    between atoms: C_15  and  C_16
REMARK   10  A    between atoms: C_16  and  C_17
REMARK   11  A    between atoms: C_16  and  C_18
REMARK   12  A    between atoms: C_20  and  N_32
REMARK   13  A    between atoms: N_21  and  C_28
REMARK   14  A    between atoms: C_28  and  C_29
REMARK   15  A    between atoms: C_29  and  C_30
REMARK   16  A    between atoms: C_30  and  C_31
REMARK                            x       y       z     vdW  Elec       q    Type
REMARK                         _______ _______ _______ _____ _____    ______ ____
ROOT
ATOM      1  C   UNL     1      -1.799  -4.437  -4.000  0.00  0.00    +0.223 C 
ATOM      2  O   UNL     1      -2.028  -5.258  -4.863  0.00  0.00    -0.275 OA
ATOM      3  N   UNL     1      -1.294  -4.829  -2.812  0.00  0.00    -0.264 N 
ENDROOT
BRANCH   3   4
ATOM      4  C   UNL     1      -1.109  -3.887  -1.778  0.00  0.00    +0.140 A 
ATOM      5  C   UNL     1      -0.076  -2.974  -1.837  0.00  0.00    +0.127 A 
ATOM      6  N   UNL     1       0.082  -2.072  -0.811  0.00  0.00    -0.280 N 
ATOM      7  C   UNL     1      -0.767  -2.072   0.233  0.00  0.00    +0.331 A 
ATOM      8  O   UNL     1      -0.613  -1.264   1.128  0.00  0.00    -0.246 OA
ATOM      9  N   UNL     1      -1.782  -2.951   0.305  0.00  0.00    -0.273 N 
ATOM     10  H   UNL     1      -2.465  -2.934   1.167  0.00  0.00    +0.173 HD
ATOM     11  C   UNL     1      -1.978  -3.859  -0.671  0.00  0.00    +0.277 A 
ATOM     12  O   UNL     1      -2.902  -4.651  -0.596  0.00  0.00    -0.266 OA
BRANCH   5  13
ATOM     13  N   UNL     1       0.787  -2.970  -2.906  0.00  0.00    -0.343 N 
ATOM     14  H   UNL     1       1.609  -2.239  -2.947  0.00  0.00    +0.144 HD
ATOM     15  H   UNL     1       0.657  -3.697  -3.721  0.00  0.00    +0.144 HD
ENDBRANCH   5  13
BRANCH   6  16
ATOM     16  C   UNL     1       1.178  -1.101  -0.858  0.00  0.00    +0.128 C 
BRANCH  16  17
ATOM     17  C   UNL     1       2.414  -1.694  -0.180  0.00  0.00    +0.021 C 
BRANCH  17  18
ATOM     18  C   UNL     1       3.559  -0.679  -0.229  0.00  0.00    -0.002 C 
ATOM     19  C   UNL     1       4.795  -1.273   0.450  0.00  0.00    +0.004 C 
ENDBRANCH  17  18
ENDBRANCH  16  17
ENDBRANCH   6  16
ENDBRANCH   3   4
BRANCH   1  23
ATOM     20  C   UNL     1      -4.817  -3.156  -5.283  0.00  0.00    -0.011 C 
ATOM     21  C   UNL     1      -3.618  -3.599  -6.123  0.00  0.00    +0.004 C 
ATOM     22  C   UNL     1      -2.391  -2.770  -5.739  0.00  0.00    +0.013 C 
ATOM     23  C   UNL     1      -2.079  -2.978  -4.255  0.00  0.00    +0.076 C 
ATOM     24  C   UNL     1      -3.278  -2.534  -3.415  0.00  0.00    +0.013 C 
ATOM     25  C   UNL     1      -4.505  -3.364  -3.800  0.00  0.00    +0.004 C 
BRANCH  20  26
ATOM     26  C   UNL     1      -6.044  -3.985  -5.668  0.00  0.00    +0.003 C 
BRANCH  26  27
ATOM     27  C   UNL     1      -7.270  -3.459  -4.919  0.00  0.00    +0.000 C 
BRANCH  27  29
ATOM     28  C   UNL     1      -9.723  -3.762  -4.555  0.00  0.00    +0.004 C 
ATOM     29  C   UNL     1      -8.497  -4.288  -5.303  0.00  0.00    -0.003 C 
ENDBRANCH  27  29
ENDBRANCH  26  27
ENDBRANCH  20  26
ENDBRANCH   1  23
BRANCH   3  30
ATOM     30  C   UNL     1      -0.938  -6.234  -2.596  0.00  0.00    +0.114 C 
BRANCH  30  31
ATOM     31  C   UNL     1      -2.146  -6.985  -2.031  0.00  0.00    +0.022 C 
BRANCH  31  32
ATOM     32  C   UNL     1      -1.818  -8.476  -1.931  0.00  0.00    -0.016 C 
ATOM     33  C   UNL     1      -0.698  -8.685  -0.911  0.00  0.00    +0.007 C 
ATOM     34  C   UNL     1      -3.064  -9.243  -1.485  0.00  0.00    +0.007 C 
ENDBRANCH  31  32
ENDBRANCH  30  31
ENDBRANCH   3  30
TORSDOF 12
