REMARK  Name = ZINC00804029
REMARK  7 active torsions:
REMARK  status: ('A' for Active; 'I' for Inactive)
REMARK    1  A    between atoms: C_4  and  C_7
REMARK    2  A    between atoms: C_7  and  C_8
REMARK    3  A    between atoms: C_11  and  C_22
REMARK    4  A    between atoms: C_17  and  N_21
REMARK    5  A    between atoms: C_18  and  C_19
REMARK    6  A    between atoms: C_22  and  S_23
REMARK    7  A    between atoms: S_23  and  C_24
REMARK                            x       y       z     vdW  Elec       q    Type
REMARK                         _______ _______ _______ _____ _____    ______ ____
ROOT
ATOM      1  C   UNL     1       4.171  -0.963   1.399  0.00  0.00    +0.076 C 
ATOM      2  C   UNL     1       5.431  -1.792   1.390  0.00  0.00    +0.046 A 
ATOM      3  C   UNL     1       5.599  -3.090   1.096  0.00  0.00    +0.054 A 
ATOM      4  N   UNL     1       6.916  -3.372   1.228  0.00  0.00    -0.277 N 
ATOM      5  H   UNL     1       7.331  -4.236   1.078  0.00  0.00    +0.189 HD
ATOM      6  N   UNL     1       7.577  -2.197   1.619  0.00  0.00    -0.135 NA
ATOM      7  C   UNL     1       6.692  -1.248   1.718  0.00  0.00    +0.244 A 
ATOM      8  O   UNL     1       6.846   0.057   2.067  0.00  0.00    -0.422 OA
ATOM      9  C   UNL     1       5.732   0.759   2.354  0.00  0.00    +0.200 C 
ATOM     10  C   UNL     1       4.476   0.348   2.077  0.00  0.00    +0.094 C 
ENDROOT
BRANCH   9  11
ATOM     11  N   UNL     1       5.885   1.976   2.971  0.00  0.00    -0.328 N 
ATOM     12  H   UNL     1       6.772   2.303   3.185  0.00  0.00    +0.145 HD
ATOM     13  H   UNL     1       5.105   2.508   3.193  0.00  0.00    +0.145 HD
ENDBRANCH   9  11
BRANCH  10  14
ATOM     14  C   UNL     1       3.382   1.197   2.445  0.00  0.00    +0.100 C 
ATOM     15  N   UNL     1       2.515   1.870   2.736  0.00  0.00    -0.191 NA
ENDBRANCH  10  14
BRANCH   1  16
ATOM     16  C   UNL     1       3.711  -0.707  -0.038  0.00  0.00    +0.049 C 
BRANCH  16  20
ATOM     17  C   UNL     1      -0.017   1.378   0.010  0.00  0.00    +0.000 A 
ATOM     18  C   UNL     1       1.171   2.086   0.002  0.00  0.00    +0.000 A 
ATOM     19  C   UNL     1       2.377   1.411  -0.013  0.00  0.00    +0.003 A 
ATOM     20  C   UNL     1       2.396   0.029  -0.020  0.00  0.00    -0.046 A 
ATOM     21  C   UNL     1       1.208  -0.679  -0.012  0.00  0.00    +0.003 A 
ATOM     22  C   UNL     1       0.002  -0.004   0.002  0.00  0.00    +0.000 A 
ENDBRANCH  16  20
ENDBRANCH   1  16
BRANCH   3  23
ATOM     23  C   UNL     1       4.518  -4.058   0.692  0.00  0.00    +0.129 C 
BRANCH  23  24
ATOM     24  S   UNL     1       4.335  -4.042  -1.113  0.00  0.00    -0.119 S 
BRANCH  24  25
ATOM     25  C   UNL     1       3.052  -5.209  -1.422  0.00  0.00    +0.008 A 
ATOM     26  C   UNL     1       2.447  -5.876  -0.363  0.00  0.00    +0.015 A 
ATOM     27  C   UNL     1       1.441  -6.789  -0.609  0.00  0.00    +0.001 A 
ATOM     28  C   UNL     1       1.036  -7.042  -1.907  0.00  0.00    +0.000 A 
ATOM     29  C   UNL     1       1.636  -6.380  -2.963  0.00  0.00    +0.001 A 
ATOM     30  C   UNL     1       2.638  -5.461  -2.725  0.00  0.00    +0.015 A 
ENDBRANCH  24  25
ENDBRANCH  23  24
ENDBRANCH   3  23
TORSDOF 7
