REMARK  Name = ZINC00823003
REMARK  9 active torsions:
REMARK  status: ('A' for Active; 'I' for Inactive)
REMARK    1  A    between atoms: C_1  and  C_2
REMARK    2  A    between atoms: C_3  and  O_32
REMARK    3  A    between atoms: C_6  and  C_10
REMARK    4  A    between atoms: C_7  and  O_8
REMARK    5  A    between atoms: O_8  and  C_9
REMARK    6  A    between atoms: C_12  and  C_30
REMARK    7  A    between atoms: C_13  and  N_29
REMARK    8  A    between atoms: C_20  and  C_23
REMARK    9  A    between atoms: O_32  and  C_33
REMARK                            x       y       z     vdW  Elec       q    Type
REMARK                         _______ _______ _______ _____ _____    ______ ____
ROOT
ATOM      1  C   UNL     1       0.410  -2.324  -0.519  0.00  0.00    +0.105 C 
ATOM      2  C   UNL     1       1.374  -1.264  -0.977  0.00  0.00    +0.098 C 
ATOM      3  C   UNL     1       1.033   0.045  -0.913  0.00  0.00    +0.198 C 
ATOM      4  O   UNL     1      -0.164   0.435  -0.449  0.00  0.00    -0.445 OA
ATOM      5  C   UNL     1      -0.874  -0.386   0.348  0.00  0.00    +0.115 C 
ATOM      6  C   UNL     1      -0.651  -1.712   0.364  0.00  0.00    +0.046 C 
ATOM      7  C   UNL     1      -1.392  -2.570   1.199  0.00  0.00    +0.164 C 
ATOM      8  O   UNL     1      -1.177  -3.765   1.169  0.00  0.00    -0.292 OA
ATOM      9  C   UNL     1      -2.445  -2.032   2.129  0.00  0.00    +0.088 C 
ATOM     10  C   UNL     1      -2.080  -0.594   2.512  0.00  0.00    +0.034 C 
ATOM     11  C   UNL     1      -1.937   0.227   1.229  0.00  0.00    +0.083 C 
ENDROOT
BRANCH   1  17
ATOM     12  C   UNL     1      -0.012  -6.170  -3.707  0.00  0.00    +0.051 C 
ATOM     13  C   UNL     1      -0.444  -4.801  -3.247  0.00  0.00    +0.033 A 
ATOM     14  C   UNL     1      -1.444  -4.123  -3.927  0.00  0.00    +0.126 A 
ATOM     15  C   UNL     1      -1.840  -2.863  -3.502  0.00  0.00    +0.046 A 
ATOM     16  C   UNL     1      -1.239  -2.284  -2.400  0.00  0.00    +0.012 A 
ATOM     17  C   UNL     1      -0.243  -2.958  -1.720  0.00  0.00    +0.008 A 
ATOM     18  C   UNL     1       0.161  -4.216  -2.145  0.00  0.00    +0.131 A 
BRANCH  18  19
ATOM     19  O   UNL     1       1.144  -4.876  -1.479  0.00  0.00    -0.494 OA
ATOM     20  C   UNL     1       0.743  -5.711  -0.390  0.00  0.00    +0.277 C 
ENDBRANCH  18  19
BRANCH  14  21
ATOM     21  O   UNL     1      -2.035  -4.692  -5.011  0.00  0.00    -0.495 OA
ATOM     22  C   UNL     1      -3.057  -3.936  -5.664  0.00  0.00    +0.277 C 
ENDBRANCH  14  21
ENDBRANCH   1  17
BRANCH  10  23
ATOM     23  C   UNL     1      -3.170  -0.006   3.371  0.00  0.00    -0.043 A 
ATOM     24  C   UNL     1      -4.456   0.104   2.877  0.00  0.00    +0.004 A 
ATOM     25  C   UNL     1      -5.456   0.640   3.667  0.00  0.00    +0.000 A 
ATOM     26  C   UNL     1      -5.168   1.074   4.947  0.00  0.00    +0.000 A 
ATOM     27  C   UNL     1      -3.881   0.968   5.439  0.00  0.00    +0.000 A 
ATOM     28  C   UNL     1      -2.881   0.429   4.651  0.00  0.00    +0.004 A 
ENDBRANCH  10  23
BRANCH   3  29
ATOM     29  N   UNL     1       1.932   0.995  -1.333  0.00  0.00    -0.328 N 
ATOM     30  H   UNL     1       1.699   1.935  -1.291  0.00  0.00    +0.145 HD
ATOM     31  H   UNL     1       2.800   0.725  -1.670  0.00  0.00    +0.145 HD
ENDBRANCH   3  29
BRANCH   2  32
ATOM     32  C   UNL     1       2.659  -1.642  -1.483  0.00  0.00    +0.101 C 
ATOM     33  N   UNL     1       3.679  -1.942  -1.885  0.00  0.00    -0.191 NA
ENDBRANCH   2  32
TORSDOF 6
