REMARK  Name = ZINC24767504
REMARK  10 active torsions:
REMARK  status: ('A' for Active; 'I' for Inactive)
REMARK    1  A    between atoms: C_1  and  C_2
REMARK    2  A    between atoms: C_2  and  O_3
REMARK    3  A    between atoms: O_3  and  C_4
REMARK    4  A    between atoms: C_4  and  C_6
REMARK    5  A    between atoms: C_7  and  C_30
REMARK    6  A    between atoms: C_9  and  N_11
REMARK    7  A    between atoms: C_12  and  C_14
REMARK    8  A    between atoms: C_14  and  N_15
REMARK    9  A    between atoms: C_18  and  C_22
REMARK   10  A    between atoms: C_18  and  C_23
REMARK                            x       y       z     vdW  Elec       q    Type
REMARK                         _______ _______ _______ _____ _____    ______ ____
ROOT
ATOM      1  C   UNL     1       3.425   6.124   2.838  0.00  0.00    +0.214 C 
ENDROOT
BRANCH   1   2
ATOM      2  N   UNL     1       3.215   5.103   1.808  0.00  0.00    -0.215 N 
ATOM      3  C   UNL     1       2.319   5.211   0.807  0.00  0.00    +0.251 C 
ATOM      4  O   UNL     1       1.565   6.137   0.596  0.00  0.00    -0.272 OA
ATOM      5  C   UNL     1       2.452   3.936  -0.002  0.00  0.00    +0.135 C 
ATOM      6  N   UNL     1       3.506   3.187   0.704  0.00  0.00    -0.281 N 
ATOM      7  C   UNL     1       3.888   3.948   1.745  0.00  0.00    +0.310 C 
ATOM      8  O   UNL     1       4.748   3.624   2.540  0.00  0.00    -0.252 OA
ATOM      9  C   UNL     1       2.882   4.247  -1.437  0.00  0.00    +0.047 C 
ATOM     10  H   UNL     1       3.820   2.200   0.335  0.00  0.00    +0.152 HD
BRANCH   5  11
ATOM     11  C   UNL     1       1.157   3.166   0.007  0.00  0.00    -0.014 A 
ATOM     12  C   UNL     1       1.175   1.783   0.000  0.00  0.00    +0.006 A 
ATOM     13  C   UNL     1      -0.013   1.076   0.008  0.00  0.00    +0.001 A 
ATOM     14  C   UNL     1      -1.219   1.751   0.017  0.00  0.00    +0.015 A 
ATOM     15  C   UNL     1      -1.238   3.133   0.029  0.00  0.00    +0.018 A 
ATOM     16  C   UNL     1      -0.049   3.841   0.021  0.00  0.00    +0.021 A 
ATOM     17 BR   UNL     1      -2.888   4.057   0.049  0.00  0.00    -0.050 Br
ENDBRANCH   5  11
ENDBRANCH   1   2
BRANCH   1  19
ATOM     18  N   UNL     1       4.846   8.122   3.166  0.00  0.00    -0.279 N 
ATOM     19  C   UNL     1       4.484   7.092   2.376  0.00  0.00    +0.236 C 
ATOM     20  O   UNL     1       5.010   6.944   1.293  0.00  0.00    -0.274 OA
ATOM     21  H   UNL     1       4.368   8.256   4.148  0.00  0.00    +0.155 HD
BRANCH  18  25
ATOM     22  C   UNL     1       7.711  10.460   1.531  0.00  0.00    +0.101 A 
ATOM     23  C   UNL     1       7.289  10.868   2.790  0.00  0.00    -0.028 A 
ATOM     24  C   UNL     1       6.320  10.118   3.399  0.00  0.00    +0.035 A 
ATOM     25  C   UNL     1       5.821   9.015   2.740  0.00  0.00    +0.073 A 
ATOM     26  S   UNL     1       6.713   9.008   1.253  0.00  0.00    -0.067 S 
ATOM     27  C   UNL     1       7.875  12.085   3.458  0.00  0.00    +0.045 C 
BRANCH  22  28
ATOM     28  C   UNL     1       8.687  11.045   0.686  0.00  0.00    +0.346 C 
ATOM     29  O   UNL     1       9.281  12.044   1.044  0.00  0.00    -0.244 OA
BRANCH  28  30
ATOM     30  O   UNL     1       8.957  10.493  -0.515  0.00  0.00    -0.461 OA
BRANCH  30  32
ATOM     31  C   UNL     1      10.120  10.371  -2.630  0.00  0.00    +0.048 C 
ATOM     32  C   UNL     1       9.953  11.135  -1.315  0.00  0.00    +0.229 C 
ENDBRANCH  30  32
ENDBRANCH  28  30
ENDBRANCH  22  28
ENDBRANCH  18  25
ENDBRANCH   1  19
TORSDOF 7
