REMARK  Name = ZINC35777672
REMARK  14 active torsions:
REMARK  status: ('A' for Active; 'I' for Inactive)
REMARK    1  A    between atoms: C_1  and  C_2
REMARK    2  A    between atoms: C_2  and  C_3
REMARK    3  A    between atoms: C_3  and  C_4
REMARK    4  A    between atoms: C_4  and  C_6
REMARK    5  A    between atoms: C_4  and  O_36
REMARK    6  A    between atoms: C_6  and  N_7
REMARK    7  A    between atoms: N_7  and  C_8
REMARK    8  A    between atoms: N_7  and  C_29
REMARK    9  A    between atoms: C_8  and  C_9
REMARK   10  A    between atoms: C_10  and  C_28
REMARK   11  A    between atoms: N_12  and  C_22
REMARK   12  A    between atoms: C_13  and  O_14
REMARK   13  A    between atoms: O_14  and  C_15
REMARK   14  A    between atoms: C_29  and  C_30
REMARK                            x       y       z     vdW  Elec       q    Type
REMARK                         _______ _______ _______ _____ _____    ______ ____
ROOT
ATOM      1  C   UNL     1      -3.609  -6.150   0.193  0.00  0.00    +0.021 A 
ATOM      2  C   UNL     1      -3.337  -6.891  -0.961  0.00  0.00    +0.065 A 
ATOM      3  N   UNL     1      -2.927  -8.080  -0.603  0.00  0.00    -0.168 NA
ATOM      4  N   UNL     1      -2.921  -8.143   0.797  0.00  0.00    -0.200 N 
ATOM      5  C   UNL     1      -3.340  -6.938   1.268  0.00  0.00    +0.225 A 
ATOM      6  C   UNL     1      -3.492  -6.402  -2.378  0.00  0.00    +0.068 C 
ENDROOT
BRANCH   4   7
ATOM      7  C   UNL     1      -2.544  -9.248   1.572  0.00  0.00    +0.069 A 
ATOM      8  C   UNL     1      -1.785  -9.065   2.721  0.00  0.00    +0.028 A 
ATOM      9  C   UNL     1      -1.416 -10.156   3.483  0.00  0.00    +0.002 A 
ATOM     10  C   UNL     1      -1.802 -11.429   3.104  0.00  0.00    +0.000 A 
ATOM     11  C   UNL     1      -2.557 -11.614   1.961  0.00  0.00    +0.002 A 
ATOM     12  C   UNL     1      -2.934 -10.527   1.197  0.00  0.00    +0.028 A 
ENDBRANCH   4   7
BRANCH   1  13
ATOM     13  C   UNL     1      -4.105  -4.728   0.238  0.00  0.00    -0.036 C 
BRANCH  13  14
ATOM     14  N   UNL     1      -2.966  -3.818   0.423  0.00  0.00    +0.386 N 
ATOM     15  H   UNL     1      -2.445  -4.093   1.242  0.00  0.00    -0.081 HD
BRANCH  14  16
ATOM     16  C   UNL     1      -2.093  -3.880  -0.756  0.00  0.00    -0.047 C 
BRANCH  16  17
ATOM     17  C   UNL     1      -0.845  -3.029  -0.512  0.00  0.00    +0.098 C 
BRANCH  17  18
ATOM     18  O   UNL     1      -0.082  -3.597   0.554  0.00  0.00    -0.394 OA
ATOM     19  H   UNL     1       0.218  -4.501   0.385  0.00  0.00    +0.210 HD
ENDBRANCH  17  18
BRANCH  17  20
ATOM     20  C   UNL     1       0.004  -2.993  -1.785  0.00  0.00    +0.029 C 
BRANCH  20  22
ATOM     21  C   UNL     1       2.035  -2.007  -2.854  0.00  0.00    +0.004 C 
ATOM     22  C   UNL     1       1.186  -2.043  -1.582  0.00  0.00    -0.001 C 
ENDBRANCH  20  22
ENDBRANCH  17  20
ENDBRANCH  16  17
ENDBRANCH  14  16
BRANCH  14  23
ATOM     23  C   UNL     1      -3.460  -2.445   0.595  0.00  0.00    -0.046 C 
BRANCH  23  24
ATOM     24  C   UNL     1      -4.245  -2.345   1.904  0.00  0.00    +0.102 C 
ATOM     25  C   UNL     1      -4.760  -0.902   2.098  0.00  0.00    +0.032 C 
ATOM     26  C   UNL     1      -4.564  -0.684   3.623  0.00  0.00    +0.030 C 
ATOM     27  C   UNL     1      -3.277  -1.509   3.875  0.00  0.00    +0.160 C 
ATOM     28  O   UNL     1      -3.387  -2.652   3.010  0.00  0.00    -0.378 OA
ENDBRANCH  23  24
ENDBRANCH  14  23
ENDBRANCH  13  14
ENDBRANCH   1  13
BRANCH   5  29
ATOM     29  O   UNL     1      -3.470  -6.588   2.573  0.00  0.00    -0.436 OA
BRANCH  29  30
ATOM     30  C   UNL     1      -4.636  -6.891   3.202  0.00  0.00    +0.149 A 
ATOM     31  C   UNL     1      -5.608  -7.632   2.545  0.00  0.00    +0.048 A 
ATOM     32  C   UNL     1      -6.793  -7.938   3.186  0.00  0.00    +0.004 A 
ATOM     33  C   UNL     1      -7.011  -7.507   4.482  0.00  0.00    +0.002 A 
ATOM     34  C   UNL     1      -6.045  -6.768   5.139  0.00  0.00    +0.024 A 
ATOM     35  C   UNL     1      -4.855  -6.463   4.505  0.00  0.00    +0.083 A 
ATOM     36 CL   UNL     1      -3.639  -5.542   5.333  0.00  0.00    -0.080 Cl
ENDBRANCH  29  30
ENDBRANCH   5  29
TORSDOF 12
