REMARK  Name = ZINC06386579
REMARK  7 active torsions:
REMARK  status: ('A' for Active; 'I' for Inactive)
REMARK    1  A    between atoms: C_1  and  C_2
REMARK    2  A    between atoms: C_2  and  C_3
REMARK    3  A    between atoms: C_3  and  C_4
REMARK    4  A    between atoms: C_4  and  C_5
REMARK    5  A    between atoms: C_5  and  C_6
REMARK    6  A    between atoms: C_6  and  C_7
REMARK    7  A    between atoms: N_9  and  N_10
REMARK                            x       y       z     vdW  Elec       q    Type
REMARK                         _______ _______ _______ _____ _____    ______ ____
ROOT
ATOM      1  N   UNL     1      -3.662   3.252   0.054  0.00  0.00    -0.179 NA
ATOM      2  C   UNL     1      -2.513   3.878   0.080  0.00  0.00    +0.100 A 
ATOM      3  C   UNL     1      -2.347   5.149   0.823  0.00  0.00    +0.026 A 
ATOM      4  C   UNL     1      -3.415   5.706   1.521  0.00  0.00    +0.012 A 
ATOM      5  C   UNL     1      -3.241   6.894   2.203  0.00  0.00    +0.001 A 
ATOM      6  C   UNL     1      -2.006   7.522   2.203  0.00  0.00    +0.002 A 
ATOM      7  C   UNL     1      -0.940   6.975   1.519  0.00  0.00    +0.026 A 
ATOM      8  C   UNL     1      -1.097   5.782   0.822  0.00  0.00    +0.049 A 
ATOM      9  N   UNL     1      -0.024   5.234   0.135  0.00  0.00    -0.354 N 
ATOM     10  H   UNL     1       0.951   5.744   0.142  0.00  0.00    +0.166 HD
ATOM     11  C   UNL     1      -0.121   4.049  -0.577  0.00  0.00    +0.049 A 
ATOM     12  C   UNL     1      -1.331   3.342  -0.634  0.00  0.00    +0.026 A 
ATOM     13  C   UNL     1      -1.415   2.153  -1.353  0.00  0.00    +0.012 A 
ATOM     14  C   UNL     1      -0.301   1.671  -2.010  0.00  0.00    +0.001 A 
ATOM     15  C   UNL     1       0.895   2.366  -1.956  0.00  0.00    +0.002 A 
ATOM     16  C   UNL     1       0.990   3.547  -1.246  0.00  0.00    +0.026 A 
ENDROOT
BRANCH   1  19
ATOM     17  C   UNL     1      -6.030   3.322   0.284  0.00  0.00    +0.232 C 
ATOM     18  O   UNL     1      -6.053   2.109   0.277  0.00  0.00    -0.274 OA
ATOM     19  N   UNL     1      -4.856   3.974   0.175  0.00  0.00    -0.206 N 
ATOM     20  H   UNL     1      -4.835   5.074   0.181  0.00  0.00    +0.177 HD
BRANCH  17  21
ATOM     21  C   UNL     1      -7.315   4.099   0.414  0.00  0.00    +0.097 C 
BRANCH  21  22
ATOM     22  C   UNL     1      -8.491   3.126   0.521  0.00  0.00    +0.009 C 
BRANCH  22  23
ATOM     23  C   UNL     1      -9.795   3.915   0.653  0.00  0.00    +0.000 C 
BRANCH  23  24
ATOM     24  C   UNL     1     -10.971   2.942   0.759  0.00  0.00    -0.000 C 
BRANCH  24  26
ATOM     25  C   UNL     1     -13.452   2.758   0.998  0.00  0.00    +0.004 C 
ATOM     26  C   UNL     1     -12.276   3.731   0.892  0.00  0.00    -0.003 C 
ENDBRANCH  24  26
ENDBRANCH  23  24
ENDBRANCH  22  23
ENDBRANCH  21  22
ENDBRANCH  17  21
ENDBRANCH   1  19
TORSDOF 6
