REMARK  Name = ZINC38652408
REMARK  7 active torsions:
REMARK  status: ('A' for Active; 'I' for Inactive)
REMARK    1  A    between atoms: C_1  and  C_2
REMARK    2  A    between atoms: C_7  and  C_8
REMARK    3  A    between atoms: C_8  and  O_10
REMARK    4  A    between atoms: O_10  and  C_11
REMARK    5  A    between atoms: C_18  and  N_31
REMARK    6  A    between atoms: C_19  and  C_29
REMARK    7  A    between atoms: C_20  and  C_22
REMARK                            x       y       z     vdW  Elec       q    Type
REMARK                         _______ _______ _______ _____ _____    ______ ____
ROOT
ATOM      1  C   UNL     1       0.200  -0.296   4.996  0.00  0.00    +0.135 A 
ATOM      2  C   UNL     1       0.064   1.085   4.963  0.00  0.00    +0.047 A 
ATOM      3  C   UNL     1       0.051   1.806   6.141  0.00  0.00    +0.012 A 
ATOM      4  C   UNL     1       0.172   1.156   7.357  0.00  0.00    +0.008 A 
ATOM      5  C   UNL     1       0.308  -0.222   7.396  0.00  0.00    +0.138 A 
ATOM      6  C   UNL     1       0.316  -0.949   6.212  0.00  0.00    +0.093 A 
ATOM      7  O   UNL     1       0.429  -0.876   8.578  0.00  0.00    -0.441 OA
ATOM      8  C   UNL     1       0.042  -0.279   9.717  0.00  0.00    +0.199 C 
ATOM      9  C   UNL     1      -0.107   1.064   9.807  0.00  0.00    +0.098 C 
ATOM     10  C   UNL     1       0.156   1.960   8.630  0.00  0.00    +0.098 C 
ENDROOT
BRANCH  10  11
ATOM     11  C   UNL     1       1.490   2.640   8.808  0.00  0.00    -0.034 A 
ATOM     12  C   UNL     1       2.644   1.884   8.897  0.00  0.00    +0.007 A 
ATOM     13  C   UNL     1       3.867   2.506   9.060  0.00  0.00    +0.038 A 
ATOM     14  C   UNL     1       3.936   3.887   9.134  0.00  0.00    +0.123 A 
ATOM     15  C   UNL     1       2.780   4.643   9.045  0.00  0.00    +0.038 A 
ATOM     16  C   UNL     1       1.558   4.019   8.877  0.00  0.00    +0.007 A 
ATOM     17  F   UNL     1       5.132   4.496   9.294  0.00  0.00    -0.205 F 
ENDBRANCH  10  11
BRANCH   8  18
ATOM     18  N   UNL     1      -0.211  -1.053  10.822  0.00  0.00    -0.328 N 
ATOM     19  H   UNL     1      -0.109  -2.016  10.773  0.00  0.00    +0.145 HD
ATOM     20  H   UNL     1      -0.491  -0.636  11.652  0.00  0.00    +0.145 HD
ENDBRANCH   8  18
BRANCH   9  21
ATOM     21  C   UNL     1      -0.524   1.642  11.049  0.00  0.00    +0.101 C 
ATOM     22  N   UNL     1      -0.855   2.100  12.034  0.00  0.00    -0.191 NA
ENDBRANCH   9  21
BRANCH   1  23
ATOM     23  O   UNL     1       0.213  -1.007   3.838  0.00  0.00    -0.422 OA
BRANCH  23  24
ATOM     24  C   UNL     1       1.360  -1.044   3.132  0.00  0.00    +0.345 C 
ATOM     25  O   UNL     1       2.371  -0.551   3.590  0.00  0.00    -0.245 OA
BRANCH  24  32
ATOM     26  C   UNL     1       3.752  -0.876   1.513  0.00  0.00    +0.044 C 
ATOM     27  C   UNL     1       2.536  -1.610   1.010  0.00  0.00    -0.036 A 
ATOM     28  C   UNL     1       2.556  -2.215  -0.229  0.00  0.00    +0.004 A 
ATOM     29  C   UNL     1       1.440  -2.889  -0.692  0.00  0.00    +0.000 A 
ATOM     30  C   UNL     1       0.296  -2.961   0.083  0.00  0.00    +0.001 A 
ATOM     31  C   UNL     1       0.262  -2.360   1.324  0.00  0.00    +0.015 A 
ATOM     32  C   UNL     1       1.387  -1.684   1.801  0.00  0.00    +0.062 A 
ENDBRANCH  24  32
ENDBRANCH  23  24
ENDBRANCH   1  23
TORSDOF 6
