REMARK  Name = ZINC40732217
REMARK  10 active torsions:
REMARK  status: ('A' for Active; 'I' for Inactive)
REMARK    1  A    between atoms: C_4  and  O_21
REMARK    2  A    between atoms: C_5  and  C_7
REMARK    3  A    between atoms: C_7  and  N_8
REMARK    4  A    between atoms: N_8  and  C_9
REMARK    5  A    between atoms: C_9  and  C_10
REMARK    6  A    between atoms: C_10  and  C_11
REMARK    7  A    between atoms: C_14  and  S_17
REMARK    8  A    between atoms: S_17  and  N_20
REMARK    9  A    between atoms: O_21  and  C_22
REMARK   10  A    between atoms: C_22  and  C_23
REMARK                            x       y       z     vdW  Elec       q    Type
REMARK                         _______ _______ _______ _____ _____    ______ ____
ROOT
ATOM      1  C   UNL     1       1.227  -2.187  -0.022  0.00  0.00    +0.120 C 
ENDROOT
BRANCH   1   6
ATOM      2  C   UNL     1      -0.017   1.378   0.010  0.00  0.00    +0.001 A 
ATOM      3  C   UNL     1       1.170   2.088   0.002  0.00  0.00    +0.004 A 
ATOM      4  C   UNL     1       2.377   1.417  -0.013  0.00  0.00    +0.046 A 
ATOM      5  C   UNL     1       2.399   0.030  -0.021  0.00  0.00    +0.125 A 
ATOM      6  C   UNL     1       1.207  -0.680  -0.013  0.00  0.00    +0.008 A 
ATOM      7  C   UNL     1       0.002  -0.004   0.002  0.00  0.00    +0.008 A 
BRANCH   5   8
ATOM      8  O   UNL     1       3.586  -0.632  -0.037  0.00  0.00    -0.487 OA
BRANCH   8   9
ATOM      9  C   UNL     1       4.772   0.164  -0.045  0.00  0.00    +0.268 C 
BRANCH   9  10
ATOM     10  C   UNL     1       5.981  -0.737  -0.062  0.00  0.00    +0.043 A 
ATOM     11  C   UNL     1       6.545  -1.162   1.129  0.00  0.00    +0.131 A 
ATOM     12  C   UNL     1       7.655  -1.989   1.112  0.00  0.00    +0.039 A 
ATOM     13  C   UNL     1       8.199  -2.390  -0.094  0.00  0.00    +0.004 A 
ATOM     14  C   UNL     1       7.636  -1.966  -1.283  0.00  0.00    +0.020 A 
ATOM     15  C   UNL     1       6.523  -1.144  -1.267  0.00  0.00    +0.050 A 
ATOM     16 CL   UNL     1       5.812  -0.618  -2.761  0.00  0.00    -0.083 Cl
ATOM     17  F   UNL     1       6.013  -0.769   2.307  0.00  0.00    -0.205 F 
ENDBRANCH   9  10
ENDBRANCH   8   9
ENDBRANCH   5   8
ENDBRANCH   1   6
BRANCH   1  18
ATOM     18  N   UNL     1       1.488  -2.681   1.337  0.00  0.00    -0.312 NA
ATOM     19  H   UNL     1       2.345  -2.296   1.703  0.00  0.00    +0.122 HD
BRANCH  18  20
ATOM     20  C   UNL     1       1.514  -4.149   1.367  0.00  0.00    +0.086 C 
BRANCH  20  21
ATOM     21  C   UNL     1       1.787  -4.625   2.795  0.00  0.00    +0.050 C 
BRANCH  21  22
ATOM     22  C   UNL     1       1.814  -6.132   2.826  0.00  0.00    -0.046 A 
ATOM     23  C   UNL     1       0.649  -6.839   3.054  0.00  0.00    +0.005 A 
ATOM     24  C   UNL     1       0.674  -8.221   3.082  0.00  0.00    +0.029 A 
ATOM     25  C   UNL     1       1.864  -8.895   2.882  0.00  0.00    +0.105 A 
ATOM     26  C   UNL     1       3.029  -8.188   2.653  0.00  0.00    +0.029 A 
ATOM     27  C   UNL     1       3.003  -6.806   2.620  0.00  0.00    +0.005 A 
BRANCH  25  28
ATOM     28  S   UNL     1       1.896 -10.657   2.919  0.00  0.00    +0.056 S 
ATOM     29  O   UNL     1       3.227 -11.032   3.246  0.00  0.00    -0.153 OA
ATOM     30  O   UNL     1       0.777 -11.067   3.693  0.00  0.00    -0.153 OA
BRANCH  28  31
ATOM     31  N   UNL     1       1.621 -11.184   1.373  0.00  0.00    -0.204 NA
ATOM     32  H   UNL     1       1.482 -10.542   0.660  0.00  0.00    +0.144 HD
ATOM     33  H   UNL     1       1.600 -12.135   1.182  0.00  0.00    +0.144 HD
ENDBRANCH  28  31
ENDBRANCH  25  28
ENDBRANCH  21  22
ENDBRANCH  20  21
ENDBRANCH  18  20
ENDBRANCH   1  18
TORSDOF 10
