REMARK  Name = ZINC36801727
REMARK  8 active torsions:
REMARK  status: ('A' for Active; 'I' for Inactive)
REMARK    1  A    between atoms: C_1  and  C_2
REMARK    2  A    between atoms: C_2  and  C_3
REMARK    3  A    between atoms: C_10  and  C_12
REMARK    4  A    between atoms: C_12  and  C_14
REMARK    5  A    between atoms: C_12  and  S_15
REMARK    6  A    between atoms: S_15  and  C_16
REMARK    7  A    between atoms: C_19  and  C_22
REMARK    8  A    between atoms: N_20  and  N_21
REMARK                            x       y       z     vdW  Elec       q    Type
REMARK                         _______ _______ _______ _____ _____    ______ ____
ROOT
ATOM      1  C   UNL     1      -4.372   2.015  -4.530  0.00  0.00    +0.209 A 
ATOM      2  N   UNL     1      -3.838   2.027  -5.731  0.00  0.00    -0.121 NA
ATOM      3  N   UNL     1      -4.719   2.370  -6.601  0.00  0.00    -0.127 NA
ATOM      4  C   UNL     1      -5.869   2.598  -6.011  0.00  0.00    +0.183 A 
ATOM      5  N   UNL     1      -5.684   2.372  -4.666  0.00  0.00    -0.224 N 
ENDROOT
BRANCH   4   6
ATOM      6  C   UNL     1      -7.126   3.014  -6.667  0.00  0.00    +0.039 A 
ATOM      7  C   UNL     1      -7.875   4.068  -6.141  0.00  0.00    +0.014 A 
ATOM      8  C   UNL     1      -9.048   4.452  -6.758  0.00  0.00    +0.021 A 
ATOM      9  C   UNL     1      -9.483   3.794  -7.896  0.00  0.00    +0.042 A 
ATOM     10  C   UNL     1      -8.745   2.748  -8.423  0.00  0.00    +0.040 A 
ATOM     11  C   UNL     1      -7.567   2.357  -7.818  0.00  0.00    +0.053 A 
ATOM     12 CL   UNL     1      -6.639   1.050  -8.483  0.00  0.00    -0.083 Cl
ATOM     13 CL   UNL     1     -10.960   4.283  -8.666  0.00  0.00    -0.083 Cl
ENDBRANCH   4   6
BRANCH   5  14
ATOM     14  N   UNL     1      -6.616   2.485  -3.674  0.00  0.00    -0.295 N 
ATOM     15  H   UNL     1      -6.688   3.438  -3.352  0.00  0.00    +0.163 HD
ATOM     16  H   UNL     1      -7.513   2.137  -3.979  0.00  0.00    +0.163 HD
ENDBRANCH   5  14
BRANCH   1  17
ATOM     17  S   UNL     1      -3.551   1.606  -3.025  0.00  0.00    -0.072 S 
BRANCH  17  18
ATOM     18  C   UNL     1      -1.852   1.233  -3.539  0.00  0.00    +0.137 C 
ATOM     19  C   UNL     1      -1.200   2.498  -4.101  0.00  0.00    +0.029 C 
BRANCH  18  26
ATOM     20  C   UNL     1       0.787  -0.541  -1.395  0.00  0.00    +0.076 C 
ATOM     21  C   UNL     1       0.994  -2.038  -1.645  0.00  0.00    +0.022 C 
ATOM     22  C   UNL     1       1.693  -2.235  -2.992  0.00  0.00    +0.003 C 
ATOM     23  C   UNL     1       0.814  -1.675  -4.112  0.00  0.00    +0.019 C 
ATOM     24  C   UNL     1       0.605  -0.173  -3.890  0.00  0.00    +0.108 C 
ATOM     25  N   UNL     1       0.068   0.038  -2.539  0.00  0.00    -0.298 N 
ATOM     26  C   UNL     1      -1.063   0.745  -2.352  0.00  0.00    +0.229 C 
ATOM     27  O   UNL     1      -1.447   0.989  -1.227  0.00  0.00    -0.274 OA
BRANCH  20  29
ATOM     28  C   UNL     1       0.698  -0.982   1.062  0.00  0.00    +0.006 C 
ATOM     29  C   UNL     1      -0.034  -0.342  -0.120  0.00  0.00    +0.019 C 
ENDBRANCH  20  29
ENDBRANCH  18  26
ENDBRANCH  17  18
ENDBRANCH   1  17
TORSDOF 6
