REMARK  Name = ZINC20703725
REMARK  9 active torsions:
REMARK  status: ('A' for Active; 'I' for Inactive)
REMARK    1  A    between atoms: C_1  and  C_2
REMARK    2  A    between atoms: C_2  and  C_3
REMARK    3  A    between atoms: C_3  and  C_5
REMARK    4  A    between atoms: C_3  and  O_6
REMARK    5  A    between atoms: O_6  and  C_7
REMARK    6  A    between atoms: C_20  and  C_23
REMARK    7  A    between atoms: C_26  and  O_29
REMARK    8  A    between atoms: O_29  and  C_30
REMARK    9  A    between atoms: C_30  and  C_31
REMARK                            x       y       z     vdW  Elec       q    Type
REMARK                         _______ _______ _______ _____ _____    ______ ____
ROOT
ATOM      1  C   UNL     1       0.713  12.376   0.981  0.00  0.00    +0.121 A 
ATOM      2  C   UNL     1       0.468  11.697   2.166  0.00  0.00    +0.047 A 
ATOM      3  C   UNL     1       0.817  10.366   2.276  0.00  0.00    +0.027 A 
ATOM      4  C   UNL     1       1.411   9.711   1.204  0.00  0.00    +0.032 A 
ATOM      5  C   UNL     1       1.658  10.382   0.017  0.00  0.00    -0.016 A 
ATOM      6  C   UNL     1       1.304  11.721  -0.086  0.00  0.00    +0.051 A 
ATOM      7  C   UNL     1       2.292   9.716  -1.163  0.00  0.00    +0.049 C 
ATOM      8  C   UNL     1       3.732  10.138  -1.327  0.00  0.00    -0.023 C 
ATOM      9  C   UNL     1       4.455   9.130  -1.751  0.00  0.00    -0.030 C 
ATOM     10  C   UNL     1       3.591   7.897  -1.933  0.00  0.00    +0.033 C 
ATOM     11  C   UNL     1       2.360   8.183  -1.024  0.00  0.00    +0.029 C 
ATOM     12  C   UNL     1       2.752   7.805   0.408  0.00  0.00    +0.105 C 
ATOM     13  N   UNL     1       1.760   8.360   1.335  0.00  0.00    -0.336 N 
ATOM     14  H   UNL     1       1.311   7.719   2.107  0.00  0.00    +0.147 HD
ENDROOT
BRANCH  12  15
ATOM     15  C   UNL     1       2.785   6.304   0.542  0.00  0.00    -0.027 A 
ATOM     16  C   UNL     1       3.994   5.634   0.503  0.00  0.00    +0.009 A 
ATOM     17  C   UNL     1       4.027   4.259   0.627  0.00  0.00    +0.046 A 
ATOM     18  C   UNL     1       2.846   3.550   0.790  0.00  0.00    +0.121 A 
ATOM     19  C   UNL     1       1.634   4.224   0.824  0.00  0.00    +0.046 A 
ATOM     20  C   UNL     1       1.607   5.600   0.706  0.00  0.00    +0.009 A 
BRANCH  18  21
ATOM     21  O   UNL     1       2.876   2.197   0.912  0.00  0.00    -0.487 OA
BRANCH  21  22
ATOM     22  C   UNL     1       1.622   1.532   1.078  0.00  0.00    +0.264 C 
BRANCH  22  23
ATOM     23  C   UNL     1       1.851   0.048   1.195  0.00  0.00    -0.010 A 
ATOM     24  C   UNL     1       1.852  -0.743   0.061  0.00  0.00    +0.007 A 
ATOM     25  C   UNL     1       2.067  -2.105   0.168  0.00  0.00    +0.000 A 
ATOM     26  C   UNL     1       2.272  -2.676   1.410  0.00  0.00    +0.000 A 
ATOM     27  C   UNL     1       2.266  -1.886   2.544  0.00  0.00    +0.000 A 
ATOM     28  C   UNL     1       2.055  -0.524   2.437  0.00  0.00    +0.007 A 
ENDBRANCH  22  23
ENDBRANCH  21  22
ENDBRANCH  18  21
ENDBRANCH  12  15
BRANCH   1  29
ATOM     29  O   UNL     1       0.372  13.687   0.868  0.00  0.00    -0.489 OA
BRANCH  29  30
ATOM     30  C   UNL     1      -0.340  14.269   1.961  0.00  0.00    +0.170 C 
ATOM     31  C   UNL     1       0.654  14.739   3.025  0.00  0.00    +0.052 C 
BRANCH  30  33
ATOM     32  C   UNL     1      -2.232  14.977   0.490  0.00  0.00    +0.007 C 
ATOM     33  C   UNL     1      -1.154  15.464   1.461  0.00  0.00    +0.041 C 
ENDBRANCH  30  33
ENDBRANCH  29  30
ENDBRANCH   1  29
TORSDOF 7
