REMARK  Name = ZINC67428061
REMARK  4 active torsions:
REMARK  status: ('A' for Active; 'I' for Inactive)
REMARK    1  A    between atoms: C_1  and  C_2
REMARK    2  A    between atoms: N_13  and  C_16
REMARK    3  A    between atoms: C_16  and  C_17
REMARK    4  A    between atoms: C_20  and  C_22
REMARK                            x       y       z     vdW  Elec       q    Type
REMARK                         _______ _______ _______ _____ _____    ______ ____
ROOT
ATOM      1  C   UNL     1      -0.019   1.526   0.010  0.00  0.00    +0.008 C 
ATOM      2  C   UNL     1       0.002  -0.004   0.002  0.00  0.00    -0.009 C 
ATOM      3  C   UNL     1       0.726  -0.501  -1.253  0.00  0.00    +0.008 C 
ATOM      4  C   UNL     1       0.536  -2.011  -1.397  0.00  0.00    +0.037 C 
ATOM      5  C   UNL     1       0.949  -2.688  -0.093  0.00  0.00    -0.023 A 
ATOM      6  C   UNL     1       1.031  -1.976   1.055  0.00  0.00    -0.004 A 
ATOM      7  S   UNL     1       1.537  -3.145   2.292  0.00  0.00    -0.073 S 
ATOM      8  C   UNL     1       1.637  -4.581   1.270  0.00  0.00    +0.116 A 
ATOM      9  C   UNL     1       1.271  -4.101  -0.007  0.00  0.00    +0.076 A 
ATOM     10  C   UNL     1       1.257  -5.054  -1.081  0.00  0.00    +0.263 A 
ATOM     11  O   UNL     1       0.955  -4.742  -2.220  0.00  0.00    -0.267 OA
ATOM     12  N   UNL     1       1.599  -6.321  -0.747  0.00  0.00    -0.290 N 
ATOM     13  C   UNL     1       1.938  -6.688   0.512  0.00  0.00    +0.203 A 
ATOM     14  N   UNL     1       1.962  -5.845   1.522  0.00  0.00    -0.230 NA
ATOM     15  C   UNL     1       0.751  -0.516   1.241  0.00  0.00    +0.046 C 
ENDROOT
BRANCH  12  16
ATOM     16  C   UNL     1       1.605  -7.342  -1.798  0.00  0.00    +0.222 C 
BRANCH  16  17
ATOM     17  C   UNL     1       2.969  -7.398  -2.437  0.00  0.00    +0.216 A 
ATOM     18  N   UNL     1       3.954  -8.158  -2.051  0.00  0.00    -0.220 NA
ATOM     19  C   UNL     1       5.009  -7.943  -2.850  0.00  0.00    +0.161 A 
ATOM     20  C   UNL     1       4.644  -7.005  -3.766  0.00  0.00    +0.162 A 
ATOM     21  O   UNL     1       3.360  -6.677  -3.498  0.00  0.00    -0.437 OA
BRANCH  20  22
ATOM     22  C   UNL     1       5.483  -6.457  -4.844  0.00  0.00    +0.056 A 
ATOM     23  C   UNL     1       5.170  -5.511  -5.787  0.00  0.00    +0.019 A 
ATOM     24  C   UNL     1       6.131  -5.153  -6.707  0.00  0.00    +0.008 A 
ATOM     25  C   UNL     1       7.352  -5.743  -6.653  0.00  0.00    +0.046 A 
ATOM     26  S   UNL     1       7.175  -6.846  -5.261  0.00  0.00    -0.094 S 
ENDBRANCH  20  22
ENDBRANCH  16  17
ENDBRANCH  12  16
TORSDOF 3
