REMARK  Name = ZINC04027793
REMARK  6 active torsions:
REMARK  status: ('A' for Active; 'I' for Inactive)
REMARK    1  A    between atoms: C_4  and  C_7
REMARK    2  A    between atoms: N_9  and  C_10
REMARK    3  A    between atoms: C_13  and  O_22
REMARK    4  A    between atoms: C_17  and  O_19
REMARK    5  A    between atoms: O_22  and  C_23
REMARK    6  A    between atoms: C_23  and  C_25
REMARK                            x       y       z     vdW  Elec       q    Type
REMARK                         _______ _______ _______ _____ _____    ______ ____
ROOT
ATOM      1  C   UNL     1      -0.807   1.620   1.228  0.00  0.00    +0.071 C 
ATOM      2  C   UNL     1      -0.293   3.033   1.543  0.00  0.00    +0.033 C 
ATOM      3  C   UNL     1      -0.439   3.920   0.306  0.00  0.00    +0.048 C 
ATOM      4  C   UNL     1      -1.898   3.971  -0.157  0.00  0.00    +0.192 C 
ATOM      5  C   UNL     1      -2.361   2.542  -0.491  0.00  0.00    +0.118 C 
ATOM      6  C   UNL     1      -2.300   1.741   0.845  0.00  0.00    +0.155 C 
ATOM      7  S   UNL     1      -0.982   1.735  -1.414  0.00  0.00    -0.149 S 
ATOM      8  C   UNL     1      -0.013   1.086   0.008  0.00  0.00    +0.098 C 
ENDROOT
BRANCH   1  11
ATOM      9  C   UNL     1       0.587   0.525   2.900  0.00  0.00    +0.245 C 
ATOM     10  O   UNL     1       1.554   1.082   2.416  0.00  0.00    -0.270 OA
ATOM     11  N   UNL     1      -0.639   0.728   2.378  0.00  0.00    -0.302 N 
ATOM     12  H   UNL     1      -1.410   0.283   2.764  0.00  0.00    +0.150 HD
BRANCH   9  16
ATOM     13  C   UNL     1       1.075  -2.060   6.235  0.00  0.00    +0.000 A 
ATOM     14  C   UNL     1       2.177  -1.429   5.686  0.00  0.00    +0.001 A 
ATOM     15  C   UNL     1       2.025  -0.588   4.603  0.00  0.00    +0.013 A 
ATOM     16  C   UNL     1       0.757  -0.375   4.060  0.00  0.00    +0.037 A 
ATOM     17  C   UNL     1      -0.351  -1.012   4.622  0.00  0.00    +0.013 A 
ATOM     18  C   UNL     1      -0.185  -1.854   5.702  0.00  0.00    +0.001 A 
ENDBRANCH   9  16
ENDBRANCH   1  11
BRANCH   6  19
ATOM     19  O   UNL     1      -2.865   0.441   0.662  0.00  0.00    -0.388 OA
ATOM     20  H   UNL     1      -3.796   0.450   0.404  0.00  0.00    +0.210 HD
ENDBRANCH   6  19
BRANCH   4  21
ATOM     21  O   UNL     1      -2.006   4.807  -1.339  0.00  0.00    -0.457 OA
BRANCH  21  22
ATOM     22  C   UNL     1      -2.253   6.116  -1.142  0.00  0.00    +0.339 C 
ATOM     23  O   UNL     1      -2.375   6.548  -0.013  0.00  0.00    -0.245 OA
BRANCH  22  24
ATOM     24  C   UNL     1      -2.375   7.027  -2.298  0.00  0.00    +0.059 A 
ATOM     25  C   UNL     1      -2.229   6.535  -3.597  0.00  0.00    +0.015 A 
ATOM     26  C   UNL     1      -2.351   7.390  -4.673  0.00  0.00    +0.001 A 
ATOM     27  C   UNL     1      -2.604   8.735  -4.467  0.00  0.00    +0.000 A 
ATOM     28  C   UNL     1      -2.744   9.230  -3.182  0.00  0.00    +0.001 A 
ATOM     29  C   UNL     1      -2.631   8.385  -2.098  0.00  0.00    +0.015 A 
ENDBRANCH  22  24
ENDBRANCH  21  22
ENDBRANCH   4  21
TORSDOF 6
