REMARK  Name = ZINC08837925
REMARK  7 active torsions:
REMARK  status: ('A' for Active; 'I' for Inactive)
REMARK    1  A    between atoms: C_1  and  C_2
REMARK    2  A    between atoms: C_2  and  O_3
REMARK    3  A    between atoms: O_3  and  C_4
REMARK    4  A    between atoms: C_6  and  C_12
REMARK    5  A    between atoms: C_9  and  O_10
REMARK    6  A    between atoms: C_23  and  N_46
REMARK    7  A    between atoms: C_24  and  O_26
REMARK                            x       y       z     vdW  Elec       q    Type
REMARK                         _______ _______ _______ _____ _____    ______ ____
ROOT
ATOM      1  C   UNL     1       1.143   3.596   0.010  0.00  0.00    +0.224 C 
ATOM      2  N   UNL     1      -0.091   4.059  -0.651  0.00  0.00    -0.313 N 
ATOM      3  C   UNL     1      -0.050   4.156  -2.021  0.00  0.00    +0.080 A 
ATOM      4  C   UNL     1       1.148   4.332  -2.725  0.00  0.00    +0.067 A 
ATOM      5  C   UNL     1       1.024   4.426  -4.168  0.00  0.00    -0.027 A 
ATOM      6  C   UNL     1      -0.235   4.325  -4.656  0.00  0.00    -0.021 A 
ATOM      7  S   UNL     1      -1.262   4.109  -3.228  0.00  0.00    -0.080 S 
ATOM      8  C   UNL     1      -0.639   4.389  -6.095  0.00  0.00    -0.036 C 
ATOM      9  C   UNL     1       1.738   4.231  -6.530  0.00  0.00    -0.074 C 
ATOM     10  C   UNL     1       2.197   4.621  -5.122  0.00  0.00    +0.018 C 
ATOM     11  C   UNL     1       0.226   4.865  -8.312  0.00  0.00    -0.096 C 
ATOM     12  C   UNL     1       2.401   4.400  -1.930  0.00  0.00    +0.220 C 
ATOM     13  N   UNL     1       2.334   4.096  -0.665  0.00  0.00    -0.223 NA
ATOM     14  H   UNL     1      -0.888   4.282  -0.146  0.00  0.00    +0.149 HD
ATOM     15  N   UNL     1       0.496   4.959  -6.861  0.00  0.00    +0.381 N 
ATOM     16  H   UNL     1       0.609   5.947  -6.605  0.00  0.00    -0.082 HD
ENDROOT
BRANCH   1  19
ATOM     17  C   UNL     1       2.405   0.035  -0.021  0.00  0.00    +0.163 A 
ATOM     18  C   UNL     1       2.379   1.420  -0.013  0.00  0.00    +0.056 A 
ATOM     19  C   UNL     1       1.169   2.089   0.002  0.00  0.00    -0.001 A 
ATOM     20  C   UNL     1      -0.017   1.379   0.010  0.00  0.00    +0.025 A 
ATOM     21  C   UNL     1       0.002  -0.004   0.002  0.00  0.00    +0.059 A 
ATOM     22  C   UNL     1       1.212  -0.680  -0.013  0.00  0.00    +0.172 A 
ATOM     23  I   UNL     1      -1.798  -1.076   0.014  0.00  0.00    -0.040 I 
BRANCH  22  24
ATOM     24  O   UNL     1       1.232  -2.040  -0.021  0.00  0.00    -0.503 OA
ATOM     25  H   UNL     1       1.230  -2.429  -0.907  0.00  0.00    +0.292 HD
ENDBRANCH  22  24
BRANCH  17  26
ATOM     26  O   UNL     1       3.595  -0.624  -0.035  0.00  0.00    -0.489 OA
BRANCH  26  28
ATOM     27  C   UNL     1       6.009  -0.735  -0.059  0.00  0.00    +0.048 C 
ATOM     28  C   UNL     1       4.779   0.175  -0.042  0.00  0.00    +0.226 C 
ENDBRANCH  26  28
ENDBRANCH  17  26
ENDBRANCH   1  19
BRANCH  12  29
ATOM     29  O   UNL     1       3.572   4.767  -2.501  0.00  0.00    -0.492 OA
ATOM     30  H   UNL     1       4.321   4.777  -1.890  0.00  0.00    +0.294 HD
ENDBRANCH  12  29
TORSDOF 5
