REMARK  Name = ZINC13635170
REMARK  4 active torsions:
REMARK  status: ('A' for Active; 'I' for Inactive)
REMARK    1  A    between atoms: C_1  and  O_2
REMARK    2  A    between atoms: O_2  and  C_3
REMARK    3  A    between atoms: C_6  and  C_9
REMARK    4  A    between atoms: C_22  and  N_25
REMARK                            x       y       z     vdW  Elec       q    Type
REMARK                         _______ _______ _______ _____ _____    ______ ____
ROOT
ATOM      1  C   UNL     1      -1.262   3.487   0.112  0.00  0.00    +0.105 C 
ATOM      2  C   UNL     1      -0.108   3.996  -0.725  0.00  0.00    +0.029 C 
ATOM      3  C   UNL     1       0.177   5.502  -0.722  0.00  0.00    +0.033 C 
ATOM      4  C   UNL     1       1.687   5.526  -0.972  0.00  0.00    -0.030 C 
ATOM      5  C   UNL     1       2.235   4.395  -0.543  0.00  0.00    -0.023 C 
ATOM      6  C   UNL     1       1.170   3.551   0.052  0.00  0.00    +0.049 C 
ATOM      7  C   UNL     1       1.204   2.073   0.002  0.00  0.00    -0.017 A 
ATOM      8  C   UNL     1       2.393   1.375  -0.034  0.00  0.00    +0.006 A 
ATOM      9  C   UNL     1       2.395  -0.007  -0.048  0.00  0.00    +0.003 A 
ATOM     10  C   UNL     1       1.194  -0.693  -0.026  0.00  0.00    +0.034 A 
ATOM     11  C   UNL     1       0.002  -0.004   0.002  0.00  0.00    +0.147 A 
ATOM     12  C   UNL     1      -0.017   1.392   0.010  0.00  0.00    +0.062 A 
ATOM     13  N   UNL     1      -1.261   2.020   0.004  0.00  0.00    -0.335 N 
ATOM     14  H   UNL     1      -1.816   1.714  -0.782  0.00  0.00    +0.147 HD
ENDROOT
BRANCH   1  18
ATOM     15  C   UNL     1      -4.947   5.054  -1.382  0.00  0.00    +0.120 A 
ATOM     16  C   UNL     1      -4.344   5.632  -0.274  0.00  0.00    +0.046 A 
ATOM     17  C   UNL     1      -3.154   5.124   0.207  0.00  0.00    +0.009 A 
ATOM     18  C   UNL     1      -2.562   4.040  -0.415  0.00  0.00    -0.027 A 
ATOM     19  C   UNL     1      -3.157   3.466  -1.523  0.00  0.00    +0.009 A 
ATOM     20  C   UNL     1      -4.351   3.967  -2.004  0.00  0.00    +0.046 A 
BRANCH  15  22
ATOM     21  C   UNL     1      -6.681   4.908  -3.002  0.00  0.00    +0.277 C 
ATOM     22  O   UNL     1      -6.118   5.553  -1.858  0.00  0.00    -0.495 OA
ENDBRANCH  15  22
ENDBRANCH   1  18
BRANCH  11  23
ATOM     23  N   UNL     1      -1.274  -0.753   0.025  0.00  0.00    +0.058 N 
ATOM     24  O   UNL     1      -1.266  -1.971   0.019  0.00  0.00    -0.126 OA
ATOM     25  O   UNL     1      -2.333  -0.151   0.051  0.00  0.00    -0.126 OA
ENDBRANCH  11  23
TORSDOF 3
