REMARK  Name = ZINC45941455
REMARK  9 active torsions:
REMARK  status: ('A' for Active; 'I' for Inactive)
REMARK    1  A    between atoms: C_1  and  C_2
REMARK    2  A    between atoms: C_2  and  C_3
REMARK    3  A    between atoms: C_6  and  C_9
REMARK    4  A    between atoms: C_11  and  C_26
REMARK    5  A    between atoms: C_12  and  O_25
REMARK    6  A    between atoms: N_15  and  C_16
REMARK    7  A    between atoms: C_16  and  C_17
REMARK    8  A    between atoms: C_22  and  O_23
REMARK    9  A    between atoms: O_23  and  C_24
REMARK                            x       y       z     vdW  Elec       q    Type
REMARK                         _______ _______ _______ _____ _____    ______ ____
ROOT
ATOM      1  C   UNL     1       2.707  -1.868  -4.752  0.00  0.00    +0.142 C 
ATOM      2  C   UNL     1       3.430  -0.724  -5.423  0.00  0.00    +0.031 C 
ATOM      3  C   UNL     1       4.742  -1.045  -5.432  0.00  0.00    +0.185 C 
ATOM      4  C   UNL     1       4.928  -2.353  -4.797  0.00  0.00    +0.282 C 
ATOM      5  O   UNL     1       5.999  -2.912  -4.654  0.00  0.00    -0.267 OA
ATOM      6  N   UNL     1       3.741  -2.847  -4.394  0.00  0.00    -0.279 N 
ENDROOT
BRANCH   1  10
ATOM      7  C   UNL     1       0.707  -0.490  -1.238  0.00  0.00    -0.048 A 
ATOM      8  C   UNL     1      -0.011  -0.719  -2.397  0.00  0.00    +0.004 A 
ATOM      9  C   UNL     1       0.636  -1.164  -3.534  0.00  0.00    +0.006 A 
ATOM     10  C   UNL     1       2.002  -1.381  -3.513  0.00  0.00    -0.022 A 
ATOM     11  C   UNL     1       2.720  -1.152  -2.354  0.00  0.00    +0.006 A 
ATOM     12  C   UNL     1       2.073  -0.702  -1.218  0.00  0.00    +0.004 A 
BRANCH   7  14
ATOM     13  C   UNL     1      -0.019   1.526   0.010  0.00  0.00    +0.009 C 
ATOM     14  C   UNL     1       0.002  -0.004   0.002  0.00  0.00    +0.032 C 
ENDBRANCH   7  14
ENDBRANCH   1  10
BRANCH   2  15
ATOM     15  C   UNL     1       2.823   0.503  -5.963  0.00  0.00    -0.016 A 
ATOM     16  C   UNL     1       2.203   1.417  -5.106  0.00  0.00    +0.008 A 
ATOM     17  C   UNL     1       1.636   2.564  -5.619  0.00  0.00    +0.001 A 
ATOM     18  C   UNL     1       1.680   2.813  -6.980  0.00  0.00    +0.000 A 
ATOM     19  C   UNL     1       2.292   1.913  -7.836  0.00  0.00    +0.001 A 
ATOM     20  C   UNL     1       2.869   0.765  -7.337  0.00  0.00    +0.008 A 
ENDBRANCH   2  15
BRANCH   3  21
ATOM     21  O   UNL     1       5.736  -0.276  -5.950  0.00  0.00    -0.502 OA
ATOM     22  H   UNL     1       6.618  -0.665  -5.868  0.00  0.00    +0.292 HD
ENDBRANCH   3  21
BRANCH   6  23
ATOM     23  C   UNL     1       3.521  -4.128  -3.720  0.00  0.00    +0.148 C 
BRANCH  23  24
ATOM     24  C   UNL     1       3.281  -5.203  -4.749  0.00  0.00    +0.012 A 
ATOM     25  C   UNL     1       1.993  -5.612  -5.033  0.00  0.00    +0.009 A 
ATOM     26  C   UNL     1       1.772  -6.598  -5.977  0.00  0.00    +0.001 A 
ATOM     27  C   UNL     1       2.839  -7.177  -6.639  0.00  0.00    +0.004 A 
ATOM     28  C   UNL     1       4.129  -6.771  -6.359  0.00  0.00    +0.046 A 
ATOM     29  C   UNL     1       4.353  -5.777  -5.416  0.00  0.00    +0.125 A 
BRANCH  29  30
ATOM     30  O   UNL     1       5.621  -5.372  -5.143  0.00  0.00    -0.495 OA
ATOM     31  C   UNL     1       6.676  -6.007  -5.867  0.00  0.00    +0.277 C 
ENDBRANCH  29  30
ENDBRANCH  23  24
ENDBRANCH   6  23
TORSDOF 7
