REMARK  Name = ZINC01437525
REMARK  12 active torsions:
REMARK  status: ('A' for Active; 'I' for Inactive)
REMARK    1  A    between atoms: C_1  and  C_2
REMARK    2  A    between atoms: C_2  and  C_3
REMARK    3  A    between atoms: C_2  and  O_4
REMARK    4  A    between atoms: O_4  and  C_5
REMARK    5  A    between atoms: C_10  and  C_11
REMARK    6  A    between atoms: C_16  and  C_21
REMARK    7  A    between atoms: C_23  and  O_31
REMARK    8  A    between atoms: C_24  and  O_29
REMARK    9  A    between atoms: C_25  and  O_27
REMARK   10  A    between atoms: O_27  and  C_28
REMARK   11  A    between atoms: O_29  and  C_30
REMARK   12  A    between atoms: O_31  and  C_32
REMARK                            x       y       z     vdW  Elec       q    Type
REMARK                         _______ _______ _______ _____ _____    ______ ____
ROOT
ATOM      1  C   UNL     1      -0.501   5.304  -0.147  0.00  0.00    +0.139 C 
ATOM      2  C   UNL     1      -0.303   5.985   1.186  0.00  0.00    +0.037 C 
ATOM      3  C   UNL     1      -1.268   6.534   1.942  0.00  0.00    +0.017 C 
ATOM      4  C   UNL     1      -0.930   7.167   3.282  0.00  0.00    +0.059 C 
ATOM      5  C   UNL     1       0.466   7.785   3.229  0.00  0.00    +0.032 C 
ATOM      6  C   UNL     1       1.461   6.665   2.903  0.00  0.00    +0.088 C 
ATOM      7  C   UNL     1       1.045   6.016   1.617  0.00  0.00    +0.163 C 
ATOM      8  O   UNL     1       1.895   5.499   0.919  0.00  0.00    -0.292 OA
ATOM      9  N   UNL     1      -2.584   6.577   1.612  0.00  0.00    -0.316 N 
ATOM     10  C   UNL     1      -3.315   5.497   1.130  0.00  0.00    +0.052 A 
ATOM     11  C   UNL     1      -4.368   4.942   1.836  0.00  0.00    +0.025 A 
ATOM     12  C   UNL     1      -5.084   3.898   1.277  0.00  0.00    +0.002 A 
ATOM     13  C   UNL     1      -4.752   3.416   0.024  0.00  0.00    +0.002 A 
ATOM     14  C   UNL     1      -3.688   3.958  -0.676  0.00  0.00    +0.025 A 
ATOM     15  C   UNL     1      -2.957   4.990  -0.110  0.00  0.00    +0.049 A 
ATOM     16  N   UNL     1      -1.813   5.496  -0.728  0.00  0.00    -0.331 N 
ATOM     17  H   UNL     1      -3.047   7.421   1.721  0.00  0.00    +0.152 HD
ATOM     18  H   UNL     1      -1.898   5.984  -1.562  0.00  0.00    +0.147 HD
ENDROOT
BRANCH   1  24
ATOM     19  C   UNL     1      -0.043   3.019  -1.073  0.00  0.00    +0.126 A 
ATOM     20  C   UNL     1       0.169   1.658  -0.904  0.00  0.00    +0.046 A 
ATOM     21  C   UNL     1       0.155   1.110   0.364  0.00  0.00    +0.004 A 
ATOM     22  C   UNL     1      -0.077   1.916   1.464  0.00  0.00    +0.001 A 
ATOM     23  C   UNL     1      -0.283   3.273   1.299  0.00  0.00    +0.009 A 
ATOM     24  C   UNL     1      -0.270   3.826   0.033  0.00  0.00    +0.019 A 
BRANCH  19  25
ATOM     25  O   UNL     1      -0.030   3.561  -2.319  0.00  0.00    -0.489 OA
BRANCH  25  27
ATOM     26  C   UNL     1      -0.509   3.296  -4.673  0.00  0.00    +0.051 C 
ATOM     27  C   UNL     1       0.088   2.655  -3.418  0.00  0.00    +0.167 C 
ATOM     28  C   UNL     1       1.566   2.339  -3.661  0.00  0.00    +0.051 C 
ENDBRANCH  25  27
ENDBRANCH  19  25
ENDBRANCH   1  24
BRANCH   5  29
ATOM     29  C   UNL     1       0.805   8.397   4.564  0.00  0.00    -0.036 A 
ATOM     30  C   UNL     1       0.833   7.606   5.697  0.00  0.00    +0.053 A 
ATOM     31  C   UNL     1       1.150   8.164   6.926  0.00  0.00    +0.165 A 
ATOM     32  C   UNL     1       1.429   9.523   7.020  0.00  0.00    +0.204 A 
ATOM     33  C   UNL     1       1.394  10.315   5.878  0.00  0.00    +0.165 A 
ATOM     34  C   UNL     1       1.082   9.749   4.652  0.00  0.00    +0.053 A 
BRANCH  33  35
ATOM     35  O   UNL     1       1.666  11.645   5.965  0.00  0.00    -0.491 OA
ATOM     36  C   UNL     1       1.613  12.398   4.751  0.00  0.00    +0.277 C 
ENDBRANCH  33  35
BRANCH  32  37
ATOM     37  O   UNL     1       1.735  10.075   8.225  0.00  0.00    -0.488 OA
ATOM     38  C   UNL     1       0.647  10.578   9.003  0.00  0.00    +0.277 C 
ENDBRANCH  32  37
BRANCH  31  39
ATOM     39  O   UNL     1       1.182   7.385   8.040  0.00  0.00    -0.491 OA
ATOM     40  C   UNL     1       0.885   5.997   7.869  0.00  0.00    +0.277 C 
ENDBRANCH  31  39
ENDBRANCH   5  29
TORSDOF 7
