REMARK  Name = ZINC14675668
REMARK  7 active torsions:
REMARK  status: ('A' for Active; 'I' for Inactive)
REMARK    1  A    between atoms: C_1  and  C_2
REMARK    2  A    between atoms: C_2  and  C_3
REMARK    3  A    between atoms: C_3  and  C_29
REMARK    4  A    between atoms: N_6  and  C_10
REMARK    5  A    between atoms: C_10  and  C_11
REMARK    6  A    between atoms: N_16  and  S_19
REMARK    7  A    between atoms: S_19  and  C_22
REMARK                            x       y       z     vdW  Elec       q    Type
REMARK                         _______ _______ _______ _____ _____    ______ ____
ROOT
ATOM      1  C   UNL     1      -4.228   1.468   1.421  0.00  0.00    +0.213 C 
ENDROOT
BRANCH   1   5
ATOM      2  C   UNL     1      -1.433  -0.534   0.013  0.00  0.00    +0.138 C 
ATOM      3  C   UNL     1      -2.205   0.042   1.184  0.00  0.00    +0.251 C 
ATOM      4  O   UNL     1      -1.958  -0.098   2.363  0.00  0.00    -0.272 OA
ATOM      5  N   UNL     1      -3.222   0.740   0.642  0.00  0.00    -0.215 N 
ATOM      6  C   UNL     1      -3.200   0.687  -0.695  0.00  0.00    +0.310 C 
ATOM      7  O   UNL     1      -4.016   1.240  -1.406  0.00  0.00    -0.252 OA
ATOM      8  N   UNL     1      -2.175  -0.046  -1.163  0.00  0.00    -0.281 N 
ATOM      9  H   UNL     1      -1.964  -0.220  -2.094  0.00  0.00    +0.152 HD
BRANCH   2  10
ATOM     10  C   UNL     1      -1.441  -2.040   0.057  0.00  0.00    -0.015 A 
ATOM     11  C   UNL     1      -0.412  -2.717   0.685  0.00  0.00    +0.009 A 
ATOM     12  C   UNL     1      -0.418  -4.099   0.727  0.00  0.00    +0.039 A 
ATOM     13  C   UNL     1      -1.455  -4.804   0.140  0.00  0.00    +0.123 A 
ATOM     14  C   UNL     1      -2.485  -4.125  -0.488  0.00  0.00    +0.039 A 
ATOM     15  C   UNL     1      -2.479  -2.743  -0.524  0.00  0.00    +0.009 A 
ATOM     16  F   UNL     1      -1.461  -6.155   0.179  0.00  0.00    -0.205 F 
ENDBRANCH   2  10
BRANCH   2  18
ATOM     17  C   UNL     1      -0.019   1.526   0.010  0.00  0.00    +0.007 C 
ATOM     18  C   UNL     1       0.002  -0.004   0.002  0.00  0.00    +0.037 C 
ENDBRANCH   2  18
ENDBRANCH   1   5
BRANCH   1  19
ATOM     19  C   UNL     1      -3.756   2.880   1.656  0.00  0.00    +0.234 C 
ATOM     20  O   UNL     1      -2.686   3.243   1.216  0.00  0.00    -0.274 OA
ATOM     21  N   UNL     1      -4.524   3.739   2.354  0.00  0.00    -0.298 N 
ATOM     22  C   UNL     1      -5.821   3.311   2.898  0.00  0.00    +0.125 C 
ATOM     23  C   UNL     1      -5.833   3.583   4.407  0.00  0.00    +0.128 C 
ATOM     24  N   UNL     1      -5.389   4.964   4.639  0.00  0.00    -0.174 NA
ATOM     25  C   UNL     1      -4.092   5.392   4.096  0.00  0.00    +0.128 C 
ATOM     26  C   UNL     1      -4.077   5.119   2.591  0.00  0.00    +0.125 C 
BRANCH  24  27
ATOM     27  S   UNL     1      -6.332   6.020   5.498  0.00  0.00    +0.061 S 
ATOM     28  O   UNL     1      -5.954   7.328   5.089  0.00  0.00    -0.153 OA
ATOM     29  O   UNL     1      -7.668   5.547   5.395  0.00  0.00    -0.153 OA
BRANCH  27  30
ATOM     30  C   UNL     1      -5.873   5.870   7.192  0.00  0.00    +0.106 A 
ATOM     31  C   UNL     1      -6.513   4.951   8.003  0.00  0.00    +0.030 A 
ATOM     32  C   UNL     1      -6.154   4.833   9.332  0.00  0.00    +0.022 A 
ATOM     33  C   UNL     1      -5.153   5.634   9.851  0.00  0.00    +0.041 A 
ATOM     34  C   UNL     1      -4.513   6.554   9.040  0.00  0.00    +0.022 A 
ATOM     35  C   UNL     1      -4.869   6.667   7.710  0.00  0.00    +0.030 A 
ATOM     36 CL   UNL     1      -4.701   5.487  11.521  0.00  0.00    -0.084 Cl
ENDBRANCH  27  30
ENDBRANCH  24  27
ENDBRANCH   1  19
TORSDOF 6
