REMARK  Name = ZINC12093961
REMARK  7 active torsions:
REMARK  status: ('A' for Active; 'I' for Inactive)
REMARK    1  A    between atoms: C_3  and  C_8
REMARK    2  A    between atoms: C_8  and  C_9
REMARK    3  A    between atoms: C_9  and  N_10
REMARK    4  A    between atoms: C_11  and  C_13
REMARK    5  A    between atoms: C_13  and  C_14
REMARK    6  A    between atoms: C_21  and  C_22
REMARK    7  A    between atoms: C_21  and  N_51
REMARK                            x       y       z     vdW  Elec       q    Type
REMARK                         _______ _______ _______ _____ _____    ______ ____
ROOT
ATOM      1  C   UNL     1       1.597  -4.090  -1.479  0.00  0.00    +0.028 C 
ATOM      2  C   UNL     1       1.452  -4.538  -2.905  0.00  0.00    +0.200 C 
ATOM      3  O   UNL     1       2.021  -5.550  -3.257  0.00  0.00    -0.278 OA
ATOM      4  N   UNL     1       0.722  -3.869  -3.804  0.00  0.00    -0.318 N 
ATOM      5  C   UNL     1       0.028  -2.623  -3.492  0.00  0.00    +0.085 C 
ATOM      6  C   UNL     1      -0.116  -2.467  -1.977  0.00  0.00    -0.058 C 
ATOM      7  H   UNL     1       0.651  -4.227  -4.702  0.00  0.00    +0.149 HD
ATOM      8  N   UNL     1       1.214  -2.670  -1.368  0.00  0.00    +0.391 N 
ATOM      9  H   UNL     1       1.903  -2.096  -1.867  0.00  0.00    -0.080 HD
ENDROOT
BRANCH   1  10
ATOM     10  C   UNL     1       3.055  -4.247  -1.042  0.00  0.00    +0.089 C 
BRANCH  10  12
ATOM     11  N   UNL     1       5.271  -3.404  -1.749  0.00  0.00    -0.315 N 
ATOM     12  C   UNL     1       3.930  -3.355  -1.883  0.00  0.00    +0.212 C 
ATOM     13  O   UNL     1       3.429  -2.591  -2.682  0.00  0.00    -0.276 OA
ATOM     14  H   UNL     1       5.672  -4.014  -1.111  0.00  0.00    +0.149 HD
BRANCH  11  15
ATOM     15  C   UNL     1       6.121  -2.536  -2.567  0.00  0.00    +0.109 C 
BRANCH  15  16
ATOM     16  C   UNL     1       7.590  -2.788  -2.220  0.00  0.00    +0.054 C 
BRANCH  16  19
ATOM     17  C   UNL     1       9.724  -1.515  -5.063  0.00  0.00    +0.002 A 
ATOM     18  C   UNL     1       8.925  -2.336  -4.288  0.00  0.00    +0.004 A 
ATOM     19  C   UNL     1       8.465  -1.895  -3.061  0.00  0.00    -0.045 A 
ATOM     20  C   UNL     1       8.813  -0.639  -2.603  0.00  0.00    +0.023 A 
ATOM     21  C   UNL     1       9.617   0.181  -3.375  0.00  0.00    +0.041 A 
ATOM     22  C   UNL     1      10.072  -0.258  -4.606  0.00  0.00    +0.020 A 
ATOM     23 CL   UNL     1      10.055   1.759  -2.800  0.00  0.00    -0.084 Cl
ENDBRANCH  16  19
ENDBRANCH  15  16
ENDBRANCH  11  15
ENDBRANCH  10  12
ENDBRANCH   1  10
BRANCH   8  24
ATOM     24  C   UNL     1       1.188  -2.262   0.056  0.00  0.00    -0.042 C 
BRANCH  24  25
ATOM     25  C   UNL     1       1.168  -0.757   0.131  0.00  0.00    -0.061 A 
ATOM     26  C   UNL     1       2.356  -0.051   0.170  0.00  0.00    +0.002 A 
ATOM     27  C   UNL     1       2.339   1.329   0.239  0.00  0.00    +0.003 A 
ATOM     28  C   UNL     1       1.134   2.005   0.270  0.00  0.00    +0.038 A 
ATOM     29  C   UNL     1      -0.056   1.300   0.230  0.00  0.00    +0.124 A 
ATOM     30  C   UNL     1      -0.038  -0.083   0.161  0.00  0.00    +0.040 A 
ATOM     31  F   UNL     1      -1.235   1.960   0.254  0.00  0.00    -0.205 F 
ENDBRANCH  24  25
ENDBRANCH   8  24
TORSDOF 7
