REMARK  Name = ZINC38680392
REMARK  12 active torsions:
REMARK  status: ('A' for Active; 'I' for Inactive)
REMARK    1  A    between atoms: C_1  and  C_2
REMARK    2  A    between atoms: C_2  and  C_3
REMARK    3  A    between atoms: C_3  and  C_4
REMARK    4  A    between atoms: C_4  and  C_5
REMARK    5  A    between atoms: C_5  and  O_6
REMARK    6  A    between atoms: O_6  and  C_7
REMARK    7  A    between atoms: C_10  and  C_13
REMARK    8  A    between atoms: C_13  and  O_15
REMARK    9  A    between atoms: O_15  and  C_16
REMARK   10  A    between atoms: C_23  and  N_37
REMARK   11  A    between atoms: C_24  and  C_35
REMARK   12  A    between atoms: C_25  and  C_27
REMARK                            x       y       z     vdW  Elec       q    Type
REMARK                         _______ _______ _______ _____ _____    ______ ____
ROOT
ATOM      1  C   UNL     1       4.671  -8.249  -8.056  0.00  0.00    +0.135 A 
ATOM      2  C   UNL     1       5.260  -7.361  -8.945  0.00  0.00    +0.047 A 
ATOM      3  C   UNL     1       5.931  -7.838 -10.054  0.00  0.00    +0.012 A 
ATOM      4  C   UNL     1       6.020  -9.200 -10.283  0.00  0.00    +0.008 A 
ATOM      5  C   UNL     1       5.434 -10.091  -9.397  0.00  0.00    +0.138 A 
ATOM      6  C   UNL     1       4.763  -9.613  -8.279  0.00  0.00    +0.093 A 
ATOM      7  O   UNL     1       5.510 -11.429  -9.604  0.00  0.00    -0.441 OA
ATOM      8  C   UNL     1       5.802 -11.902 -10.827  0.00  0.00    +0.199 C 
ATOM      9  C   UNL     1       6.392 -11.132 -11.772  0.00  0.00    +0.098 C 
ATOM     10  C   UNL     1       6.756  -9.700 -11.497  0.00  0.00    +0.102 C 
ENDROOT
BRANCH  10  11
ATOM     11  C   UNL     1       8.241  -9.599 -11.258  0.00  0.00    +0.019 A 
ATOM     12  C   UNL     1       8.822 -10.291 -10.209  0.00  0.00    +0.129 A 
ATOM     13  C   UNL     1      10.186 -10.197  -9.990  0.00  0.00    +0.039 A 
ATOM     14  C   UNL     1      10.966  -9.412 -10.819  0.00  0.00    +0.004 A 
ATOM     15  C   UNL     1      10.386  -8.721 -11.865  0.00  0.00    +0.020 A 
ATOM     16  C   UNL     1       9.024  -8.819 -12.089  0.00  0.00    +0.048 A 
ATOM     17 CL   UNL     1       8.296  -7.956 -13.409  0.00  0.00    -0.083 Cl
ATOM     18  F   UNL     1       8.059 -11.057  -9.399  0.00  0.00    -0.205 F 
ENDBRANCH  10  11
BRANCH   8  19
ATOM     19  N   UNL     1       5.491 -13.205 -11.129  0.00  0.00    -0.328 N 
ATOM     20  H   UNL     1       5.067 -13.769 -10.463  0.00  0.00    +0.145 HD
ATOM     21  H   UNL     1       5.696 -13.561 -12.007  0.00  0.00    +0.145 HD
ENDBRANCH   8  19
BRANCH   9  22
ATOM     22  C   UNL     1       6.677 -11.694 -13.058  0.00  0.00    +0.101 C 
ATOM     23  N   UNL     1       6.903 -12.140 -14.078  0.00  0.00    -0.191 NA
ENDBRANCH   9  22
BRANCH   1  24
ATOM     24  O   UNL     1       4.011  -7.780  -6.964  0.00  0.00    -0.422 OA
BRANCH  24  25
ATOM     25  C   UNL     1       4.633  -7.849  -5.771  0.00  0.00    +0.344 C 
ATOM     26  O   UNL     1       5.713  -8.399  -5.679  0.00  0.00    -0.245 OA
BRANCH  25  30
ATOM     27  C   UNL     1       2.822  -6.142  -2.331  0.00  0.00    +0.121 A 
ATOM     28  C   UNL     1       4.057  -6.771  -2.224  0.00  0.00    +0.046 A 
ATOM     29  C   UNL     1       4.648  -7.326  -3.337  0.00  0.00    +0.018 A 
ATOM     30  C   UNL     1       4.004  -7.256  -4.576  0.00  0.00    +0.060 A 
ATOM     31  C   UNL     1       2.762  -6.623  -4.679  0.00  0.00    +0.018 A 
ATOM     32  C   UNL     1       2.175  -6.075  -3.560  0.00  0.00    +0.046 A 
BRANCH  27  33
ATOM     33  O   UNL     1       2.243  -5.596  -1.232  0.00  0.00    -0.492 OA
BRANCH  33  34
ATOM     34  C   UNL     1       2.961  -5.700  -0.001  0.00  0.00    +0.229 C 
BRANCH  34  35
ATOM     35  C   UNL     1       2.157  -5.032   1.116  0.00  0.00    +0.041 C 
BRANCH  35  36
ATOM     36  C   UNL     1       2.926  -5.144   2.434  0.00  0.00    +0.003 C 
BRANCH  36  38
ATOM     37  C   UNL     1       2.892  -4.588   4.870  0.00  0.00    +0.004 C 
ATOM     38  C   UNL     1       2.123  -4.476   3.552  0.00  0.00    -0.003 C 
ENDBRANCH  36  38
ENDBRANCH  35  36
ENDBRANCH  34  35
ENDBRANCH  33  34
ENDBRANCH  27  33
ENDBRANCH  25  30
ENDBRANCH  24  25
ENDBRANCH   1  24
TORSDOF 11
