REMARK  Name = ZINC09492473
REMARK  5 active torsions:
REMARK  status: ('A' for Active; 'I' for Inactive)
REMARK    1  A    between atoms: C_3  and  N_8
REMARK    2  A    between atoms: C_14  and  C_16
REMARK    3  A    between atoms: C_16  and  C_17
REMARK    4  A    between atoms: C_17  and  N_18
REMARK    5  A    between atoms: N_21  and  C_22
REMARK                            x       y       z     vdW  Elec       q    Type
REMARK                         _______ _______ _______ _____ _____    ______ ____
ROOT
ATOM      1  C   UNL     1      -2.122   0.104  -4.332  0.00  0.00    +0.115 C 
ENDROOT
BRANCH   1   2
ATOM      2  N   UNL     1      -2.837   0.614  -5.504  0.00  0.00    -0.299 N 
ATOM      3  C   UNL     1      -3.201  -0.229  -6.491  0.00  0.00    +0.300 C 
ATOM      4  O   UNL     1      -2.935  -1.412  -6.409  0.00  0.00    -0.253 OA
ATOM      5  N   UNL     1      -3.859   0.240  -7.570  0.00  0.00    -0.294 N 
ATOM      6  H   UNL     1      -3.050   1.558  -5.570  0.00  0.00    +0.150 HD
ATOM      7  H   UNL     1      -4.071   1.184  -7.636  0.00  0.00    +0.151 HD
BRANCH   5   8
ATOM      8  C   UNL     1      -4.253  -0.676  -8.643  0.00  0.00    +0.037 C 
ATOM      9  C   UNL     1      -3.007  -1.341  -9.230  0.00  0.00    +0.029 C 
ATOM     10  C   UNL     1      -3.419  -2.297 -10.351  0.00  0.00    -0.008 C 
ATOM     11  C   UNL     1      -4.146  -1.516 -11.447  0.00  0.00    +0.007 C 
ATOM     12  C   UNL     1      -5.392  -0.851 -10.860  0.00  0.00    -0.008 C 
ATOM     13  C   UNL     1      -4.980   0.105  -9.739  0.00  0.00    +0.029 C 
ATOM     14  C   UNL     1      -6.325  -1.925 -10.296  0.00  0.00    +0.007 C 
ATOM     15  C   UNL     1      -5.599  -2.707  -9.199  0.00  0.00    -0.008 C 
ATOM     16  C   UNL     1      -4.352  -3.371  -9.787  0.00  0.00    +0.007 C 
ATOM     17  C   UNL     1      -5.186  -1.750  -8.079  0.00  0.00    +0.029 C 
ENDBRANCH   5   8
ENDBRANCH   1   2
BRANCH   1  18
ATOM     18  C   UNL     1      -1.831   1.258  -3.371  0.00  0.00    +0.114 C 
BRANCH  18  25
ATOM     19  N   UNL     1      -0.895   3.043   1.186  0.00  0.00    -0.327 N 
ATOM     20  C   UNL     1      -0.738   1.584   1.263  0.00  0.00    +0.124 C 
ATOM     21  C   UNL     1      -0.013   1.086   0.008  0.00  0.00    +0.126 C 
ATOM     22  N   UNL     1      -0.732   1.577  -1.178  0.00  0.00    -0.298 N 
ATOM     23  C   UNL     1      -1.043   3.012  -1.258  0.00  0.00    +0.126 C 
ATOM     24  C   UNL     1      -1.732   3.434   0.044  0.00  0.00    +0.124 C 
ATOM     25  C   UNL     1      -1.095   0.734  -2.164  0.00  0.00    +0.217 C 
ATOM     26  O   UNL     1      -0.829  -0.447  -2.082  0.00  0.00    -0.276 OA
BRANCH  19  29
ATOM     27  C   UNL     1      -3.070   4.825   3.552  0.00  0.00    +0.003 A 
ATOM     28  C   UNL     1      -2.563   4.325   2.369  0.00  0.00    +0.023 A 
ATOM     29  C   UNL     1      -1.407   3.554   2.381  0.00  0.00    +0.031 A 
ATOM     30  C   UNL     1      -0.760   3.297   3.583  0.00  0.00    +0.043 A 
ATOM     31  C   UNL     1      -1.270   3.804   4.763  0.00  0.00    +0.043 A 
ATOM     32  C   UNL     1      -2.424   4.568   4.747  0.00  0.00    +0.020 A 
ATOM     33 CL   UNL     1      -0.462   3.484   6.265  0.00  0.00    -0.083 Cl
ENDBRANCH  19  29
ENDBRANCH  18  25
ENDBRANCH   1  18
TORSDOF 5
