REMARK  Name = ZINC44854237
REMARK  10 active torsions:
REMARK  status: ('A' for Active; 'I' for Inactive)
REMARK    1  A    between atoms: C_1  and  C_2
REMARK    2  A    between atoms: C_2  and  C_4
REMARK    3  A    between atoms: C_2  and  N_14
REMARK    4  A    between atoms: C_4  and  C_5
REMARK    5  A    between atoms: C_5  and  C_6
REMARK    6  A    between atoms: C_5  and  C_7
REMARK    7  A    between atoms: C_5  and  C_8
REMARK    8  A    between atoms: C_15  and  C_17
REMARK    9  A    between atoms: N_22  and  C_24
REMARK   10  A    between atoms: C_24  and  C_25
REMARK                            x       y       z     vdW  Elec       q    Type
REMARK                         _______ _______ _______ _____ _____    ______ ____
ROOT
ATOM      1  N   UNL     1       0.296  -0.368   1.505  0.00  0.00    -0.313 N 
ATOM      2  C   UNL     1       1.635  -0.239   1.591  0.00  0.00    +0.215 C 
ATOM      3  O   UNL     1       2.248   0.321   0.707  0.00  0.00    -0.276 OA
ATOM      4  H   UNL     1      -0.194  -0.816   2.212  0.00  0.00    +0.149 HD
ENDROOT
BRANCH   2   5
ATOM      5  C   UNL     1       2.370  -0.792   2.785  0.00  0.00    +0.058 C 
ATOM      6  C   UNL     1       2.139  -2.303   2.873  0.00  0.00    +0.009 C 
ATOM      7  C   UNL     1       2.953  -2.866   4.042  0.00  0.00    -0.018 C 
ATOM      8  C   UNL     1       4.429  -2.516   3.845  0.00  0.00    -0.078 C 
ATOM      9  N   UNL     1       4.587  -1.057   3.795  0.00  0.00    +0.383 N 
ATOM     10  C   UNL     1       3.868  -0.517   2.634  0.00  0.00    -0.066 C 
ATOM     11  H   UNL     1       4.213  -0.650   4.639  0.00  0.00    -0.081 HD
BRANCH   9  12
ATOM     12  C   UNL     1       6.013  -0.724   3.683  0.00  0.00    -0.043 C 
BRANCH  12  13
ATOM     13  C   UNL     1       6.730  -1.160   4.935  0.00  0.00    -0.064 A 
ATOM     14  C   UNL     1       6.843  -0.293   6.005  0.00  0.00    +0.003 A 
ATOM     15  C   UNL     1       7.500  -0.693   7.153  0.00  0.00    +0.015 A 
ATOM     16  C   UNL     1       8.045  -1.962   7.231  0.00  0.00    +0.018 A 
ATOM     17  C   UNL     1       7.932  -2.829   6.160  0.00  0.00    +0.015 A 
ATOM     18  C   UNL     1       7.270  -2.430   5.014  0.00  0.00    +0.003 A 
ATOM     19 BR   UNL     1       8.945  -2.509   8.802  0.00  0.00    -0.050 Br
ENDBRANCH  12  13
ENDBRANCH   9  12
ENDBRANCH   2   5
BRANCH   1  21
ATOM     20  C   UNL     1      -0.723   1.651   0.573  0.00  0.00    +0.028 C 
ATOM     21  C   UNL     1      -0.419   0.169   0.344  0.00  0.00    +0.071 C 
BRANCH  21  22
ATOM     22  C   UNL     1      -1.730  -0.597   0.154  0.00  0.00    +0.033 C 
BRANCH  22  23
ATOM     23  C   UNL     1      -1.423  -2.042  -0.246  0.00  0.00    -0.008 C 
ATOM     24  C   UNL     1      -0.512  -2.048  -1.476  0.00  0.00    +0.016 C 
ATOM     25  C   UNL     1      -0.720  -2.753   0.912  0.00  0.00    +0.016 C 
BRANCH  23  26
ATOM     26  C   UNL     1      -2.709  -2.757  -0.569  0.00  0.00    -0.042 A 
ATOM     27  C   UNL     1      -3.914  -2.086  -0.481  0.00  0.00    +0.004 A 
ATOM     28  C   UNL     1      -5.094  -2.743  -0.778  0.00  0.00    +0.000 A 
ATOM     29  C   UNL     1      -5.068  -4.071  -1.162  0.00  0.00    +0.000 A 
ATOM     30  C   UNL     1      -3.863  -4.742  -1.250  0.00  0.00    +0.000 A 
ATOM     31  C   UNL     1      -2.683  -4.084  -0.958  0.00  0.00    +0.004 A 
ENDBRANCH  23  26
ENDBRANCH  22  23
ENDBRANCH  21  22
ENDBRANCH   1  21
TORSDOF 7
