REMARK  Name = ZINC38814891
REMARK  10 active torsions:
REMARK  status: ('A' for Active; 'I' for Inactive)
REMARK    1  A    between atoms: C_1  and  C_2
REMARK    2  A    between atoms: C_4  and  C_15
REMARK    3  A    between atoms: C_5  and  C_14
REMARK    4  A    between atoms: N_7  and  C_8
REMARK    5  A    between atoms: C_18  and  C_20
REMARK    6  A    between atoms: N_22  and  N_23
REMARK    7  A    between atoms: C_24  and  C_25
REMARK    8  A    between atoms: C_28  and  N_31
REMARK    9  A    between atoms: N_31  and  C_32
REMARK   10  A    between atoms: N_31  and  C_33
REMARK                            x       y       z     vdW  Elec       q    Type
REMARK                         _______ _______ _______ _____ _____    ______ ____
ROOT
ATOM      1  C   UNL     1       0.389  -0.321  -2.551  0.00  0.00    +0.076 C 
ATOM      2  N   UNL     1      -0.627   0.384  -3.022  0.00  0.00    -0.153 NA
ATOM      3  N   UNL     1      -0.692   0.415  -4.295  0.00  0.00    -0.148 NA
ATOM      4  C   UNL     1       0.258  -0.255  -4.903  0.00  0.00    +0.132 C 
ATOM      5  C   UNL     1       1.112  -0.832  -3.787  0.00  0.00    +0.120 C 
ENDROOT
BRANCH   1   8
ATOM      6  C   UNL     1      -0.013   1.508   0.012  0.00  0.00    +0.035 C 
ATOM      7  C   UNL     1      -0.011  -0.021   0.002  0.00  0.00    +0.124 C 
ATOM      8  C   UNL     1       0.726  -0.542  -1.213  0.00  0.00    +0.016 C 
ATOM      9  C   UNL     1       1.778  -1.266  -0.751  0.00  0.00    +0.026 C 
ATOM     10  N   UNL     1       1.817  -1.280   0.602  0.00  0.00    -0.267 N 
ATOM     11  N   UNL     1       0.754  -0.543   1.147  0.00  0.00    -0.246 N 
ATOM     12  C   UNL     1       2.778  -1.966  -1.635  0.00  0.00    +0.062 C 
ATOM     13  H   UNL     1       2.490  -1.742   1.127  0.00  0.00    +0.170 HD
BRANCH  11  14
ATOM     14  C   UNL     1       0.478  -0.342   2.501  0.00  0.00    +0.048 A 
ATOM     15  C   UNL     1      -0.623   0.415   2.882  0.00  0.00    +0.025 A 
ATOM     16  C   UNL     1      -0.893   0.611   4.222  0.00  0.00    +0.002 A 
ATOM     17  C   UNL     1      -0.070   0.056   5.184  0.00  0.00    +0.000 A 
ATOM     18  C   UNL     1       1.027  -0.698   4.808  0.00  0.00    +0.002 A 
ATOM     19  C   UNL     1       1.300  -0.903   3.470  0.00  0.00    +0.025 A 
ENDBRANCH  11  14
ENDBRANCH   1   8
BRANCH   4  20
ATOM     20  C   UNL     1       0.449  -0.404  -6.298  0.00  0.00    +0.280 C 
ATOM     21  O   UNL     1       1.384  -1.062  -6.718  0.00  0.00    -0.267 OA
ATOM     22  N   UNL     1      -0.403   0.183  -7.162  0.00  0.00    -0.202 N 
ATOM     23  H   UNL     1      -1.147   0.708  -6.827  0.00  0.00    +0.178 HD
BRANCH  22  24
ATOM     24  N   UNL     1      -0.214   0.036  -8.542  0.00  0.00    -0.187 NA
ATOM     25  C   UNL     1      -1.035   0.602  -9.374  0.00  0.00    +0.138 C 
BRANCH  25  26
ATOM     26  C   UNL     1      -0.836   0.447 -10.826  0.00  0.00    -0.005 A 
ATOM     27  C   UNL     1       0.233  -0.312 -11.309  0.00  0.00    +0.011 A 
ATOM     28  C   UNL     1       0.416  -0.455 -12.667  0.00  0.00    +0.024 A 
ATOM     29  C   UNL     1      -0.461   0.157 -13.557  0.00  0.00    +0.029 A 
ATOM     30  C   UNL     1      -1.526   0.914 -13.079  0.00  0.00    +0.024 A 
ATOM     31  C   UNL     1      -1.719   1.055 -11.723  0.00  0.00    +0.011 A 
BRANCH  29  32
ATOM     32  N   UNL     1      -0.272   0.011 -14.931  0.00  0.00    -0.336 N 
ATOM     33  C   UNL     1       0.917  -0.678 -15.438  0.00  0.00    +0.129 C 
ATOM     34  C   UNL     1      -1.263   0.547 -15.867  0.00  0.00    +0.129 C 
ENDBRANCH  29  32
ENDBRANCH  25  26
ENDBRANCH  22  24
ENDBRANCH   4  20
TORSDOF 6
