REMARK  Name = ZINC66189144
REMARK  3 active torsions:
REMARK  status: ('A' for Active; 'I' for Inactive)
REMARK    1  A    between atoms: C_2  and  C_11
REMARK    2  A    between atoms: C_11  and  N_12
REMARK    3  A    between atoms: C_18  and  N_21
REMARK                            x       y       z     vdW  Elec       q    Type
REMARK                         _______ _______ _______ _____ _____    ______ ____
ROOT
ATOM      1  N   UNL     1       1.153   4.077   1.394  0.00  0.00    -0.295 N 
ATOM      2  C   UNL     1       1.134   5.401   1.648  0.00  0.00    +0.302 C 
ATOM      3  O   UNL     1       1.113   6.196   0.728  0.00  0.00    -0.253 OA
ATOM      4  N   UNL     1       1.139   5.843   2.921  0.00  0.00    -0.287 N 
ATOM      5  C   UNL     1       1.170   4.996   4.122  0.00  0.00    +0.108 C 
ATOM      6  C   UNL     1       1.138   5.936   5.346  0.00  0.00    +0.005 C 
ATOM      7  C   UNL     1       0.520   7.237   4.769  0.00  0.00    -0.049 C 
ATOM      8  C   UNL     1       1.121   7.257   3.339  0.00  0.00    +0.094 C 
ATOM      9  H   UNL     1       1.169   3.443   2.128  0.00  0.00    +0.151 HD
ENDROOT
BRANCH   7  10
ATOM     10  N   UNL     1       0.954   8.411   5.538  0.00  0.00    +0.383 N 
ATOM     11  C   UNL     1       0.284   9.634   5.025  0.00  0.00    -0.078 C 
ATOM     12  C   UNL     1       0.377  10.616   6.220  0.00  0.00    -0.020 C 
ATOM     13  C   UNL     1       0.166   9.694   7.443  0.00  0.00    -0.020 C 
ATOM     14  C   UNL     1       0.532   8.282   6.949  0.00  0.00    -0.078 C 
ATOM     15  H   UNL     1       1.956   8.513   5.482  0.00  0.00    -0.081 HD
ENDBRANCH   7  10
BRANCH   1  16
ATOM     16  C   UNL     1       1.147   3.596   0.010  0.00  0.00    +0.141 C 
BRANCH  16  18
ATOM     17  C   UNL     1      -0.017   1.381   0.010  0.00  0.00    +0.054 A 
ATOM     18  C   UNL     1       1.171   2.090   0.002  0.00  0.00    -0.026 A 
ATOM     19  C   UNL     1       2.379   1.419  -0.013  0.00  0.00    +0.024 A 
ATOM     20  C   UNL     1       2.406   0.036  -0.021  0.00  0.00    +0.064 A 
ATOM     21  C   UNL     1       1.220  -0.680  -0.014  0.00  0.00    +0.180 A 
ATOM     22  C   UNL     1       0.002  -0.004   0.002  0.00  0.00    +0.168 A 
ATOM     23  O   UNL     1      -1.007  -0.923   0.006  0.00  0.00    -0.453 OA
ATOM     24  C   UNL     1      -0.404  -2.159  -0.419  0.00  0.00    +0.466 C 
ATOM     25  O   UNL     1       0.973  -2.023  -0.020  0.00  0.00    -0.451 OA
ATOM     26 BR   UNL     1       4.061  -0.877  -0.043  0.00  0.00    -0.046 Br
ENDBRANCH  16  18
ENDBRANCH   1  16
TORSDOF 3
