REMARK  Name = ZINC37422436
REMARK  11 active torsions:
REMARK  status: ('A' for Active; 'I' for Inactive)
REMARK    1  A    between atoms: C_1  and  C_2
REMARK    2  A    between atoms: C_2  and  C_3
REMARK    3  A    between atoms: C_2  and  C_4
REMARK    4  A    between atoms: C_2  and  N_5
REMARK    5  A    between atoms: N_8  and  C_9
REMARK    6  A    between atoms: N_8  and  C_28
REMARK    7  A    between atoms: C_9  and  C_10
REMARK    8  A    between atoms: C_15  and  O_16
REMARK    9  A    between atoms: O_16  and  S_17
REMARK   10  A    between atoms: S_17  and  C_20
REMARK   11  A    between atoms: C_28  and  C_29
REMARK                            x       y       z     vdW  Elec       q    Type
REMARK                         _______ _______ _______ _____ _____    ______ ____
ROOT
ATOM      1  C   UNL     1       4.909  -1.223  -2.162  0.00  0.00    +0.016 A 
ATOM      2  C   UNL     1       5.499  -0.978  -0.937  0.00  0.00    +0.029 A 
ATOM      3  C   UNL     1       6.335  -1.923  -0.370  0.00  0.00    +0.042 A 
ATOM      4  C   UNL     1       6.583  -3.115  -1.030  0.00  0.00    +0.023 A 
ATOM      5  C   UNL     1       5.995  -3.363  -2.255  0.00  0.00    +0.050 A 
ATOM      6  C   UNL     1       5.151  -2.418  -2.822  0.00  0.00    +0.162 A 
ATOM      7 CL   UNL     1       7.076  -1.614   1.169  0.00  0.00    -0.084 Cl
ENDROOT
BRANCH   1   8
ATOM      8  C   UNL     1       3.998  -0.193  -2.779  0.00  0.00    +0.148 C 
BRANCH   8  12
ATOM      9  N   UNL     1       0.688  -0.476  -1.203  0.00  0.00    -0.294 N 
ATOM     10  C   UNL     1       1.972  -0.132  -1.427  0.00  0.00    +0.303 C 
ATOM     11  O   UNL     1       2.561   0.570  -0.628  0.00  0.00    -0.253 OA
ATOM     12  N   UNL     1       2.602  -0.567  -2.536  0.00  0.00    -0.279 N 
ATOM     13  H   UNL     1       0.218  -1.037  -1.840  0.00  0.00    +0.151 HD
BRANCH   9  15
ATOM     14  C   UNL     1      -0.019   1.526   0.010  0.00  0.00    +0.031 C 
ATOM     15  C   UNL     1       0.002  -0.004   0.002  0.00  0.00    +0.028 C 
ATOM     16  C   UNL     1       0.742  -0.511   1.242  0.00  0.00    +0.031 C 
ATOM     17  C   UNL     1      -1.433  -0.534   0.013  0.00  0.00    +0.031 C 
ENDBRANCH   9  15
BRANCH  12  18
ATOM     18  C   UNL     1       1.893  -1.414  -3.498  0.00  0.00    +0.141 C 
BRANCH  18  19
ATOM     19  C   UNL     1       1.206  -0.532  -4.544  0.00  0.00    +0.136 C 
ATOM     20  C   UNL     1       0.357  -1.408  -5.490  0.00  0.00    +0.035 C 
ATOM     21  C   UNL     1       0.603  -0.736  -6.869  0.00  0.00    +0.031 C 
ATOM     22  C   UNL     1       2.072  -0.271  -6.712  0.00  0.00    +0.160 C 
ATOM     23  O   UNL     1       2.193   0.137  -5.338  0.00  0.00    -0.375 OA
ENDBRANCH  18  19
ENDBRANCH  12  18
ENDBRANCH   8  12
ENDBRANCH   1   8
BRANCH   6  24
ATOM     24  O   UNL     1       4.567  -2.663  -4.024  0.00  0.00    -0.342 OA
BRANCH  24  25
ATOM     25  S   UNL     1       5.389  -2.198  -5.218  0.00  0.00    +0.151 S 
ATOM     26  O   UNL     1       4.557  -2.335  -6.362  0.00  0.00    -0.131 OA
ATOM     27  O   UNL     1       5.977  -0.959  -4.848  0.00  0.00    -0.131 OA
BRANCH  25  28
ATOM     28  C   UNL     1       6.712  -3.344  -5.418  0.00  0.00    +0.128 A 
ATOM     29  C   UNL     1       7.912  -3.135  -4.763  0.00  0.00    +0.033 A 
ATOM     30  C   UNL     1       8.950  -4.033  -4.919  0.00  0.00    +0.040 A 
ATOM     31  C   UNL     1       8.789  -5.143  -5.730  0.00  0.00    +0.124 A 
ATOM     32  C   UNL     1       7.587  -5.352  -6.385  0.00  0.00    +0.040 A 
ATOM     33  C   UNL     1       6.548  -4.455  -6.224  0.00  0.00    +0.033 A 
ATOM     34  F   UNL     1       9.803  -6.022  -5.883  0.00  0.00    -0.205 F 
ENDBRANCH  25  28
ENDBRANCH  24  25
ENDBRANCH   6  24
TORSDOF 8
