REMARK  Name = ZINC52634597
REMARK  8 active torsions:
REMARK  status: ('A' for Active; 'I' for Inactive)
REMARK    1  A    between atoms: C_1  and  C_2
REMARK    2  A    between atoms: C_7  and  C_10
REMARK    3  A    between atoms: N_13  and  C_14
REMARK    4  A    between atoms: C_14  and  C_15
REMARK    5  A    between atoms: C_15  and  C_17
REMARK    6  A    between atoms: C_15  and  N_25
REMARK    7  A    between atoms: C_20  and  O_23
REMARK    8  A    between atoms: O_23  and  C_24
REMARK                            x       y       z     vdW  Elec       q    Type
REMARK                         _______ _______ _______ _____ _____    ______ ____
ROOT
ATOM      1  C   UNL     1      -2.489  -6.430  -0.740  0.00  0.00    -0.020 C 
ENDROOT
BRANCH   1   2
ATOM      2  C   UNL     1      -3.144  -7.313  -1.770  0.00  0.00    -0.059 A 
ATOM      3  C   UNL     1      -2.515  -7.548  -2.979  0.00  0.00    +0.005 A 
ATOM      4  C   UNL     1      -3.114  -8.358  -3.925  0.00  0.00    +0.046 A 
ATOM      5  C   UNL     1      -4.347  -8.935  -3.661  0.00  0.00    +0.120 A 
ATOM      6  C   UNL     1      -4.976  -8.699  -2.447  0.00  0.00    +0.046 A 
ATOM      7  C   UNL     1      -4.370  -7.893  -1.502  0.00  0.00    +0.005 A 
BRANCH   5   8
ATOM      8  O   UNL     1      -4.938  -9.732  -4.590  0.00  0.00    -0.495 OA
ATOM      9  C   UNL     1      -6.208 -10.293  -4.250  0.00  0.00    +0.277 C 
ENDBRANCH   5   8
ENDBRANCH   1   2
BRANCH   1  10
ATOM     10  N   UNL     1      -1.044  -6.697  -0.713  0.00  0.00    +0.385 N 
ATOM     11  C   UNL     1      -0.408  -5.961   0.409  0.00  0.00    -0.078 C 
ATOM     12  C   UNL     1       0.903  -6.749   0.652  0.00  0.00    -0.020 C 
ATOM     13  C   UNL     1       0.473  -8.216   0.422  0.00  0.00    -0.020 C 
ATOM     14  C   UNL     1      -0.796  -8.131  -0.446  0.00  0.00    -0.078 C 
ATOM     15  H   UNL     1      -0.624  -6.429  -1.590  0.00  0.00    -0.081 HD
ENDBRANCH   1  10
BRANCH   1  16
ATOM     16  C   UNL     1      -2.728  -4.962  -1.101  0.00  0.00    +0.095 C 
BRANCH  16  27
ATOM     17  C   UNL     1      -7.899   0.034  -0.594  0.00  0.00    +0.039 C 
ATOM     18  C   UNL     1      -7.200  -1.282  -0.246  0.00  0.00    +0.133 C 
ATOM     19  C   UNL     1      -6.422  -1.786  -1.467  0.00  0.00    +0.140 C 
ATOM     20  N   UNL     1      -5.917  -3.136  -1.170  0.00  0.00    -0.281 N 
ATOM     21  C   UNL     1      -6.869  -4.133  -0.654  0.00  0.00    +0.140 C 
ATOM     22  C   UNL     1      -7.626  -3.514   0.526  0.00  0.00    +0.133 C 
ATOM     23  O   UNL     1      -8.177  -2.257   0.127  0.00  0.00    -0.371 OA
ATOM     24  C   UNL     1      -6.662  -3.301   1.695  0.00  0.00    +0.039 C 
ATOM     25  C   UNL     1      -4.621  -3.450  -1.364  0.00  0.00    +0.302 C 
ATOM     26  O   UNL     1      -3.870  -2.642  -1.875  0.00  0.00    -0.253 OA
ATOM     27  N   UNL     1      -4.158  -4.660  -0.992  0.00  0.00    -0.300 N 
ATOM     28  H   UNL     1      -4.771  -5.331  -0.653  0.00  0.00    +0.150 HD
ENDBRANCH  16  27
ENDBRANCH   1  16
TORSDOF 5
