REMARK  Name = ZINC38745143
REMARK  5 active torsions:
REMARK  status: ('A' for Active; 'I' for Inactive)
REMARK    1  A    between atoms: C_4  and  C_7
REMARK    2  A    between atoms: C_9  and  C_13
REMARK    3  A    between atoms: C_17  and  C_22
REMARK    4  A    between atoms: C_22  and  C_23
REMARK    5  A    between atoms: C_22  and  C_29
REMARK                            x       y       z     vdW  Elec       q    Type
REMARK                         _______ _______ _______ _____ _____    ______ ____
ROOT
ATOM      1  C   UNL     1       6.683  -1.269   1.312  0.00  0.00    +0.182 C 
ATOM      2  N   UNL     1       7.891  -2.134   1.259  0.00  0.00    -0.265 N 
ATOM      3  N   UNL     1       7.764  -3.340   1.881  0.00  0.00    -0.223 N 
ATOM      4  C   UNL     1       8.604  -4.306   2.406  0.00  0.00    +0.163 A 
ATOM      5  N   UNL     1       7.867  -5.286   2.839  0.00  0.00    -0.131 NA
ATOM      6  N   UNL     1       6.623  -5.021   2.648  0.00  0.00    -0.121 NA
ATOM      7  C   UNL     1       6.511  -3.854   2.094  0.00  0.00    +0.210 A 
ATOM      8  S   UNL     1       5.408  -2.591   1.491  0.00  0.00    -0.058 S 
ATOM      9  H   UNL     1       8.212  -2.249   0.309  0.00  0.00    +0.168 HD
ENDROOT
BRANCH   1  12
ATOM     10  C   UNL     1       5.748   1.650  -0.041  0.00  0.00    +0.091 C 
ATOM     11  C   UNL     1       5.263   0.400   0.094  0.00  0.00    +0.034 C 
ATOM     12  C   UNL     1       6.498  -0.480   0.014  0.00  0.00    +0.185 C 
ATOM     13  N   UNL     1       7.590   0.490  -0.169  0.00  0.00    -0.177 NA
ATOM     14  N   UNL     1       7.098   1.620  -0.194  0.00  0.00    -0.154 NA
BRANCH  10  18
ATOM     15  C   UNL     1       3.387   5.186  -0.010  0.00  0.00    +0.000 A 
ATOM     16  C   UNL     1       4.758   5.274  -0.173  0.00  0.00    +0.001 A 
ATOM     17  C   UNL     1       5.529   4.130  -0.183  0.00  0.00    +0.010 A 
ATOM     18  C   UNL     1       4.924   2.884  -0.030  0.00  0.00    +0.002 A 
ATOM     19  C   UNL     1       3.543   2.800   0.134  0.00  0.00    +0.010 A 
ATOM     20  C   UNL     1       2.781   3.951   0.143  0.00  0.00    +0.001 A 
ENDBRANCH  10  18
ENDBRANCH   1  12
BRANCH   4  21
ATOM     21  C   UNL     1      10.108  -4.236   2.465  0.00  0.00    +0.118 C 
BRANCH  21  22
ATOM     22  C   UNL     1      10.558  -4.310   3.902  0.00  0.00    -0.033 A 
ATOM     23  C   UNL     1      10.131  -5.349   4.707  0.00  0.00    +0.004 A 
ATOM     24  C   UNL     1      10.544  -5.417   6.024  0.00  0.00    +0.000 A 
ATOM     25  C   UNL     1      11.384  -4.446   6.537  0.00  0.00    +0.000 A 
ATOM     26  C   UNL     1      11.812  -3.407   5.731  0.00  0.00    +0.000 A 
ATOM     27  C   UNL     1      11.403  -3.342   4.412  0.00  0.00    +0.004 A 
ENDBRANCH  21  22
BRANCH  21  28
ATOM     28  C   UNL     1      10.696  -5.389   1.694  0.00  0.00    -0.033 A 
ATOM     29  C   UNL     1      10.280  -6.681   1.959  0.00  0.00    +0.004 A 
ATOM     30  C   UNL     1      10.819  -7.739   1.252  0.00  0.00    +0.000 A 
ATOM     31  C   UNL     1      11.774  -7.506   0.280  0.00  0.00    +0.000 A 
ATOM     32  C   UNL     1      12.190  -6.214   0.015  0.00  0.00    +0.000 A 
ATOM     33  C   UNL     1      11.647  -5.155   0.719  0.00  0.00    +0.004 A 
ENDBRANCH  21  28
ENDBRANCH   4  21
TORSDOF 5
