REMARK  Name = ZINC13976996
REMARK  9 active torsions:
REMARK  status: ('A' for Active; 'I' for Inactive)
REMARK    1  A    between atoms: C_1  and  C_2
REMARK    2  A    between atoms: C_5  and  O_9
REMARK    3  A    between atoms: O_9  and  C_10
REMARK    4  A    between atoms: C_10  and  C_11
REMARK    5  A    between atoms: N_13  and  N_14
REMARK    6  A    between atoms: N_14  and  C_15
REMARK    7  A    between atoms: C_15  and  N_17
REMARK    8  A    between atoms: C_18  and  C_20
REMARK    9  A    between atoms: C_20  and  C_21
REMARK                            x       y       z     vdW  Elec       q    Type
REMARK                         _______ _______ _______ _____ _____    ______ ____
ROOT
ATOM      1  C   UNL     1       2.320   1.240  -0.013  0.00  0.00    +0.153 C 
ATOM      2  S   UNL     1       2.343  -0.472  -0.023  0.00  0.00    -0.017 S 
ENDROOT
BRANCH   1   3
ATOM      3  N   UNL     1       1.143   1.898   0.001  0.00  0.00    -0.266 N 
ATOM      4  C   UNL     1      -0.014   1.208   0.009  0.00  0.00    +0.223 C 
ATOM      5  O   UNL     1       0.002  -0.004   0.002  0.00  0.00    -0.275 OA
ATOM      6  H   UNL     1       1.130   2.868   0.007  0.00  0.00    +0.157 HD
BRANCH   4   7
ATOM      7  C   UNL     1      -1.330   1.944   0.019  0.00  0.00    +0.131 C 
BRANCH   7   8
ATOM      8  C   UNL     1      -2.462   0.949   0.019  0.00  0.00    -0.031 A 
ATOM      9  C   UNL     1      -3.049   0.581  -1.153  0.00  0.00    +0.005 A 
ATOM     10  C   UNL     1      -4.097  -0.337  -1.173  0.00  0.00    +0.001 A 
ATOM     11  C   UNL     1      -4.563  -0.893  -0.021  0.00  0.00    +0.008 A 
ATOM     12  C   UNL     1      -3.982  -0.538   1.208  0.00  0.00    -0.018 A 
ATOM     13  C   UNL     1      -2.913   0.393   1.228  0.00  0.00    -0.014 A 
ATOM     14  C   UNL     1      -2.334   0.751   2.457  0.00  0.00    +0.009 A 
ATOM     15  C   UNL     1      -2.801   0.196   3.608  0.00  0.00    +0.001 A 
ATOM     16  C   UNL     1      -3.849  -0.722   3.589  0.00  0.00    +0.001 A 
ATOM     17  C   UNL     1      -4.437  -1.090   2.417  0.00  0.00    +0.008 A 
ENDBRANCH   7   8
ENDBRANCH   4   7
ENDBRANCH   1   3
BRANCH   1  18
ATOM     18  N   UNL     1       3.478   1.930  -0.021  0.00  0.00    -0.245 N 
ATOM     19  H   UNL     1       4.324   1.456  -0.031  0.00  0.00    +0.172 HD
BRANCH  18  22
ATOM     20  C   UNL     1       4.617   4.020  -0.020  0.00  0.00    +0.267 C 
ATOM     21  O   UNL     1       5.675   3.428  -0.034  0.00  0.00    -0.271 OA
ATOM     22  N   UNL     1       3.459   3.331  -0.013  0.00  0.00    -0.232 N 
ATOM     23  H   UNL     1       2.612   3.804  -0.003  0.00  0.00    +0.173 HD
BRANCH  20  24
ATOM     24  C   UNL     1       4.596   5.527  -0.012  0.00  0.00    +0.326 C 
BRANCH  24  25
ATOM     25  O   UNL     1       5.937   6.022  -0.022  0.00  0.00    -0.482 OA
BRANCH  25  30
ATOM     26  C   UNL     1       6.598  11.616   0.004  0.00  0.00    +0.044 C 
ATOM     27  C   UNL     1       6.422  10.119  -0.004  0.00  0.00    -0.049 A 
ATOM     28  C   UNL     1       5.151   9.574   0.005  0.00  0.00    +0.007 A 
ATOM     29  C   UNL     1       4.986   8.203  -0.002  0.00  0.00    +0.047 A 
ATOM     30  C   UNL     1       6.096   7.372  -0.017  0.00  0.00    +0.135 A 
ATOM     31  C   UNL     1       7.371   7.921  -0.020  0.00  0.00    +0.060 A 
ATOM     32  C   UNL     1       7.530   9.294  -0.018  0.00  0.00    +0.022 A 
ATOM     33 BR   UNL     1       8.888   6.792  -0.033  0.00  0.00    -0.047 Br
ENDBRANCH  25  30
ENDBRANCH  24  25
ENDBRANCH  20  24
ENDBRANCH  18  22
ENDBRANCH   1  18
TORSDOF 8
