REMARK  Name = ZINC31797285
REMARK  10 active torsions:
REMARK  status: ('A' for Active; 'I' for Inactive)
REMARK    1  A    between atoms: C_1  and  C_2
REMARK    2  A    between atoms: C_3  and  S_21
REMARK    3  A    between atoms: C_8  and  C_10
REMARK    4  A    between atoms: C_12  and  C_17
REMARK    5  A    between atoms: C_14  and  C_15
REMARK    6  A    between atoms: C_14  and  C_16
REMARK    7  A    between atoms: C_18  and  C_19
REMARK    8  A    between atoms: C_18  and  C_20
REMARK    9  A    between atoms: S_21  and  C_22
REMARK   10  A    between atoms: C_22  and  C_23
REMARK                            x       y       z     vdW  Elec       q    Type
REMARK                         _______ _______ _______ _____ _____    ______ ____
ROOT
ATOM      1  C   UNL     1      -6.867  -4.455  -0.727  0.00  0.00    +0.067 C 
ATOM      2  C   UNL     1      -5.474  -4.105  -0.270  0.00  0.00    +0.061 A 
ATOM      3  C   UNL     1      -4.819  -3.045  -0.820  0.00  0.00    +0.070 A 
ATOM      4  S   UNL     1      -3.273  -3.111   0.077  0.00  0.00    -0.045 S 
ATOM      5  C   UNL     1      -3.663  -4.536   1.083  0.00  0.00    +0.166 A 
ATOM      6  N   UNL     1      -4.884  -4.820   0.670  0.00  0.00    -0.229 NA
ATOM      7  N   UNL     1      -2.888  -5.173   2.049  0.00  0.00    -0.264 N 
ATOM      8  C   UNL     1      -1.652  -4.715   2.330  0.00  0.00    +0.223 C 
ATOM      9  O   UNL     1      -1.214  -3.749   1.742  0.00  0.00    -0.275 OA
ATOM     10  H   UNL     1      -3.238  -5.946   2.519  0.00  0.00    +0.157 HD
ENDROOT
BRANCH   8  11
ATOM     11  C   UNL     1      -0.813  -5.405   3.375  0.00  0.00    +0.089 C 
ATOM     12  C   UNL     1       0.708  -5.311   3.235  0.00  0.00    +0.030 C 
ATOM     13  C   UNL     1      -0.008  -6.631   2.939  0.00  0.00    -0.016 C 
ATOM     14  C   UNL     1       0.155  -7.766   3.952  0.00  0.00    +0.012 C 
ATOM     15  C   UNL     1      -0.117  -7.063   1.475  0.00  0.00    +0.012 C 
BRANCH  12  16
ATOM     16  C   UNL     1       1.519  -5.228   4.502  0.00  0.00    -0.023 C 
ATOM     17  C   UNL     1       2.804  -4.977   4.442  0.00  0.00    -0.079 C 
ATOM     18  C   UNL     1       3.470  -4.771   3.106  0.00  0.00    +0.038 C 
ATOM     19  C   UNL     1       3.615  -4.894   5.709  0.00  0.00    +0.038 C 
ENDBRANCH  12  16
ENDBRANCH   8  11
BRANCH   3  20
ATOM     20  S   UNL     1      -5.347  -1.921  -2.070  0.00  0.00    -0.107 S 
BRANCH  20  21
ATOM     21  C   UNL     1      -3.940  -0.793  -2.269  0.00  0.00    +0.170 C 
BRANCH  21  22
ATOM     22  C   UNL     1      -4.265   0.233  -3.324  0.00  0.00    +0.221 C 
ATOM     23  O   UNL     1      -5.339   0.206  -3.886  0.00  0.00    -0.275 OA
ATOM     24  N   UNL     1      -3.361   1.181  -3.643  0.00  0.00    -0.329 N 
ATOM     25  H   UNL     1      -2.502   1.202  -3.193  0.00  0.00    +0.145 HD
ATOM     26  H   UNL     1      -3.570   1.841  -4.322  0.00  0.00    +0.145 HD
ENDBRANCH  21  22
ENDBRANCH  20  21
ENDBRANCH   3  20
TORSDOF 5
