REMARK  Name = ZINC35415633
REMARK  12 active torsions:
REMARK  status: ('A' for Active; 'I' for Inactive)
REMARK    1  A    between atoms: C_1  and  C_2
REMARK    2  A    between atoms: C_5  and  N_9
REMARK    3  A    between atoms: C_6  and  C_8
REMARK    4  A    between atoms: C_10  and  C_12
REMARK    5  A    between atoms: C_16  and  N_17
REMARK    6  A    between atoms: C_18  and  C_20
REMARK    7  A    between atoms: C_20  and  N_21
REMARK    8  A    between atoms: C_25  and  C_28
REMARK    9  A    between atoms: C_30  and  C_34
REMARK   10  A    between atoms: C_34  and  C_35
REMARK   11  A    between atoms: C_34  and  C_36
REMARK   12  A    between atoms: C_34  and  C_37
REMARK                            x       y       z     vdW  Elec       q    Type
REMARK                         _______ _______ _______ _____ _____    ______ ____
ROOT
ATOM      1  C   UNL     1      -0.132  -6.301  -1.187  0.00  0.00    +0.069 A 
ATOM      2  C   UNL     1      -1.415  -6.979  -1.133  0.00  0.00    -0.023 A 
ATOM      3  C   UNL     1      -1.328  -8.327  -1.140  0.00  0.00    -0.004 A 
ATOM      4  S   UNL     1       0.406  -8.665  -1.219  0.00  0.00    -0.077 S 
ATOM      5  C   UNL     1       1.003  -7.095  -1.245  0.00  0.00    +0.084 A 
ATOM      6  C   UNL     1      -2.464  -9.302  -1.091  0.00  0.00    +0.046 C 
ATOM      7  C   UNL     1      -3.727  -8.548  -0.651  0.00  0.00    -0.000 C 
ATOM      8  C   UNL     1      -3.854  -7.266  -1.478  0.00  0.00    +0.009 C 
ATOM      9  C   UNL     1      -2.762  -6.274  -1.072  0.00  0.00    +0.037 C 
ENDROOT
BRANCH   1  11
ATOM     10  N   UNL     1       0.058  -4.169  -0.021  0.00  0.00    -0.281 N 
ATOM     11  C   UNL     1      -0.041  -4.838  -1.187  0.00  0.00    +0.251 C 
ATOM     12  O   UNL     1      -0.054  -4.227  -2.240  0.00  0.00    -0.270 OA
ATOM     13  H   UNL     1       0.135  -4.658   0.814  0.00  0.00    +0.155 HD
BRANCH  10  18
ATOM     14  C   UNL     1       0.024   1.503   0.006  0.00  0.00    +0.044 C 
ATOM     15  C   UNL     1       0.033  -0.004  -0.001  0.00  0.00    -0.050 A 
ATOM     16  C   UNL     1       0.631  -0.685  -1.046  0.00  0.00    +0.005 A 
ATOM     17  C   UNL     1       0.641  -2.066  -1.055  0.00  0.00    +0.024 A 
ATOM     18  C   UNL     1       0.050  -2.771  -0.014  0.00  0.00    +0.037 A 
ATOM     19  C   UNL     1      -0.549  -2.083   1.033  0.00  0.00    -0.029 A 
ATOM     20  C   UNL     1      -0.551  -0.702   1.039  0.00  0.00    +0.008 A 
ATOM     21  C   UNL     1      -1.193  -2.843   2.164  0.00  0.00    +0.045 C 
ENDBRANCH  10  18
ENDBRANCH   1  11
BRANCH   5  22
ATOM     22  N   UNL     1       2.327  -6.687  -1.309  0.00  0.00    -0.281 N 
ATOM     23  C   UNL     1       3.313  -7.605  -1.360  0.00  0.00    +0.201 C 
ATOM     24  O   UNL     1       3.042  -8.787  -1.351  0.00  0.00    -0.278 OA
ATOM     25  H   UNL     1       2.543  -5.742  -1.316  0.00  0.00    +0.155 HD
BRANCH  23  26
ATOM     26  C   UNL     1       4.752  -7.161  -1.429  0.00  0.00    +0.019 C 
BRANCH  26  27
ATOM     27  N   UNL     1       5.626  -8.341  -1.476  0.00  0.00    +0.386 N 
ATOM     28  C   UNL     1       5.379  -9.082  -2.719  0.00  0.00    -0.078 C 
ATOM     29  C   UNL     1       6.228 -10.355  -2.736  0.00  0.00    -0.018 C 
ATOM     30  C   UNL     1       7.709  -9.975  -2.651  0.00  0.00    -0.001 C 
ATOM     31  C   UNL     1       7.941  -9.139  -1.389  0.00  0.00    -0.031 C 
ATOM     32  C   UNL     1       7.028  -7.911  -1.422  0.00  0.00    -0.075 C 
ATOM     33  C   UNL     1       9.402  -8.689  -1.335  0.00  0.00    +0.005 C 
ATOM     34  H   UNL     1       5.427  -8.937  -0.686  0.00  0.00    -0.081 HD
ENDBRANCH  26  27
ENDBRANCH  23  26
ENDBRANCH   5  22
BRANCH   7  35
ATOM     35  C   UNL     1      -4.956  -9.431  -0.878  0.00  0.00    -0.035 C 
ATOM     36  C   UNL     1      -4.819 -10.717  -0.060  0.00  0.00    +0.011 C 
ATOM     37  C   UNL     1      -6.213  -8.678  -0.439  0.00  0.00    +0.011 C 
ATOM     38  C   UNL     1      -5.064  -9.781  -2.364  0.00  0.00    +0.011 C 
ENDBRANCH   7  35
TORSDOF 6
