REMARK  Name = ZINC38567889
REMARK  5 active torsions:
REMARK  status: ('A' for Active; 'I' for Inactive)
REMARK    1  A    between atoms: C_1  and  C_2
REMARK    2  A    between atoms: C_5  and  S_8
REMARK    3  A    between atoms: S_8  and  N_11
REMARK    4  A    between atoms: N_11  and  N_12
REMARK    5  A    between atoms: C_16  and  C_17
REMARK                            x       y       z     vdW  Elec       q    Type
REMARK                         _______ _______ _______ _____ _____    ______ ____
ROOT
ATOM      1  N   UNL     1       2.500  -4.622   1.014  0.00  0.00    -0.167 N 
ATOM      2  C   UNL     1       3.168  -3.483   0.925  0.00  0.00    +0.273 C 
ATOM      3  O   UNL     1       3.065  -2.754  -0.042  0.00  0.00    -0.268 OA
ATOM      4  C   UNL     1       4.049  -3.144   2.071  0.00  0.00    +0.078 C 
ATOM      5  C   UNL     1       4.833  -2.076   2.257  0.00  0.00    +0.039 C 
ATOM      6  S   UNL     1       3.775  -4.556   3.132  0.00  0.00    -0.060 S 
ATOM      7  C   UNL     1       2.614  -5.425   2.091  0.00  0.00    +0.137 C 
ATOM      8  S   UNL     1       1.833  -6.919   2.388  0.00  0.00    -0.026 S 
ENDROOT
BRANCH   5   9
ATOM      9  C   UNL     1       4.901  -0.999   1.206  0.00  0.00    +0.200 C 
ATOM     10  N   UNL     1       6.290  -0.809   0.768  0.00  0.00    -0.360 N 
ATOM     11  C   UNL     1       6.621   0.420   1.040  0.00  0.00    +0.060 A 
ATOM     12  C   UNL     1       7.857   1.189   0.841  0.00  0.00    +0.027 A 
ATOM     13  C   UNL     1       7.909   2.478   1.232  0.00  0.00    +0.002 A 
ATOM     14  C   UNL     1       6.819   3.132   1.833  0.00  0.00    +0.002 A 
ATOM     15  C   UNL     1       5.640   2.520   2.061  0.00  0.00    +0.027 A 
ATOM     16  C   UNL     1       5.466   1.113   1.675  0.00  0.00    +0.060 A 
ATOM     17  N   UNL     1       4.466   0.285   1.770  0.00  0.00    -0.360 N 
ATOM     18  H   UNL     1       6.856  -1.478   0.352  0.00  0.00    +0.162 HD
ATOM     19  H   UNL     1       3.594   0.481   2.146  0.00  0.00    +0.162 HD
ENDBRANCH   5   9
BRANCH   1  20
ATOM     20  N   UNL     1       1.651  -4.999  -0.034  0.00  0.00    -0.100 NA
ATOM     21  H   UNL     1       1.993  -5.536  -0.767  0.00  0.00    +0.172 HD
BRANCH  20  22
ATOM     22  S   UNL     1       0.063  -4.530  -0.023  0.00  0.00    +0.074 S 
ATOM     23  O   UNL     1      -0.476  -4.950   1.223  0.00  0.00    -0.152 OA
ATOM     24  O   UNL     1      -0.490  -4.937  -1.267  0.00  0.00    -0.152 OA
BRANCH  22  29
ATOM     25  C   UNL     1      -0.018   1.503   0.010  0.00  0.00    +0.044 C 
ATOM     26  C   UNL     1       0.002  -0.004   0.002  0.00  0.00    -0.050 A 
ATOM     27  C   UNL     1       0.006  -0.689  -1.199  0.00  0.00    +0.005 A 
ATOM     28  C   UNL     1       0.025  -2.071  -1.206  0.00  0.00    +0.029 A 
ATOM     29  C   UNL     1       0.040  -2.768  -0.013  0.00  0.00    +0.107 A 
ATOM     30  C   UNL     1       0.037  -2.084   1.188  0.00  0.00    +0.029 A 
ATOM     31  C   UNL     1       0.023  -0.702   1.195  0.00  0.00    +0.005 A 
ENDBRANCH  22  29
ENDBRANCH  20  22
ENDBRANCH   1  20
TORSDOF 4
