REMARK  Name = ZINC02373648
REMARK  6 active torsions:
REMARK  status: ('A' for Active; 'I' for Inactive)
REMARK    1  A    between atoms: C_1  and  C_2
REMARK    2  A    between atoms: C_2  and  C_32
REMARK    3  A    between atoms: C_11  and  S_21
REMARK    4  A    between atoms: N_12  and  C_15
REMARK    5  A    between atoms: S_21  and  C_22
REMARK    6  A    between atoms: C_22  and  C_23
REMARK                            x       y       z     vdW  Elec       q    Type
REMARK                         _______ _______ _______ _____ _____    ______ ____
ROOT
ATOM      1  C   UNL     1       0.163  -0.566   1.103  0.00  0.00    +0.041 C 
ATOM      2  C   UNL     1       0.131   0.829   0.474  0.00  0.00    +0.070 C 
ATOM      3  C   UNL     1      -0.692   1.770   1.355  0.00  0.00    +0.090 C 
ATOM      4  C   UNL     1      -2.155   1.387   1.277  0.00  0.00    +0.052 A 
ATOM      5  C   UNL     1      -2.627   0.584   0.252  0.00  0.00    +0.000 A 
ATOM      6  C   UNL     1      -3.974   0.258   0.200  0.00  0.00    +0.024 A 
ATOM      7  C   UNL     1      -4.812   0.756   1.196  0.00  0.00    +0.084 A 
ATOM      8  C   UNL     1      -4.266   1.569   2.218  0.00  0.00    +0.168 A 
ATOM      9  N   UNL     1      -2.967   1.848   2.213  0.00  0.00    -0.232 NA
ATOM     10  N   UNL     1      -5.084   2.043   3.177  0.00  0.00    -0.203 NA
ATOM     11  C   UNL     1      -6.367   1.773   3.186  0.00  0.00    +0.179 A 
ATOM     12  N   UNL     1      -6.974   0.998   2.238  0.00  0.00    -0.255 N 
ATOM     13  C   UNL     1      -6.250   0.467   1.225  0.00  0.00    +0.268 A 
ATOM     14  O   UNL     1      -6.772  -0.226   0.370  0.00  0.00    -0.266 OA
ATOM     15  C   UNL     1      -1.715   0.045  -0.818  0.00  0.00    +0.197 C 
ATOM     16  O   UNL     1      -0.479   0.760  -0.819  0.00  0.00    -0.369 OA
ATOM     17  C   UNL     1       1.557   1.366   0.341  0.00  0.00    +0.041 C 
ENDROOT
BRANCH  12  18
ATOM     18  C   UNL     1      -8.351   0.753   2.314  0.00  0.00    +0.052 A 
ATOM     19  C   UNL     1      -8.824  -0.349   3.014  0.00  0.00    +0.026 A 
ATOM     20  C   UNL     1     -10.183  -0.583   3.093  0.00  0.00    +0.002 A 
ATOM     21  C   UNL     1     -11.072   0.271   2.466  0.00  0.00    +0.000 A 
ATOM     22  C   UNL     1     -10.603   1.366   1.763  0.00  0.00    +0.002 A 
ATOM     23  C   UNL     1      -9.246   1.609   1.686  0.00  0.00    +0.026 A 
ENDBRANCH  12  18
BRANCH  11  24
ATOM     24  S   UNL     1      -7.355   2.439   4.484  0.00  0.00    -0.083 S 
BRANCH  24  25
ATOM     25  C   UNL     1      -6.090   3.342   5.411  0.00  0.00    +0.112 C 
BRANCH  25  26
ATOM     26  C   UNL     1      -6.723   4.013   6.603  0.00  0.00    -0.037 A 
ATOM     27  C   UNL     1      -7.219   5.298   6.489  0.00  0.00    +0.006 A 
ATOM     28  C   UNL     1      -7.805   5.912   7.580  0.00  0.00    +0.020 A 
ATOM     29  C   UNL     1      -7.885   5.245   8.789  0.00  0.00    +0.041 A 
ATOM     30  C   UNL     1      -7.384   3.960   8.903  0.00  0.00    +0.020 A 
ATOM     31  C   UNL     1      -6.803   3.345   7.811  0.00  0.00    +0.006 A 
ATOM     32 CL   UNL     1      -8.615   6.018  10.161  0.00  0.00    -0.084 Cl
ENDBRANCH  25  26
ENDBRANCH  24  25
ENDBRANCH  11  24
TORSDOF 4
