REMARK  Name = ZINC62228710
REMARK  8 active torsions:
REMARK  status: ('A' for Active; 'I' for Inactive)
REMARK    1  A    between atoms: C_1  and  C_2
REMARK    2  A    between atoms: N_4  and  C_5
REMARK    3  A    between atoms: C_5  and  C_13
REMARK    4  A    between atoms: C_6  and  C_7
REMARK    5  A    between atoms: N_15  and  C_16
REMARK    6  A    between atoms: C_16  and  C_17
REMARK    7  A    between atoms: N_22  and  C_23
REMARK    8  A    between atoms: C_23  and  C_24
REMARK                            x       y       z     vdW  Elec       q    Type
REMARK                         _______ _______ _______ _____ _____    ______ ____
ROOT
ATOM      1  C   UNL     1       0.397  -4.651   2.026  0.00  0.00    +0.258 C 
ATOM      2  O   UNL     1      -0.108  -4.752   0.925  0.00  0.00    -0.269 OA
ATOM      3  N   UNL     1      -0.070  -3.738   2.901  0.00  0.00    -0.312 N 
ATOM      4  H   UNL     1       0.378  -3.607   3.751  0.00  0.00    +0.149 HD
ENDROOT
BRANCH   1   5
ATOM      5  C   UNL     1       1.519  -5.524   2.404  0.00  0.00    +0.096 C 
ATOM      6  C   UNL     1       1.922  -6.507   1.567  0.00  0.00    +0.036 C 
BRANCH   6   7
ATOM      7  C   UNL     1       2.944  -7.471   2.004  0.00  0.00    -0.023 A 
ATOM      8  C   UNL     1       3.714  -8.155   1.058  0.00  0.00    +0.008 A 
ATOM      9  C   UNL     1       4.670  -9.057   1.474  0.00  0.00    +0.001 A 
ATOM     10  C   UNL     1       4.869  -9.286   2.825  0.00  0.00    +0.000 A 
ATOM     11  C   UNL     1       4.111  -8.612   3.767  0.00  0.00    +0.001 A 
ATOM     12  C   UNL     1       3.155  -7.704   3.367  0.00  0.00    +0.008 A 
ENDBRANCH   6   7
BRANCH   5  16
ATOM     13  C   UNL     1       4.171  -4.787   4.972  0.00  0.00    +0.109 C 
ATOM     14  C   UNL     1       3.481  -5.030   3.655  0.00  0.00    +0.214 C 
ATOM     15  O   UNL     1       4.106  -4.950   2.619  0.00  0.00    -0.276 OA
ATOM     16  N   UNL     1       2.168  -5.337   3.628  0.00  0.00    -0.282 N 
ATOM     17  H   UNL     1       1.675  -5.428   4.458  0.00  0.00    +0.155 HD
ENDBRANCH   5  16
ENDBRANCH   1   5
BRANCH   3  18
ATOM     18  C   UNL     1      -1.256  -2.945   2.568  0.00  0.00    +0.089 C 
BRANCH  18  19
ATOM     19  C   UNL     1      -1.508  -1.916   3.672  0.00  0.00    -0.051 C 
ATOM     20  C   UNL     1      -1.797  -2.641   4.988  0.00  0.00    -0.014 C 
ATOM     21  C   UNL     1      -2.049  -1.608   6.090  0.00  0.00    -0.003 C 
ATOM     22  C   UNL     1      -3.201  -0.694   5.665  0.00  0.00    -0.019 C 
ATOM     23  C   UNL     1      -2.860  -0.041   4.324  0.00  0.00    -0.078 C 
ATOM     24  N   UNL     1      -2.658  -1.079   3.307  0.00  0.00    +0.385 N 
ATOM     25  H   UNL     1      -3.485  -1.654   3.246  0.00  0.00    -0.081 HD
BRANCH  24  26
ATOM     26  C   UNL     1      -2.407  -0.446   2.006  0.00  0.00    -0.043 C 
BRANCH  26  27
ATOM     27  C   UNL     1      -3.632   0.320   1.576  0.00  0.00    -0.064 A 
ATOM     28  C   UNL     1      -4.612  -0.306   0.829  0.00  0.00    +0.002 A 
ATOM     29  C   UNL     1      -5.735   0.396   0.434  0.00  0.00    +0.000 A 
ATOM     30  C   UNL     1      -5.878   1.725   0.787  0.00  0.00    +0.000 A 
ATOM     31  C   UNL     1      -4.899   2.351   1.535  0.00  0.00    +0.000 A 
ATOM     32  C   UNL     1      -3.778   1.647   1.933  0.00  0.00    +0.002 A 
ENDBRANCH  26  27
ENDBRANCH  24  26
ENDBRANCH  18  19
ENDBRANCH   3  18
TORSDOF 7
