REMARK  Name = ZINC39667330
REMARK  8 active torsions:
REMARK  status: ('A' for Active; 'I' for Inactive)
REMARK    1  A    between atoms: C_1  and  S_2
REMARK    2  A    between atoms: S_2  and  C_3
REMARK    3  A    between atoms: C_6  and  C_9
REMARK    4  A    between atoms: C_9  and  N_10
REMARK    5  A    between atoms: C_11  and  C_13
REMARK    6  A    between atoms: C_24  and  C_26
REMARK    7  A    between atoms: C_26  and  O_27
REMARK    8  A    between atoms: O_27  and  C_28
REMARK                            x       y       z     vdW  Elec       q    Type
REMARK                         _______ _______ _______ _____ _____    ______ ____
ROOT
ATOM      1  C   UNL     1       6.666  -1.918  -5.563  0.00  0.00    +0.100 C 
ATOM      2  C   UNL     1       7.253  -0.532  -5.215  0.00  0.00    +0.121 C 
ATOM      3  N   UNL     1       8.593  -0.523  -5.847  0.00  0.00    -0.297 N 
ATOM      4  C   UNL     1       8.392  -1.206  -7.147  0.00  0.00    +0.115 C 
ATOM      5  C   UNL     1       7.416  -2.356  -6.833  0.00  0.00    -0.004 C 
ATOM      6  C   UNL     1       6.436  -2.546  -7.986  0.00  0.00    -0.010 C 
ATOM      7  C   UNL     1       7.197  -3.038  -9.221  0.00  0.00    -0.082 C 
ATOM      8  N   UNL     1       7.870  -4.306  -8.910  0.00  0.00    +0.379 N 
ATOM      9  C   UNL     1       8.877  -4.094  -7.863  0.00  0.00    -0.082 C 
ATOM     10  C   UNL     1       8.187  -3.647  -6.572  0.00  0.00    -0.010 C 
ATOM     11  C   UNL     1       9.737  -0.010  -5.351  0.00  0.00    +0.253 C 
ATOM     12  O   UNL     1      10.762  -0.081  -5.994  0.00  0.00    -0.272 OA
ATOM     13  H   UNL     1       7.188  -4.977  -8.589  0.00  0.00    -0.086 HD
ATOM     14  H   UNL     1       8.320  -4.658  -9.742  0.00  0.00    -0.086 HD
ENDROOT
BRANCH   1  16
ATOM     15  N   UNL     1       4.379  -2.859  -5.599  0.00  0.00    -0.311 N 
ATOM     16  C   UNL     1       5.189  -1.808  -5.838  0.00  0.00    +0.218 C 
ATOM     17  O   UNL     1       4.728  -0.775  -6.275  0.00  0.00    -0.275 OA
ATOM     18  H   UNL     1       4.747  -3.686  -5.250  0.00  0.00    +0.149 HD
BRANCH  15  19
ATOM     19  C   UNL     1       2.942  -2.752  -5.867  0.00  0.00    +0.139 C 
BRANCH  19  23
ATOM     20  C   UNL     1       1.031  -6.445  -4.877  0.00  0.00    +0.008 A 
ATOM     21  C   UNL     1       1.163  -5.450  -3.916  0.00  0.00    +0.015 A 
ATOM     22  C   UNL     1       1.781  -4.258  -4.240  0.00  0.00    +0.006 A 
ATOM     23  C   UNL     1       2.269  -4.054  -5.518  0.00  0.00    -0.030 A 
ATOM     24  C   UNL     1       2.139  -5.043  -6.477  0.00  0.00    +0.006 A 
ATOM     25  C   UNL     1       1.527  -6.239  -6.159  0.00  0.00    +0.015 A 
BRANCH  20  27
ATOM     26  C   UNL     1      -0.223  -7.767  -2.728  0.00  0.00    +0.090 C 
ATOM     27  S   UNL     1       0.243  -7.967  -4.469  0.00  0.00    -0.129 S 
ENDBRANCH  20  27
ENDBRANCH  19  23
ENDBRANCH  15  19
ENDBRANCH   1  16
BRANCH  11  28
ATOM     28  C   UNL     1       9.741   0.651  -3.997  0.00  0.00    +0.324 C 
BRANCH  28  29
ATOM     29  O   UNL     1      11.060   1.110  -3.695  0.00  0.00    -0.483 OA
BRANCH  29  30
ATOM     30  C   UNL     1      11.239   1.735  -2.501  0.00  0.00    +0.123 A 
ATOM     31  C   UNL     1      10.167   1.896  -1.635  0.00  0.00    +0.046 A 
ATOM     32  C   UNL     1      10.350   2.531  -0.421  0.00  0.00    +0.005 A 
ATOM     33  C   UNL     1      11.600   3.005  -0.069  0.00  0.00    +0.020 A 
ATOM     34  C   UNL     1      12.671   2.845  -0.931  0.00  0.00    +0.044 A 
ATOM     35  C   UNL     1      12.493   2.206  -2.144  0.00  0.00    +0.065 A 
ATOM     36 CL   UNL     1      14.239   3.442  -0.486  0.00  0.00    -0.083 Cl
ENDBRANCH  29  30
ENDBRANCH  28  29
ENDBRANCH  11  28
TORSDOF 7
