REMARK  Name = ZINC66937690
REMARK  3 active torsions:
REMARK  status: ('A' for Active; 'I' for Inactive)
REMARK    1  A    between atoms: C_3  and  C_11
REMARK    2  A    between atoms: N_16  and  S_17
REMARK    3  A    between atoms: S_17  and  C_20
REMARK                            x       y       z     vdW  Elec       q    Type
REMARK                         _______ _______ _______ _____ _____    ______ ____
ROOT
ATOM      1  C   UNL     1       3.559   1.978  -0.174  0.00  0.00    +0.113 C 
ATOM      2  C   UNL     1       4.074   2.013   1.280  0.00  0.00    +0.027 C 
ATOM      3  C   UNL     1       4.733   3.413   1.381  0.00  0.00    +0.019 C 
ATOM      4  C   UNL     1       3.795   4.264   0.489  0.00  0.00    +0.110 C 
ATOM      5  N   UNL     1       3.419   3.370  -0.625  0.00  0.00    -0.169 NA
ENDROOT
BRANCH   1   8
ATOM      6  C   UNL     1      -0.171   1.387  -0.152  0.00  0.00    +0.004 A 
ATOM      7  C   UNL     1       1.058   2.020  -0.102  0.00  0.00    +0.009 A 
ATOM      8  C   UNL     1       2.221   1.285  -0.228  0.00  0.00    +0.017 A 
ATOM      9  C   UNL     1       2.160  -0.089  -0.405  0.00  0.00    +0.167 A 
ATOM     10  C   UNL     1       0.925  -0.725  -0.453  0.00  0.00    +0.162 A 
ATOM     11  C   UNL     1      -0.239   0.018  -0.327  0.00  0.00    +0.049 A 
ATOM     12  O   UNL     1       0.842  -2.074  -0.618  0.00  0.00    -0.485 OA
ATOM     13  C   UNL     1       2.011  -2.735  -1.112  0.00  0.00    +0.270 C 
ATOM     14  C   UNL     1       3.225  -2.214  -0.331  0.00  0.00    +0.270 C 
ATOM     15  O   UNL     1       3.314  -0.799  -0.532  0.00  0.00    -0.485 OA
ENDBRANCH   1   8
BRANCH   5  16
ATOM     16  S   UNL     1       2.923   3.853  -2.130  0.00  0.00    +0.064 S 
ATOM     17  O   UNL     1       2.061   2.834  -2.619  0.00  0.00    -0.153 OA
ATOM     18  O   UNL     1       2.510   5.207  -2.006  0.00  0.00    -0.153 OA
BRANCH  16  19
ATOM     19  C   UNL     1       4.345   3.853  -3.171  0.00  0.00    +0.143 A 
ATOM     20  C   UNL     1       4.429   2.962  -4.226  0.00  0.00    +0.031 A 
ATOM     21  C   UNL     1       5.543   2.962  -5.044  0.00  0.00    +0.005 A 
ATOM     22  C   UNL     1       6.575   3.851  -4.810  0.00  0.00    +0.041 A 
ATOM     23  C   UNL     1       6.494   4.743  -3.755  0.00  0.00    +0.160 A 
ATOM     24  C   UNL     1       5.373   4.748  -2.938  0.00  0.00    +0.185 A 
ATOM     25  F   UNL     1       5.289   5.622  -1.911  0.00  0.00    -0.200 F 
ATOM     26  F   UNL     1       7.502   5.612  -3.525  0.00  0.00    -0.202 F 
ENDBRANCH  16  19
ENDBRANCH   5  16
TORSDOF 3
