REMARK  Name = ZINC02248229
REMARK  4 active torsions:
REMARK  status: ('A' for Active; 'I' for Inactive)
REMARK    1  A    between atoms: C_4  and  N_7
REMARK    2  A    between atoms: C_11  and  C_12
REMARK    3  A    between atoms: C_15  and  C_17
REMARK    4  A    between atoms: C_21  and  C_23
REMARK                            x       y       z     vdW  Elec       q    Type
REMARK                         _______ _______ _______ _____ _____    ______ ____
ROOT
ATOM      1  N   UNL     1      -1.154   1.852   0.171  0.00  0.00    -0.217 N 
ATOM      2  C   UNL     1      -0.097   1.133  -0.261  0.00  0.00    +0.262 C 
ATOM      3  O   UNL     1      -0.187  -0.068  -0.433  0.00  0.00    -0.269 OA
ATOM      4  C   UNL     1       1.166   1.842  -0.525  0.00  0.00    +0.103 C 
ATOM      5  C   UNL     1       2.297   1.168  -0.979  0.00  0.00    +0.064 C 
ATOM      6  C   UNL     1       1.182   3.296  -0.289  0.00  0.00    +0.255 C 
ATOM      7  O   UNL     1       2.189   3.950  -0.484  0.00  0.00    -0.270 OA
ATOM      8  N   UNL     1       0.050   3.883   0.150  0.00  0.00    -0.263 N 
ATOM      9  C   UNL     1      -1.067   3.175   0.370  0.00  0.00    +0.150 C 
ATOM     10  S   UNL     1      -2.457   4.004   0.927  0.00  0.00    -0.018 S 
ATOM     11  H   UNL     1       0.043   4.840   0.310  0.00  0.00    +0.157 HD
ENDROOT
BRANCH   1  15
ATOM     12  C   UNL     1      -4.766  -0.088   0.919  0.00  0.00    +0.000 A 
ATOM     13  C   UNL     1      -4.504   0.421  -0.340  0.00  0.00    +0.002 A 
ATOM     14  C   UNL     1      -3.308   1.065  -0.591  0.00  0.00    +0.024 A 
ATOM     15  C   UNL     1      -2.368   1.200   0.422  0.00  0.00    +0.043 A 
ATOM     16  C   UNL     1      -2.632   0.683   1.683  0.00  0.00    +0.024 A 
ATOM     17  C   UNL     1      -3.832   0.045   1.930  0.00  0.00    +0.002 A 
ENDBRANCH   1  15
BRANCH   5  18
ATOM     18  C   UNL     1       3.530   1.831  -1.042  0.00  0.00    +0.129 A 
ATOM     19  C   UNL     1       4.495   1.664  -2.028  0.00  0.00    +0.050 A 
ATOM     20  C   UNL     1       5.551   2.513  -1.704  0.00  0.00    +0.050 A 
ATOM     21  C   UNL     1       5.205   3.161  -0.535  0.00  0.00    +0.136 A 
ATOM     22  O   UNL     1       3.988   2.738  -0.153  0.00  0.00    -0.455 OA
BRANCH  21  23
ATOM     23  C   UNL     1       6.034   4.152   0.177  0.00  0.00    +0.018 A 
ATOM     24  C   UNL     1       7.290   4.507  -0.328  0.00  0.00    +0.013 A 
ATOM     25  C   UNL     1       8.067   5.433   0.336  0.00  0.00    +0.021 A 
ATOM     26  C   UNL     1       7.612   6.018   1.504  0.00  0.00    +0.055 A 
ATOM     27  C   UNL     1       6.358   5.672   2.020  0.00  0.00    +0.082 A 
ATOM     28  C   UNL     1       5.566   4.741   1.351  0.00  0.00    +0.028 A 
ATOM     29 CL   UNL     1       8.598   7.182   2.332  0.00  0.00    -0.083 Cl
BRANCH  27  30
ATOM     30  C   UNL     1       5.873   6.296   3.267  0.00  0.00    +0.388 C 
ATOM     31  O   UNL     1       6.563   7.111   3.847  0.00  0.00    -0.241 OA
ATOM     32  O   UNL     1       4.666   5.962   3.763  0.00  0.00    -0.241 OA
ENDBRANCH  27  30
ENDBRANCH  21  23
ENDBRANCH   5  18
TORSDOF 4
