REMARK  Name = ZINC08799088
REMARK  9 active torsions:
REMARK  status: ('A' for Active; 'I' for Inactive)
REMARK    1  A    between atoms: C_1  and  N_2
REMARK    2  A    between atoms: C_10  and  C_12
REMARK    3  A    between atoms: C_12  and  C_14
REMARK    4  A    between atoms: C_12  and  N_61
REMARK    5  A    between atoms: C_14  and  N_15
REMARK    6  A    between atoms: N_15  and  S_16
REMARK    7  A    between atoms: S_16  and  C_19
REMARK    8  A    between atoms: C_22  and  O_26
REMARK    9  A    between atoms: O_26  and  C_27
REMARK                            x       y       z     vdW  Elec       q    Type
REMARK                         _______ _______ _______ _____ _____    ______ ____
ROOT
ATOM      1  C   UNL     1       2.992  -2.119   4.582  0.00  0.00    -0.022 C 
ENDROOT
BRANCH   1  11
ATOM      2  C   UNL     1      -1.555   0.258   0.897  0.00  0.00    +0.129 C 
ATOM      3  N   UNL     1      -0.227  -0.086   0.372  0.00  0.00    -0.333 N 
ATOM      4  C   UNL     1       0.352   1.036  -0.368  0.00  0.00    +0.105 C 
ATOM      5  C   UNL     1       1.744   0.630  -0.866  0.00  0.00    +0.024 C 
ATOM      6  C   UNL     1       2.659   0.494   0.353  0.00  0.00    +0.038 C 
ATOM      7  C   UNL     1       1.966  -0.318   1.419  0.00  0.00    -0.026 A 
ATOM      8  C   UNL     1       0.604  -0.560   1.387  0.00  0.00    +0.033 A 
ATOM      9  C   UNL     1       0.018  -1.310   2.407  0.00  0.00    +0.023 A 
ATOM     10  C   UNL     1       0.787  -1.811   3.436  0.00  0.00    +0.004 A 
ATOM     11  C   UNL     1       2.148  -1.570   3.460  0.00  0.00    -0.059 A 
ATOM     12  C   UNL     1       2.734  -0.827   2.454  0.00  0.00    +0.007 A 
ENDBRANCH   1  11
BRANCH   1  17
ATOM     13  C   UNL     1       2.186  -4.297   3.848  0.00  0.00    -0.078 C 
ATOM     14  C   UNL     1       2.816  -5.494   3.092  0.00  0.00    -0.020 C 
ATOM     15  C   UNL     1       4.015  -4.848   2.360  0.00  0.00    -0.020 C 
ATOM     16  C   UNL     1       4.322  -3.561   3.149  0.00  0.00    -0.078 C 
ATOM     17  N   UNL     1       3.371  -3.528   4.261  0.00  0.00    +0.385 N 
ATOM     18  H   UNL     1       3.793  -3.961   5.091  0.00  0.00    -0.081 HD
ENDBRANCH   1  17
BRANCH   1  19
ATOM     19  C   UNL     1       2.193  -2.082   5.886  0.00  0.00    +0.095 C 
BRANCH  19  20
ATOM     20  N   UNL     1       2.967  -2.724   6.951  0.00  0.00    -0.191 NA
ATOM     21  H   UNL     1       3.734  -3.275   6.729  0.00  0.00    +0.148 HD
BRANCH  20  22
ATOM     22  S   UNL     1       2.532  -2.509   8.535  0.00  0.00    +0.058 S 
ATOM     23  O   UNL     1       3.446  -3.269   9.313  0.00  0.00    -0.153 OA
ATOM     24  O   UNL     1       2.351  -1.112   8.721  0.00  0.00    -0.153 OA
BRANCH  22  25
ATOM     25  C   UNL     1       0.950  -3.255   8.746  0.00  0.00    +0.108 A 
ATOM     26  C   UNL     1      -0.197  -2.507   8.550  0.00  0.00    +0.032 A 
ATOM     27  C   UNL     1      -1.440  -3.090   8.710  0.00  0.00    +0.050 A 
ATOM     28  C   UNL     1      -1.537  -4.423   9.080  0.00  0.00    +0.155 A 
ATOM     29  C   UNL     1      -0.385  -5.171   9.282  0.00  0.00    +0.167 A 
ATOM     30  C   UNL     1       0.857  -4.584   9.114  0.00  0.00    +0.070 A 
ATOM     31  F   UNL     1      -0.476  -6.470   9.642  0.00  0.00    -0.202 F 
BRANCH  28  32
ATOM     32  O   UNL     1      -2.759  -4.996   9.243  0.00  0.00    -0.492 OA
ATOM     33  C   UNL     1      -3.901  -4.167   9.018  0.00  0.00    +0.277 C 
ENDBRANCH  28  32
ENDBRANCH  22  25
ENDBRANCH  20  22
ENDBRANCH  19  20
ENDBRANCH   1  19
TORSDOF 7
