REMARK  Name = ZINC44325641
REMARK  13 active torsions:
REMARK  status: ('A' for Active; 'I' for Inactive)
REMARK    1  A    between atoms: C_1  and  C_2
REMARK    2  A    between atoms: C_2  and  C_3
REMARK    3  A    between atoms: N_7  and  C_8
REMARK    4  A    between atoms: C_8  and  C_9
REMARK    5  A    between atoms: C_11  and  C_17
REMARK    6  A    between atoms: C_14  and  O_15
REMARK    7  A    between atoms: O_15  and  C_16
REMARK    8  A    between atoms: C_17  and  CA_18
REMARK    9  A    between atoms: CA_18  and  C_20
REMARK   10  A    between atoms: CA_18  and  N_23
REMARK   11  A    between atoms: C_24  and  O_26
REMARK   12  A    between atoms: O_26  and  C_27
REMARK   13  A    between atoms: C_27  and  C_28
REMARK                            x       y       z     vdW  Elec       q    Type
REMARK                         _______ _______ _______ _____ _____    ______ ____
ROOT
ATOM      1  CA  UNL     1       6.433  -4.766   1.714  0.00  0.00    +0.193 C 
ENDROOT
BRANCH   1   2
ATOM      2  N   UNL     1       5.925  -5.124   3.040  0.00  0.00    -0.267 N 
ATOM      3  C   UNL     1       6.426  -4.524   4.138  0.00  0.00    +0.401 C 
ATOM      4  O   UNL     1       7.300  -3.687   4.027  0.00  0.00    -0.226 OA
ATOM      5  H   UNL     1       5.227  -5.792   3.129  0.00  0.00    +0.153 HD
BRANCH   3   6
ATOM      6  O   UNL     1       5.959  -4.852   5.357  0.00  0.00    -0.449 OA
BRANCH   6   7
ATOM      7  C   UNL     1       6.536  -4.177   6.477  0.00  0.00    +0.246 C 
BRANCH   7   8
ATOM      8  C   UNL     1       5.884  -4.678   7.767  0.00  0.00    +0.088 C 
ATOM      9  C   UNL     1       4.445  -4.228   7.830  0.00  0.00    -0.029 A 
ATOM     10  C   UNL     1       3.362  -4.472   7.012  0.00  0.00    +0.005 A 
ATOM     11  C   UNL     1       2.129  -3.921   7.312  0.00  0.00    +0.000 A 
ATOM     12  C   UNL     1       1.980  -3.125   8.434  0.00  0.00    +0.001 A 
ATOM     13  C   UNL     1       3.058  -2.876   9.258  0.00  0.00    +0.009 A 
ATOM     14  C   UNL     1       4.304  -3.429   8.961  0.00  0.00    -0.014 A 
ATOM     15  C   UNL     1       5.610  -3.329   9.660  0.00  0.00    -0.014 A 
ATOM     16  C   UNL     1       6.565  -4.066   8.966  0.00  0.00    -0.029 A 
ATOM     17  C   UNL     1       7.864  -4.126   9.423  0.00  0.00    +0.005 A 
ATOM     18  C   UNL     1       8.225  -3.453  10.577  0.00  0.00    +0.000 A 
ATOM     19  C   UNL     1       7.282  -2.718  11.274  0.00  0.00    +0.001 A 
ATOM     20  C   UNL     1       5.980  -2.652  10.823  0.00  0.00    +0.009 A 
ENDBRANCH   7   8
ENDBRANCH   6   7
ENDBRANCH   3   6
ENDBRANCH   1   2
BRANCH   1  21
ATOM     21  C   UNL     1       7.668  -5.575   1.414  0.00  0.00    +0.376 C 
ATOM     22  O   UNL     1       8.353  -5.305   0.443  0.00  0.00    -0.244 OA
ATOM     23  OXT UNL     1       7.983  -6.500   2.144  0.00  0.00    -0.244 OA
ENDBRANCH   1  21
BRANCH   1  24
ATOM     24  C   UNL     1       5.362  -5.062   0.661  0.00  0.00    +0.069 C 
BRANCH  24  27
ATOM     25  C   UNL     1       3.023  -2.105   0.474  0.00  0.00    +0.014 A 
ATOM     26  C   UNL     1       4.113  -2.930   0.268  0.00  0.00    +0.012 A 
ATOM     27  C   UNL     1       4.173  -4.164   0.888  0.00  0.00    -0.045 A 
ATOM     28  C   UNL     1       3.144  -4.577   1.714  0.00  0.00    +0.007 A 
ATOM     29  C   UNL     1       2.054  -3.756   1.923  0.00  0.00    +0.046 A 
ATOM     30  C   UNL     1       1.993  -2.514   1.307  0.00  0.00    +0.125 A 
BRANCH  30  31
ATOM     31  O   UNL     1       0.923  -1.703   1.516  0.00  0.00    -0.495 OA
ATOM     32  C   UNL     1      -0.101  -2.189   2.386  0.00  0.00    +0.277 C 
ENDBRANCH  30  31
BRANCH  25  33
ATOM     33  C   UNL     1       2.958  -0.760  -0.202  0.00  0.00    +0.161 C 
BRANCH  33  38
ATOM     34  C   UNL     1       2.395  -1.216  -2.609  0.00  0.00    +0.110 A 
ATOM     35  N   UNL     1       1.330  -1.164  -3.361  0.00  0.00    -0.241 NA
ATOM     36  C   UNL     1       0.289  -0.749  -2.626  0.00  0.00    +0.130 A 
ATOM     37  C   UNL     1       0.725  -0.535  -1.369  0.00  0.00    +0.107 A 
ATOM     38  N   UNL     1       2.060  -0.837  -1.357  0.00  0.00    -0.330 N 
BRANCH  34  40
ATOM     39  C   UNL     1       3.872  -3.163  -3.034  0.00  0.00    +0.012 C 
ATOM     40  C   UNL     1       3.770  -1.636  -3.061  0.00  0.00    +0.071 C 
ENDBRANCH  34  40
ENDBRANCH  33  38
ENDBRANCH  25  33
ENDBRANCH  24  27
ENDBRANCH   1  24
TORSDOF 11
