REMARK  Name = ZINC02093599
REMARK  13 active torsions:
REMARK  status: ('A' for Active; 'I' for Inactive)
REMARK    1  A    between atoms: C_1  and  C_2
REMARK    2  A    between atoms: C_5  and  S_8
REMARK    3  A    between atoms: S_8  and  N_11
REMARK    4  A    between atoms: N_11  and  C_12
REMARK    5  A    between atoms: C_12  and  C_14
REMARK    6  A    between atoms: C_12  and  C_18
REMARK    7  A    between atoms: C_14  and  C_15
REMARK    8  A    between atoms: C_15  and  C_16
REMARK    9  A    between atoms: C_15  and  C_17
REMARK   10  A    between atoms: C_18  and  O_20
REMARK   11  A    between atoms: O_20  and  C_21
REMARK   12  A    between atoms: C_28  and  C_34
REMARK   13  A    between atoms: C_29  and  C_33
REMARK                            x       y       z     vdW  Elec       q    Type
REMARK                         _______ _______ _______ _____ _____    ______ ____
ROOT
ATOM      1  C   UNL     1      -1.119   3.416   0.876  0.00  0.00    +0.185 C 
ENDROOT
BRANCH   1   2
ATOM      2  N   UNL     1      -2.195   3.686  -0.081  0.00  0.00    -0.176 NA
ATOM      3  H   UNL     1      -2.835   2.991  -0.300  0.00  0.00    +0.149 HD
BRANCH   2   4
ATOM      4  S   UNL     1      -2.318   5.178  -0.788  0.00  0.00    +0.059 S 
ATOM      5  O   UNL     1      -3.425   5.116  -1.678  0.00  0.00    -0.153 OA
ATOM      6  O   UNL     1      -2.237   6.133   0.261  0.00  0.00    -0.153 OA
BRANCH   4  11
ATOM      7  C   UNL     1       2.597   5.946  -4.202  0.00  0.00    +0.044 C 
ATOM      8  C   UNL     1       1.369   5.754  -3.350  0.00  0.00    -0.050 A 
ATOM      9  C   UNL     1       0.209   5.254  -3.911  0.00  0.00    +0.005 A 
ATOM     10  C   UNL     1      -0.917   5.079  -3.129  0.00  0.00    +0.029 A 
ATOM     11  C   UNL     1      -0.883   5.402  -1.785  0.00  0.00    +0.105 A 
ATOM     12  C   UNL     1       0.276   5.907  -1.225  0.00  0.00    +0.029 A 
ATOM     13  C   UNL     1       1.403   6.078  -2.006  0.00  0.00    +0.005 A 
ENDBRANCH   4  11
ENDBRANCH   2   4
ENDBRANCH   1   2
BRANCH   1  14
ATOM     14  C   UNL     1      -1.619   3.663   2.277  0.00  0.00    +0.331 C 
ATOM     15  O   UNL     1      -2.757   4.027   2.457  0.00  0.00    -0.249 OA
BRANCH  14  16
ATOM     16  O   UNL     1      -0.799   3.477   3.324  0.00  0.00    -0.423 OA
BRANCH  16  17
ATOM     17  C   UNL     1      -1.341   3.614   4.562  0.00  0.00    +0.153 A 
ATOM     18  C   UNL     1      -1.265   4.833   5.215  0.00  0.00    +0.094 A 
ATOM     19  C   UNL     1      -1.817   4.974   6.479  0.00  0.00    +0.143 A 
ATOM     20  C   UNL     1      -2.450   3.872   7.084  0.00  0.00    +0.022 A 
ATOM     21  C   UNL     1      -2.518   2.647   6.411  0.00  0.00    +0.035 A 
ATOM     22  C   UNL     1      -1.974   2.527   5.163  0.00  0.00    +0.084 A 
ATOM     23 CL   UNL     1      -2.065   1.010   4.325  0.00  0.00    -0.080 Cl
ATOM     24  C   UNL     1      -3.030   4.032   8.419  0.00  0.00    -0.030 A 
ATOM     25  C   UNL     1      -2.931   5.245   9.021  0.00  0.00    +0.037 A 
ATOM     26  C   UNL     1      -2.283   6.307   8.356  0.00  0.00    +0.340 A 
ATOM     27  O   UNL     1      -2.201   7.390   8.907  0.00  0.00    -0.245 OA
ATOM     28  O   UNL     1      -1.753   6.154   7.133  0.00  0.00    -0.422 OA
ATOM     29  C   UNL     1      -3.513   5.457  10.395  0.00  0.00    +0.051 C 
ATOM     30  C   UNL     1      -3.717   2.880   9.107  0.00  0.00    +0.045 C 
ENDBRANCH  16  17
ENDBRANCH  14  16
ENDBRANCH   1  14
BRANCH   1  31
ATOM     31  C   UNL     1      -0.673   1.959   0.744  0.00  0.00    +0.034 C 
BRANCH  31  32
ATOM     32  C   UNL     1      -0.080   1.732  -0.649  0.00  0.00    -0.015 C 
ATOM     33  C   UNL     1       0.217   0.243  -0.840  0.00  0.00    +0.007 C 
ATOM     34  C   UNL     1       1.216   2.533  -0.788  0.00  0.00    +0.007 C 
ENDBRANCH  31  32
ENDBRANCH   1  31
TORSDOF 8
