REMARK  Name = ZINC20412351
REMARK  9 active torsions:
REMARK  status: ('A' for Active; 'I' for Inactive)
REMARK    1  A    between atoms: C_1  and  C_2
REMARK    2  A    between atoms: C_3  and  O_24
REMARK    3  A    between atoms: C_9  and  O_23
REMARK    4  A    between atoms: C_10  and  C_13
REMARK    5  A    between atoms: C_13  and  N_14
REMARK    6  A    between atoms: N_17  and  C_20
REMARK    7  A    between atoms: C_20  and  C_21
REMARK    8  A    between atoms: C_21  and  O_22
REMARK    9  A    between atoms: O_24  and  C_25
REMARK                            x       y       z     vdW  Elec       q    Type
REMARK                         _______ _______ _______ _____ _____    ______ ____
ROOT
ATOM      1  C   UNL     1      -3.921   2.292  -0.108  0.00  0.00    +0.090 C 
ATOM      2  C   UNL     1      -2.538   2.890  -0.067  0.00  0.00    +0.148 A 
ATOM      3  C   UNL     1      -2.415   4.232  -0.053  0.00  0.00    +0.213 A 
ATOM      4  C   UNL     1      -1.118   4.818  -0.001  0.00  0.00    +0.235 A 
ATOM      5  O   UNL     1      -0.968   6.028   0.013  0.00  0.00    -0.283 OA
ATOM      6  C   UNL     1       0.035   3.901   0.016  0.00  0.00    +0.068 A 
ATOM      7  C   UNL     1       1.345   4.381   0.049  0.00  0.00    +0.019 A 
ATOM      8  C   UNL     1       2.388   3.501   0.064  0.00  0.00    +0.046 A 
ATOM      9  C   UNL     1       2.152   2.127   0.046  0.00  0.00    +0.122 A 
ATOM     10  C   UNL     1       0.858   1.636   0.013  0.00  0.00    +0.020 A 
ATOM     11  C   UNL     1      -0.213   2.518  -0.008  0.00  0.00    +0.144 A 
ATOM     12  O   UNL     1      -1.483   2.066  -0.045  0.00  0.00    -0.456 OA
ENDROOT
BRANCH   9  13
ATOM     13  O   UNL     1       3.200   1.264   0.062  0.00  0.00    -0.506 OA
ATOM     14  H   UNL     1       3.019   0.179   0.048  0.00  0.00    +0.292 HD
ENDBRANCH   9  13
BRANCH  10  15
ATOM     15  C   UNL     1       0.615   0.149  -0.006  0.00  0.00    -0.035 C 
BRANCH  15  16
ATOM     16  N   UNL     1       0.505  -0.348   1.372  0.00  0.00    +0.384 N 
ATOM     17  C   UNL     1       1.785  -0.215   2.083  0.00  0.00    -0.063 C 
ATOM     18  C   UNL     1       1.609  -0.668   3.534  0.00  0.00    +0.066 C 
ATOM     19  N   UNL     1       1.138  -2.060   3.557  0.00  0.00    -0.304 NA
ATOM     20  C   UNL     1      -0.141  -2.192   2.846  0.00  0.00    +0.066 C 
ATOM     21  C   UNL     1       0.035  -1.740   1.395  0.00  0.00    -0.063 C 
ATOM     22  H   UNL     1      -0.239   0.271   1.895  0.00  0.00    -0.081 HD
BRANCH  19  23
ATOM     23  C   UNL     1       1.029  -2.556   4.935  0.00  0.00    +0.112 C 
BRANCH  23  24
ATOM     24  C   UNL     1       1.020  -4.086   4.927  0.00  0.00    +0.171 C 
BRANCH  24  25
ATOM     25  O   UNL     1       2.275  -4.568   4.443  0.00  0.00    -0.394 OA
ATOM     26  H   UNL     1       2.456  -5.650   4.365  0.00  0.00    +0.209 HD
ENDBRANCH  24  25
ENDBRANCH  23  24
ENDBRANCH  19  23
ENDBRANCH  15  16
ENDBRANCH  10  15
BRANCH   3  27
ATOM     27  O   UNL     1      -3.523   5.022  -0.076  0.00  0.00    -0.448 OA
BRANCH  27  28
ATOM     28  C   UNL     1      -4.075   5.383   1.112  0.00  0.00    +0.143 A 
ATOM     29  C   UNL     1      -3.512   4.943   2.302  0.00  0.00    +0.047 A 
ATOM     30  C   UNL     1      -4.072   5.314   3.509  0.00  0.00    +0.004 A 
ATOM     31  C   UNL     1      -5.199   6.116   3.532  0.00  0.00    +0.001 A 
ATOM     32  C   UNL     1      -5.765   6.553   2.349  0.00  0.00    +0.019 A 
ATOM     33  C   UNL     1      -5.206   6.188   1.138  0.00  0.00    +0.060 A 
ATOM     34 BR   UNL     1      -5.980   6.785  -0.480  0.00  0.00    -0.046 Br
ENDBRANCH  27  28
ENDBRANCH   3  27
TORSDOF 8
