REMARK  Name = ZINC26371077
REMARK  5 active torsions:
REMARK  status: ('A' for Active; 'I' for Inactive)
REMARK    1  A    between atoms: C_1  and  C_2
REMARK    2  A    between atoms: C_2  and  C_4
REMARK    3  A    between atoms: C_2  and  S_15
REMARK    4  A    between atoms: N_6  and  C_7
REMARK    5  A    between atoms: S_15  and  C_16
REMARK                            x       y       z     vdW  Elec       q    Type
REMARK                         _______ _______ _______ _____ _____    ______ ____
ROOT
ATOM      1  C   UNL     1       2.404   1.767   1.315  0.00  0.00    +0.029 C 
ATOM      2  C   UNL     1       1.739   2.222   0.014  0.00  0.00    +0.137 C 
ENDROOT
BRANCH   2   3
ATOM      3  C   UNL     1       1.858   3.719  -0.114  0.00  0.00    +0.230 C 
ATOM      4  O   UNL     1       0.952   4.433   0.260  0.00  0.00    -0.274 OA
ATOM      5  N   UNL     1       2.971   4.263  -0.643  0.00  0.00    -0.283 N 
ATOM      6  H   UNL     1       3.822   3.621  -0.914  0.00  0.00    +0.155 HD
BRANCH   5   7
ATOM      7  C   UNL     1       3.045   5.646  -0.849  0.00  0.00    +0.052 A 
ATOM      8  C   UNL     1       2.428   6.515   0.041  0.00  0.00    +0.026 A 
ATOM      9  C   UNL     1       2.502   7.879  -0.164  0.00  0.00    +0.022 A 
ATOM     10  C   UNL     1       3.190   8.381  -1.254  0.00  0.00    +0.042 A 
ATOM     11  C   UNL     1       3.806   7.518  -2.144  0.00  0.00    +0.041 A 
ATOM     12  C   UNL     1       3.739   6.152  -1.941  0.00  0.00    +0.064 A 
ATOM     13 CL   UNL     1       4.517   5.069  -3.053  0.00  0.00    -0.082 Cl
ATOM     14 CL   UNL     1       3.281  10.095  -1.508  0.00  0.00    -0.083 Cl
ENDBRANCH   5   7
ENDBRANCH   2   3
BRANCH   2  15
ATOM     15  S   UNL     1      -0.014   1.754   0.035  0.00  0.00    -0.075 S 
BRANCH  15  16
ATOM     16  C   UNL     1       0.015  -0.007   0.038  0.00  0.00    +0.174 A 
ATOM     17  N   UNL     1       1.098  -0.753   0.028  0.00  0.00    -0.229 NA
ATOM     18  C   UNL     1       0.760  -2.047   0.034  0.00  0.00    +0.139 A 
ATOM     19  C   UNL     1      -0.614  -2.121   0.050  0.00  0.00    +0.067 A 
ATOM     20  N   UNL     1      -1.079  -0.814   0.058  0.00  0.00    -0.295 N 
ATOM     21  C   UNL     1      -2.431  -0.567   0.068  0.00  0.00    +0.094 A 
ATOM     22  C   UNL     1      -3.310  -1.585   0.080  0.00  0.00    +0.018 A 
ATOM     23  C   UNL     1      -2.864  -2.922   0.077  0.00  0.00    +0.003 A 
ATOM     24  C   UNL     1      -1.533  -3.192   0.063  0.00  0.00    +0.028 A 
ENDBRANCH  15  16
ENDBRANCH   2  15
TORSDOF 4
