REMARK  Name = ZINC63658956
REMARK  9 active torsions:
REMARK  status: ('A' for Active; 'I' for Inactive)
REMARK    1  A    between atoms: C_1  and  C_2
REMARK    2  A    between atoms: C_4  and  C_13
REMARK    3  A    between atoms: C_13  and  C_14
REMARK    4  A    between atoms: C_14  and  N_15
REMARK    5  A    between atoms: N_15  and  C_16
REMARK    6  A    between atoms: N_15  and  C_22
REMARK    7  A    between atoms: C_16  and  C_17
REMARK    8  A    between atoms: C_22  and  N_24
REMARK    9  A    between atoms: N_24  and  C_25
REMARK                            x       y       z     vdW  Elec       q    Type
REMARK                         _______ _______ _______ _____ _____    ______ ____
ROOT
ATOM      1  N   UNL     1       1.227  -0.825  -5.104  0.00  0.00    -0.305 N 
ENDROOT
BRANCH   1   2
ATOM      2  C   UNL     1       0.397  -1.694  -5.714  0.00  0.00    +0.138 C 
ATOM      3  S   UNL     1       0.053  -3.204  -4.986  0.00  0.00    -0.018 S 
BRANCH   2   4
ATOM      4  N   UNL     1      -0.162  -1.374  -6.898  0.00  0.00    -0.297 N 
ATOM      5  H   UNL     1      -0.032  -0.488  -7.272  0.00  0.00    +0.154 HD
BRANCH   4   6
ATOM      6  C   UNL     1      -0.930  -2.319  -7.588  0.00  0.00    +0.033 A 
ATOM      7  C   UNL     1      -2.112  -1.935  -8.208  0.00  0.00    +0.025 A 
ATOM      8  C   UNL     1      -2.868  -2.870  -8.888  0.00  0.00    +0.022 A 
ATOM      9  C   UNL     1      -2.449  -4.187  -8.951  0.00  0.00    +0.041 A 
ATOM     10  C   UNL     1      -1.272  -4.572  -8.334  0.00  0.00    +0.022 A 
ATOM     11  C   UNL     1      -0.509  -3.640  -7.657  0.00  0.00    +0.025 A 
ATOM     12 CL   UNL     1      -3.402  -5.359  -9.807  0.00  0.00    -0.084 Cl
ENDBRANCH   4   6
ENDBRANCH   2   4
ENDBRANCH   1   2
BRANCH   1  13
ATOM     13  C   UNL     1       1.835  -1.173  -3.817  0.00  0.00    +0.111 C 
BRANCH  13  14
ATOM     14  C   UNL     1       0.924  -0.705  -2.680  0.00  0.00    +0.052 C 
BRANCH  14  17
ATOM     15  C   UNL     1       0.823   0.721   0.229  0.00  0.00    +0.035 C 
ATOM     16  C   UNL     1       0.986  -0.786   0.019  0.00  0.00    +0.103 C 
ATOM     17  C   UNL     1       1.549  -1.063  -1.357  0.00  0.00    -0.037 C 
ATOM     18  C   UNL     1       2.727  -1.698  -1.159  0.00  0.00    +0.001 A 
ATOM     19  C   UNL     1       3.740  -2.224  -2.081  0.00  0.00    +0.030 A 
ATOM     20  C   UNL     1       4.842  -2.823  -1.573  0.00  0.00    +0.042 A 
ATOM     21  C   UNL     1       5.039  -2.953  -0.191  0.00  0.00    +0.022 A 
ATOM     22  C   UNL     1       4.153  -2.495   0.718  0.00  0.00    +0.027 A 
ATOM     23  C   UNL     1       2.959  -1.848   0.296  0.00  0.00    +0.043 A 
ATOM     24  N   UNL     1       1.962  -1.327   0.972  0.00  0.00    -0.378 N 
ATOM     25 CL   UNL     1       6.043  -3.447  -2.661  0.00  0.00    -0.084 Cl
ATOM     26  H   UNL     1       1.883  -1.303   1.938  0.00  0.00    +0.160 HD
ENDBRANCH  14  17
ENDBRANCH  13  14
ENDBRANCH   1  13
BRANCH   1  27
ATOM     27  C   UNL     1       1.522   0.468  -5.728  0.00  0.00    +0.181 C 
BRANCH  27  28
ATOM     28  C   UNL     1       2.729   0.332  -6.620  0.00  0.00    +0.122 A 
ATOM     29  C   UNL     1       2.709   0.009  -7.926  0.00  0.00    +0.046 A 
ATOM     30  C   UNL     1       4.053  -0.006  -8.364  0.00  0.00    +0.041 A 
ATOM     31  C   UNL     1       4.814   0.308  -7.301  0.00  0.00    +0.195 A 
ATOM     32  O   UNL     1       4.006   0.517  -6.248  0.00  0.00    -0.466 OA
ENDBRANCH  27  28
ENDBRANCH   1  27
TORSDOF 8
