REMARK  Name = ZINC01064618
REMARK  7 active torsions:
REMARK  status: ('A' for Active; 'I' for Inactive)
REMARK    1  A    between atoms: C_1  and  C_2
REMARK    2  A    between atoms: N_4  and  C_23
REMARK    3  A    between atoms: C_7  and  C_9
REMARK    4  A    between atoms: C_9  and  C_11
REMARK    5  A    between atoms: C_9  and  C_18
REMARK    6  A    between atoms: C_18  and  C_19
REMARK    7  A    between atoms: C_18  and  C_21
REMARK                            x       y       z     vdW  Elec       q    Type
REMARK                         _______ _______ _______ _____ _____    ______ ____
ROOT
ATOM      1  C   UNL     1      -0.014   1.498   0.002  0.00  0.00    +0.063 C 
ATOM      2  C   UNL     1       0.005  -0.009  -0.002  0.00  0.00    +0.047 C 
ATOM      3  N   UNL     1      -0.077  -0.765  -1.026  0.00  0.00    -0.181 NA
ATOM      4  N   UNL     1      -0.030  -2.119  -0.712  0.00  0.00    -0.160 N 
ATOM      5  C   UNL     1       0.093  -2.306   0.619  0.00  0.00    +0.249 C 
ATOM      6  O   UNL     1       0.162  -3.361   1.213  0.00  0.00    -0.273 OA
ATOM      7  C   UNL     1       0.133  -0.909   1.209  0.00  0.00    +0.132 C 
ENDROOT
BRANCH   4   8
ATOM      8  C   UNL     1      -0.101  -3.153  -1.654  0.00  0.00    +0.060 A 
ATOM      9  C   UNL     1      -0.052  -4.477  -1.238  0.00  0.00    +0.025 A 
ATOM     10  C   UNL     1      -0.122  -5.495  -2.169  0.00  0.00    +0.002 A 
ATOM     11  C   UNL     1      -0.242  -5.197  -3.514  0.00  0.00    +0.000 A 
ATOM     12  C   UNL     1      -0.291  -3.879  -3.931  0.00  0.00    +0.002 A 
ATOM     13  C   UNL     1      -0.227  -2.857  -3.005  0.00  0.00    +0.025 A 
ENDBRANCH   4   8
BRANCH   7  14
ATOM     14  C   UNL     1       1.462  -0.663   1.925  0.00  0.00    +0.067 C 
BRANCH  14  15
ATOM     15  C   UNL     1       2.598  -0.824   0.948  0.00  0.00    -0.040 A 
ATOM     16  C   UNL     1       2.783  -2.030   0.297  0.00  0.00    +0.004 A 
ATOM     17  C   UNL     1       3.824  -2.179  -0.600  0.00  0.00    +0.002 A 
ATOM     18  C   UNL     1       4.681  -1.123  -0.846  0.00  0.00    +0.020 A 
ATOM     19  C   UNL     1       4.497   0.084  -0.194  0.00  0.00    +0.041 A 
ATOM     20  C   UNL     1       3.450   0.234   0.699  0.00  0.00    +0.024 A 
ATOM     21 CL   UNL     1       5.573   1.411  -0.502  0.00  0.00    -0.084 Cl
ENDBRANCH  14  15
BRANCH  14  22
ATOM     22  C   UNL     1       1.622  -1.672   3.064  0.00  0.00    +0.202 C 
BRANCH  22  23
ATOM     23  C   UNL     1       2.842  -1.361   3.827  0.00  0.00    +0.081 C 
ATOM     24  N   UNL     1       3.784  -1.122   4.416  0.00  0.00    -0.195 NA
ENDBRANCH  22  23
BRANCH  22  25
ATOM     25  C   UNL     1       0.453  -1.595   3.956  0.00  0.00    +0.081 C 
ATOM     26  N   UNL     1      -0.449  -1.536   4.644  0.00  0.00    -0.195 NA
ENDBRANCH  22  25
ENDBRANCH  14  22
ENDBRANCH   7  14
TORSDOF 6
