REMARK  Name = ZINC43366949
REMARK  8 active torsions:
REMARK  status: ('A' for Active; 'I' for Inactive)
REMARK    1  A    between atoms: C_1  and  C_2
REMARK    2  A    between atoms: C_2  and  C_3
REMARK    3  A    between atoms: C_3  and  C_5
REMARK    4  A    between atoms: C_3  and  N_21
REMARK    5  A    between atoms: C_5  and  C_7
REMARK    6  A    between atoms: C_5  and  O_13
REMARK    7  A    between atoms: C_10  and  C_12
REMARK    8  A    between atoms: O_13  and  C_14
REMARK                            x       y       z     vdW  Elec       q    Type
REMARK                         _______ _______ _______ _____ _____    ______ ____
ROOT
ATOM      1  C   UNL     1       0.839  -2.094  -1.219  0.00  0.00    +0.225 C 
ENDROOT
BRANCH   1   2
ATOM      2  C   UNL     1       1.419  -2.825  -2.402  0.00  0.00    +0.144 A 
ATOM      3  C   UNL     1       0.721  -3.336  -3.431  0.00  0.00    +0.049 A 
ATOM      4  C   UNL     1       1.657  -3.930  -4.308  0.00  0.00    +0.045 A 
ATOM      5  C   UNL     1       2.873  -3.746  -3.762  0.00  0.00    +0.102 A 
ATOM      6  O   UNL     1       2.723  -3.071  -2.610  0.00  0.00    -0.461 OA
ATOM      7  C   UNL     1       4.181  -4.213  -4.346  0.00  0.00    +0.086 C 
ENDBRANCH   1   2
BRANCH   1   8
ATOM      8  C   UNL     1       0.879  -0.587  -1.480  0.00  0.00    -0.026 C 
BRANCH   8   9
ATOM      9  N   UNL     1       0.093  -0.277  -2.682  0.00  0.00    +0.383 N 
ATOM     10  H   UNL     1       0.120   0.717  -2.854  0.00  0.00    -0.089 HD
ATOM     11  H   UNL     1       0.482  -0.766  -3.474  0.00  0.00    -0.089 HD
ATOM     12  H   UNL     1      -0.863  -0.568  -2.543  0.00  0.00    -0.089 HD
ENDBRANCH   8   9
BRANCH   8  14
ATOM     13  C   UNL     1       0.444   1.664  -0.486  0.00  0.00    +0.002 C 
ATOM     14  C   UNL     1       0.289   0.155  -0.280  0.00  0.00    -0.016 C 
ENDBRANCH   8  14
ENDBRANCH   1   8
BRANCH   1  15
ATOM     15  O   UNL     1       1.603  -2.395  -0.050  0.00  0.00    -0.482 OA
BRANCH  15  16
ATOM     16  C   UNL     1       0.921  -2.521   1.118  0.00  0.00    +0.134 A 
ATOM     17  C   UNL     1      -0.460  -2.391   1.134  0.00  0.00    +0.047 A 
ATOM     18  C   UNL     1      -1.151  -2.519   2.323  0.00  0.00    +0.004 A 
ATOM     19  C   UNL     1      -0.468  -2.776   3.498  0.00  0.00    +0.001 A 
ATOM     20  C   UNL     1       0.908  -2.905   3.485  0.00  0.00    +0.018 A 
ATOM     21  C   UNL     1       1.604  -2.785   2.297  0.00  0.00    +0.055 A 
ATOM     22  I   UNL     1       3.689  -2.991   2.277  0.00  0.00    -0.040 I 
ENDBRANCH  15  16
ENDBRANCH   1  15
TORSDOF 6
