REMARK  Name = ZINC03294870
REMARK  7 active torsions:
REMARK  status: ('A' for Active; 'I' for Inactive)
REMARK    1  A    between atoms: C_1  and  C_2
REMARK    2  A    between atoms: C_2  and  C_3
REMARK    3  A    between atoms: C_10  and  C_12
REMARK    4  A    between atoms: C_12  and  S_13
REMARK    5  A    between atoms: S_13  and  C_14
REMARK    6  A    between atoms: C_17  and  C_20
REMARK    7  A    between atoms: N_18  and  N_19
REMARK                            x       y       z     vdW  Elec       q    Type
REMARK                         _______ _______ _______ _____ _____    ______ ____
ROOT
ATOM      1  C   UNL     1      -0.109   1.435   1.213  0.00  0.00    +0.209 A 
ATOM      2  N   UNL     1       1.141   1.781   1.008  0.00  0.00    -0.121 NA
ATOM      3  N   UNL     1       1.917   0.777   1.211  0.00  0.00    -0.126 NA
ATOM      4  C   UNL     1       1.209  -0.275   1.560  0.00  0.00    +0.188 A 
ATOM      5  N   UNL     1      -0.112   0.116   1.571  0.00  0.00    -0.223 N 
ENDROOT
BRANCH   4   6
ATOM      6  C   UNL     1       1.729  -1.614   1.877  0.00  0.00    +0.058 A 
ATOM      7  C   UNL     1       2.967  -2.145   1.618  0.00  0.00    +0.019 A 
ATOM      8  C   UNL     1       3.229  -3.436   2.016  0.00  0.00    +0.008 A 
ATOM      9  C   UNL     1       2.255  -4.147   2.642  0.00  0.00    +0.046 A 
ATOM     10  S   UNL     1       0.909  -2.975   2.691  0.00  0.00    -0.093 S 
ENDBRANCH   4   6
BRANCH   5  11
ATOM     11  N   UNL     1      -1.198  -0.655   1.877  0.00  0.00    -0.295 N 
ATOM     12  H   UNL     1      -1.566  -1.104   1.052  0.00  0.00    +0.163 HD
ATOM     13  H   UNL     1      -0.971  -1.334   2.588  0.00  0.00    +0.163 HD
ENDBRANCH   5  11
BRANCH   1  14
ATOM     14  S   UNL     1      -1.521   2.476   1.050  0.00  0.00    -0.075 S 
BRANCH  14  15
ATOM     15  C   UNL     1      -0.717   4.023   0.562  0.00  0.00    +0.173 C 
BRANCH  15  22
ATOM     16  C   UNL     1      -2.403   7.352  -0.323  0.00  0.00    +0.076 C 
ATOM     17  C   UNL     1      -2.123   8.598   0.532  0.00  0.00    +0.022 C 
ATOM     18  C   UNL     1      -0.680   9.053   0.303  0.00  0.00    +0.003 C 
ATOM     19  C   UNL     1       0.281   7.945   0.739  0.00  0.00    +0.019 C 
ATOM     20  C   UNL     1       0.029   6.694  -0.107  0.00  0.00    +0.108 C 
ATOM     21  N   UNL     1      -1.392   6.333  -0.007  0.00  0.00    -0.298 N 
ATOM     22  C   UNL     1      -1.761   5.091   0.361  0.00  0.00    +0.226 C 
ATOM     23  O   UNL     1      -2.934   4.831   0.530  0.00  0.00    -0.275 OA
BRANCH  16  25
ATOM     24  C   UNL     1      -4.849   7.860  -0.358  0.00  0.00    +0.006 C 
ATOM     25  C   UNL     1      -3.796   6.809  -0.001  0.00  0.00    +0.019 C 
ENDBRANCH  16  25
ENDBRANCH  15  22
ENDBRANCH  14  15
ENDBRANCH   1  14
TORSDOF 6
