REMARK  Name = ZINC20472777
REMARK  4 active torsions:
REMARK  status: ('A' for Active; 'I' for Inactive)
REMARK    1  A    between atoms: C_9  and  C_12
REMARK    2  A    between atoms: C_12  and  C_13
REMARK    3  A    between atoms: C_19  and  C_21
REMARK    4  A    between atoms: C_24  and  C_26
REMARK                            x       y       z     vdW  Elec       q    Type
REMARK                         _______ _______ _______ _____ _____    ______ ____
ROOT
ATOM      1  C   UNL     1       3.010   5.718  -1.161  0.00  0.00    +0.223 C 
ATOM      2  O   UNL     1       2.164   5.278  -1.910  0.00  0.00    -0.275 OA
ATOM      3  N   UNL     1       3.512   6.952  -1.361  0.00  0.00    -0.294 N 
ATOM      4  C   UNL     1       4.540   7.606  -0.531  0.00  0.00    +0.108 C 
ATOM      5  C   UNL     1       4.323   9.124  -0.753  0.00  0.00    +0.021 C 
ATOM      6  C   UNL     1       3.940   9.167  -2.256  0.00  0.00    +0.029 C 
ATOM      7  C   UNL     1       3.130   7.867  -2.446  0.00  0.00    +0.113 C 
ENDROOT
BRANCH   7   8
ATOM      8  C   UNL     1       3.458   7.245  -3.780  0.00  0.00    +0.011 A 
ATOM      9  C   UNL     1       2.727   7.270  -4.925  0.00  0.00    +0.014 A 
ATOM     10  C   UNL     1       3.212   6.637  -6.043  0.00  0.00    +0.021 A 
ATOM     11  C   UNL     1       4.434   5.994  -5.924  0.00  0.00    +0.074 A 
ATOM     12  S   UNL     1       4.856   6.320  -4.221  0.00  0.00    -0.087 S 
BRANCH  11  13
ATOM     13  C   UNL     1       5.184   5.243  -6.934  0.00  0.00    +0.248 C 
ATOM     14  O   UNL     1       4.737   5.121  -8.059  0.00  0.00    -0.270 OA
ATOM     15  N   UNL     1       6.370   4.686  -6.617  0.00  0.00    -0.325 N 
ATOM     16  H   UNL     1       6.933   4.122  -7.375  0.00  0.00    +0.145 HD
ATOM     17  H   UNL     1       6.775   4.796  -5.600  0.00  0.00    +0.145 HD
ENDBRANCH  11  13
ENDBRANCH   7   8
BRANCH   1  18
ATOM     18  C   UNL     1       3.500   4.883  -0.005  0.00  0.00    +0.170 C 
BRANCH  18  27
ATOM     19  C   UNL     1       1.208  -0.692  -0.013  0.00  0.00    +0.022 A 
ATOM     20  C   UNL     1       2.404  -0.006  -0.021  0.00  0.00    +0.029 A 
ATOM     21  C   UNL     1       2.404   1.381  -0.013  0.00  0.00    +0.066 A 
ATOM     22  C   UNL     1       1.187   2.083   0.002  0.00  0.00    +0.090 A 
ATOM     23  C   UNL     1      -0.017   1.373   0.010  0.00  0.00    +0.050 A 
ATOM     24  C   UNL     1       0.002  -0.004   0.002  0.00  0.00    +0.043 A 
ATOM     25 CL   UNL     1      -1.493  -0.886   0.011  0.00  0.00    -0.083 Cl
ATOM     26  N   UNL     1       1.493   3.406   0.006  0.00  0.00    -0.232 NA
ATOM     27  C   UNL     1       2.785   3.556  -0.005  0.00  0.00    +0.117 A 
ATOM     28  N   UNL     1       3.397   2.341  -0.017  0.00  0.00    -0.341 N 
ATOM     29  H   UNL     1       4.455   2.039  -0.029  0.00  0.00    +0.167 HD
ENDBRANCH  18  27
ENDBRANCH   1  18
TORSDOF 4
