REMARK  Name = ZINC63818472
REMARK  11 active torsions:
REMARK  status: ('A' for Active; 'I' for Inactive)
REMARK    1  A    between atoms: C_1  and  O_2
REMARK    2  A    between atoms: O_2  and  C_3
REMARK    3  A    between atoms: C_3  and  C_5
REMARK    4  A    between atoms: C_5  and  C_7
REMARK    5  A    between atoms: C_5  and  N_13
REMARK    6  A    between atoms: C_7  and  C_8
REMARK    7  A    between atoms: C_14  and  C_16
REMARK    8  A    between atoms: C_16  and  O_17
REMARK    9  A    between atoms: O_17  and  C_18
REMARK   10  A    between atoms: C_20  and  O_40
REMARK   11  A    between atoms: C_26  and  C_30
REMARK                            x       y       z     vdW  Elec       q    Type
REMARK                         _______ _______ _______ _____ _____    ______ ____
ROOT
ATOM      1  C   UNL     1      -6.560  -3.518  -2.636  0.00  0.00    +0.128 A 
ATOM      2  C   UNL     1      -7.325  -3.860  -1.528  0.00  0.00    +0.092 A 
ATOM      3  C   UNL     1      -8.643  -4.249  -1.688  0.00  0.00    +0.134 A 
ATOM      4  C   UNL     1      -9.199  -4.293  -2.976  0.00  0.00    +0.101 A 
ATOM      5  C   UNL     1      -8.419  -3.953  -4.097  0.00  0.00    +0.138 A 
ATOM      6  C   UNL     1      -7.105  -3.560  -3.913  0.00  0.00    +0.092 A 
ATOM      7  O   UNL     1      -8.940  -4.008  -5.345  0.00  0.00    -0.490 OA
ATOM      8  C   UNL     1     -10.357  -3.932  -5.500  0.00  0.00    +0.245 C 
ATOM      9  C   UNL     1     -11.024  -4.984  -4.601  0.00  0.00    +0.128 C 
ATOM     10  C   UNL     1     -10.597  -4.691  -3.174  0.00  0.00    +0.181 C 
ATOM     11  O   UNL     1     -11.373  -4.782  -2.245  0.00  0.00    -0.291 OA
ENDROOT
BRANCH   9  12
ATOM     12  C   UNL     1     -10.569  -6.364  -5.002  0.00  0.00    -0.030 A 
ATOM     13  C   UNL     1      -9.227  -6.691  -4.944  0.00  0.00    +0.008 A 
ATOM     14  C   UNL     1      -8.805  -7.955  -5.311  0.00  0.00    +0.050 A 
ATOM     15  C   UNL     1      -9.728  -8.898  -5.740  0.00  0.00    +0.162 A 
ATOM     16  C   UNL     1     -11.077  -8.569  -5.796  0.00  0.00    +0.162 A 
ATOM     17  C   UNL     1     -11.494  -7.301  -5.422  0.00  0.00    +0.054 A 
ATOM     18  O   UNL     1     -11.999  -9.482  -6.206  0.00  0.00    -0.485 OA
ATOM     19  C   UNL     1     -11.506 -10.620  -6.921  0.00  0.00    +0.270 C 
ATOM     20  C   UNL     1     -10.287 -11.169  -6.166  0.00  0.00    +0.270 C 
ATOM     21  O   UNL     1      -9.297 -10.137  -6.103  0.00  0.00    -0.485 OA
ENDBRANCH   9  12
BRANCH   3  22
ATOM     22  O   UNL     1      -9.392  -4.585  -0.608  0.00  0.00    -0.506 OA
ATOM     23  H   UNL     1      -9.867  -3.842  -0.212  0.00  0.00    +0.292 HD
ENDBRANCH   3  22
BRANCH   1  24
ATOM     24  O   UNL     1      -5.269  -3.135  -2.470  0.00  0.00    -0.483 OA
BRANCH  24  25
ATOM     25  C   UNL     1      -4.767  -3.113  -1.132  0.00  0.00    +0.324 C 
BRANCH  25  27
ATOM     26  N   UNL     1      -2.643  -2.570   0.013  0.00  0.00    -0.299 N 
ATOM     27  C   UNL     1      -3.328  -2.666  -1.143  0.00  0.00    +0.251 C 
ATOM     28  O   UNL     1      -2.786  -2.393  -2.193  0.00  0.00    -0.272 OA
ATOM     29  H   UNL     1      -3.076  -2.788   0.853  0.00  0.00    +0.150 HD
BRANCH  26  30
ATOM     30  C   UNL     1      -1.244  -2.135   0.003  0.00  0.00    +0.188 C 
BRANCH  30  31
ATOM     31  C   UNL     1      -1.185  -0.630   0.010  0.00  0.00    +0.328 C 
ATOM     32  O   UNL     1      -2.208   0.015   0.023  0.00  0.00    -0.249 OA
BRANCH  31  34
ATOM     33  C   UNL     1      -0.017   1.425   0.010  0.00  0.00    +0.280 C 
ATOM     34  O   UNL     1       0.002  -0.004   0.002  0.00  0.00    -0.467 OA
ENDBRANCH  31  34
ENDBRANCH  30  31
BRANCH  30  35
ATOM     35  C   UNL     1      -0.531  -2.680   1.242  0.00  0.00    +0.088 C 
BRANCH  35  36
ATOM     36  C   UNL     1      -0.482  -4.184   1.173  0.00  0.00    +0.035 A 
ATOM     37  N   UNL     1       0.549  -4.946   0.693  0.00  0.00    -0.350 N 
ATOM     38  C   UNL     1       0.181  -6.239   0.816  0.00  0.00    +0.171 A 
ATOM     39  N   UNL     1      -1.012  -6.287   1.343  0.00  0.00    -0.352 N 
ATOM     40  C   UNL     1      -1.442  -5.038   1.577  0.00  0.00    +0.105 A 
ATOM     41  H   UNL     1       1.388  -4.618   0.332  0.00  0.00    +0.166 HD
ATOM     42  H   UNL     1      -1.508  -7.098   1.537  0.00  0.00    +0.166 HD
ENDBRANCH  35  36
ENDBRANCH  30  35
ENDBRANCH  26  30
ENDBRANCH  25  27
ENDBRANCH  24  25
ENDBRANCH   1  24
TORSDOF 10
