REMARK  Name = ZINC15731908
REMARK  5 active torsions:
REMARK  status: ('A' for Active; 'I' for Inactive)
REMARK    1  A    between atoms: C_1  and  C_2
REMARK    2  A    between atoms: C_10  and  C_12
REMARK    3  A    between atoms: C_12  and  S_13
REMARK    4  A    between atoms: S_13  and  C_14
REMARK    5  A    between atoms: C_19  and  N_20
REMARK                            x       y       z     vdW  Elec       q    Type
REMARK                         _______ _______ _______ _____ _____    ______ ____
ROOT
ATOM      1  C   UNL     1       2.420   1.398  -0.013  0.00  0.00    +0.064 C 
ATOM      2  C   UNL     1       1.010   1.930   0.003  0.00  0.00    +0.033 A 
ATOM      3  C   UNL     1      -0.013   1.076   0.008  0.00  0.00    +0.070 A 
ATOM      4  S   UNL     1      -1.414   2.183   0.019  0.00  0.00    -0.057 S 
ATOM      5  C   UNL     1      -0.502   3.711   0.025  0.00  0.00    +0.180 A 
ATOM      6  N   UNL     1       0.800   3.288   0.011  0.00  0.00    -0.259 N 
ATOM      7  C   UNL     1       1.758   4.263   0.007  0.00  0.00    +0.259 A 
ATOM      8  O   UNL     1       2.940   3.959  -0.006  0.00  0.00    -0.267 OA
ATOM      9  C   UNL     1       1.383   5.607   0.016  0.00  0.00    +0.095 A 
ATOM     10  C   UNL     1       0.046   5.944   0.030  0.00  0.00    +0.059 A 
ATOM     11  N   UNL     1      -0.861   4.971   0.034  0.00  0.00    -0.227 NA
ENDROOT
BRANCH  10  12
ATOM     12  C   UNL     1      -0.380   7.390   0.039  0.00  0.00    +0.130 C 
BRANCH  12  13
ATOM     13  S   UNL     1      -0.991   7.851  -1.605  0.00  0.00    -0.117 S 
BRANCH  13  14
ATOM     14  C   UNL     1      -1.444   9.545  -1.432  0.00  0.00    +0.029 A 
ATOM     15  C   UNL     1      -1.288  10.185  -0.212  0.00  0.00    +0.016 A 
ATOM     16  C   UNL     1      -1.639  11.516  -0.080  0.00  0.00    +0.001 A 
ATOM     17  C   UNL     1      -2.156  12.209  -1.159  0.00  0.00    +0.002 A 
ATOM     18  C   UNL     1      -2.319  11.578  -2.378  0.00  0.00    +0.024 A 
ATOM     19  C   UNL     1      -1.965  10.245  -2.521  0.00  0.00    +0.038 A 
BRANCH  19  20
ATOM     20  N   UNL     1      -2.130   9.603  -3.754  0.00  0.00    -0.357 N 
ATOM     21  H   UNL     1      -1.882   8.670  -3.853  0.00  0.00    +0.142 HD
ATOM     22  H   UNL     1      -2.493  10.091  -4.510  0.00  0.00    +0.142 HD
ENDBRANCH  19  20
ENDBRANCH  13  14
ENDBRANCH  12  13
ENDBRANCH  10  12
TORSDOF 4
