REMARK  Name = ZINC51331611
REMARK  9 active torsions:
REMARK  status: ('A' for Active; 'I' for Inactive)
REMARK    1  A    between atoms: C_1  and  C_2
REMARK    2  A    between atoms: C_2  and  C_3
REMARK    3  A    between atoms: C_3  and  C_4
REMARK    4  A    between atoms: C_3  and  C_5
REMARK    5  A    between atoms: C_3  and  C_6
REMARK    6  A    between atoms: C_10  and  C_23
REMARK    7  A    between atoms: C_12  and  S_15
REMARK    8  A    between atoms: S_15  and  C_16
REMARK    9  A    between atoms: C_20  and  C_22
REMARK                            x       y       z     vdW  Elec       q    Type
REMARK                         _______ _______ _______ _____ _____    ______ ____
ROOT
ATOM      1  C   UNL     1       0.870  -1.961  -0.759  0.00  0.00    -0.004 C 
ATOM      2  C   UNL     1      -0.589  -2.422  -0.750  0.00  0.00    +0.005 C 
ATOM      3  C   UNL     1      -0.648  -3.931  -0.999  0.00  0.00    +0.020 C 
ATOM      4  C   UNL     1      -0.022  -4.248  -2.358  0.00  0.00    +0.105 C 
ATOM      5  C   UNL     1       1.437  -3.786  -2.368  0.00  0.00    +0.071 C 
ATOM      6  C   UNL     1       1.496  -2.278  -2.118  0.00  0.00    +0.020 C 
ENDROOT
BRANCH   1   7
ATOM      7  C   UNL     1       0.929  -0.453  -0.509  0.00  0.00    -0.032 C 
ATOM      8  C   UNL     1       0.156   0.277  -1.610  0.00  0.00    +0.011 C 
ATOM      9  C   UNL     1       2.388   0.009  -0.518  0.00  0.00    +0.011 C 
BRANCH   7  11
ATOM     10  C   UNL     1       0.361   1.373   1.100  0.00  0.00    +0.004 C 
ATOM     11  C   UNL     1       0.302  -0.136   0.850  0.00  0.00    +0.003 C 
ENDBRANCH   7  11
ENDBRANCH   1   7
BRANCH   4  12
ATOM     12  C   UNL     1      -0.079  -5.699  -2.599  0.00  0.00    +0.067 C 
ATOM     13  N   UNL     1      -0.123  -6.819  -2.784  0.00  0.00    -0.196 NA
ENDBRANCH   4  12
BRANCH   5  14
ATOM     14  S   UNL     1       2.353  -4.652  -1.063  0.00  0.00    -0.081 S 
BRANCH  14  15
ATOM     15  C   UNL     1       4.034  -4.218  -1.363  0.00  0.00    +0.189 A 
ATOM     16  N   UNL     1       4.336  -3.501  -2.436  0.00  0.00    -0.230 NA
ATOM     17  C   UNL     1       5.588  -3.158  -2.691  0.00  0.00    +0.115 A 
ATOM     18  C   UNL     1       6.589  -3.558  -1.819  0.00  0.00    +0.043 A 
ATOM     19  C   UNL     1       6.239  -4.307  -0.706  0.00  0.00    +0.043 A 
ATOM     20  N   UNL     1       4.967  -4.612  -0.507  0.00  0.00    -0.227 NA
ATOM     21  C   UNL     1       7.293  -4.764   0.269  0.00  0.00    +0.066 C 
ENDBRANCH  14  15
ENDBRANCH   5  14
TORSDOF 5
