REMARK  Name = ZINC35406232
REMARK  5 active torsions:
REMARK  status: ('A' for Active; 'I' for Inactive)
REMARK    1  A    between atoms: C_1  and  C_2
REMARK    2  A    between atoms: C_6  and  N_8
REMARK    3  A    between atoms: C_22  and  C_24
REMARK    4  A    between atoms: C_24  and  N_25
REMARK    5  A    between atoms: C_31  and  C_33
REMARK                            x       y       z     vdW  Elec       q    Type
REMARK                         _______ _______ _______ _____ _____    ______ ____
ROOT
ATOM      1  N   UNL     1       0.078  -2.503   2.405  0.00  0.00    -0.286 N 
ATOM      2  C   UNL     1       0.211  -1.930   3.747  0.00  0.00    +0.117 C 
ATOM      3  C   UNL     1       0.194  -3.141   4.696  0.00  0.00    +0.060 C 
ATOM      4  C   UNL     1       0.048  -4.329   3.771  0.00  0.00    +0.014 A 
ATOM      5  C   UNL     1      -0.018  -3.874   2.473  0.00  0.00    +0.109 A 
ATOM      6  N   UNL     1      -0.158  -4.757   1.432  0.00  0.00    -0.342 N 
ATOM      7  C   UNL     1      -0.243  -6.115   1.630  0.00  0.00    +0.050 A 
ATOM      8  C   UNL     1      -0.385  -6.989   0.555  0.00  0.00    +0.026 A 
ATOM      9  C   UNL     1      -0.467  -8.345   0.781  0.00  0.00    +0.002 A 
ATOM     10  C   UNL     1      -0.410  -8.853   2.072  0.00  0.00    +0.001 A 
ATOM     11  C   UNL     1      -0.272  -8.013   3.142  0.00  0.00    +0.012 A 
ATOM     12  C   UNL     1      -0.186  -6.636   2.933  0.00  0.00    +0.020 A 
ATOM     13  C   UNL     1      -0.027  -5.698   4.057  0.00  0.00    +0.049 A 
ATOM     14  N   UNL     1       0.031  -6.142   5.323  0.00  0.00    -0.284 N 
ATOM     15  C   UNL     1       0.032  -5.279   6.328  0.00  0.00    +0.231 C 
ATOM     16  O   UNL     1       1.086  -4.881   6.788  0.00  0.00    -0.274 OA
ATOM     17  H   UNL     1      -0.199  -4.411   0.527  0.00  0.00    +0.167 HD
ATOM     18  H   UNL     1       0.073  -7.094   5.502  0.00  0.00    +0.155 HD
ENDROOT
BRANCH   1  24
ATOM     19  C   UNL     1      -2.218  -1.289  -1.768  0.00  0.00    +0.044 C 
ATOM     20  C   UNL     1      -1.055  -1.152  -0.820  0.00  0.00    -0.049 A 
ATOM     21  C   UNL     1      -0.017  -0.289  -1.121  0.00  0.00    +0.003 A 
ATOM     22  C   UNL     1       1.052  -0.160  -0.254  0.00  0.00    +0.002 A 
ATOM     23  C   UNL     1       1.087  -0.893   0.916  0.00  0.00    +0.023 A 
ATOM     24  C   UNL     1       0.046  -1.760   1.222  0.00  0.00    +0.035 A 
ATOM     25  C   UNL     1      -1.030  -1.883   0.351  0.00  0.00    +0.026 A 
ENDBRANCH   1  24
BRANCH  15  26
ATOM     26  C   UNL     1      -1.273  -4.790   6.902  0.00  0.00    +0.180 C 
BRANCH  26  27
ATOM     27  N   UNL     1      -1.007  -3.954   8.080  0.00  0.00    -0.291 NA
ATOM     28  C   UNL     1      -0.416  -4.748   9.166  0.00  0.00    +0.104 C 
ATOM     29  C   UNL     1       0.012  -3.814  10.303  0.00  0.00    +0.123 C 
ATOM     30  N   UNL     1      -1.144  -2.992  10.692  0.00  0.00    -0.293 N 
ATOM     31  C   UNL     1      -1.874  -2.274   9.636  0.00  0.00    +0.123 C 
ATOM     32  C   UNL     1      -2.228  -3.269   8.526  0.00  0.00    +0.104 C 
ATOM     33  C   UNL     1      -1.524  -2.900  11.982  0.00  0.00    +0.282 C 
ATOM     34  O   UNL     1      -0.845  -3.409  12.854  0.00  0.00    -0.267 OA
BRANCH  33  35
ATOM     35  C   UNL     1      -2.756  -2.185  12.334  0.00  0.00    +0.189 A 
ATOM     36  C   UNL     1      -3.179  -1.891  13.598  0.00  0.00    +0.054 A 
ATOM     37  C   UNL     1      -4.396  -1.204  13.467  0.00  0.00    +0.042 A 
ATOM     38  C   UNL     1      -4.659  -1.111  12.145  0.00  0.00    +0.196 A 
ATOM     39  O   UNL     1      -3.666  -1.698  11.465  0.00  0.00    -0.458 OA
ENDBRANCH  33  35
ENDBRANCH  26  27
ENDBRANCH  15  26
TORSDOF 4
