REMARK  Name = ZINC12709543
REMARK  7 active torsions:
REMARK  status: ('A' for Active; 'I' for Inactive)
REMARK    1  A    between atoms: C_1  and  C_2
REMARK    2  A    between atoms: C_2  and  C_3
REMARK    3  A    between atoms: C_2  and  C_4
REMARK    4  A    between atoms: C_2  and  C_5
REMARK    5  A    between atoms: C_5  and  N_61
REMARK    6  A    between atoms: C_11  and  C_13
REMARK    7  A    between atoms: C_13  and  C_14
REMARK                            x       y       z     vdW  Elec       q    Type
REMARK                         _______ _______ _______ _____ _____    ______ ____
ROOT
ATOM      1  C   UNL     1       1.139  -1.099   0.859  0.00  0.00    +0.215 C 
ATOM      2  O   UNL     1       0.153  -0.400   0.764  0.00  0.00    -0.276 OA
ATOM      3  N   UNL     1       1.020  -2.441   0.820  0.00  0.00    -0.299 N 
ATOM      4  C   UNL     1       2.204  -3.307   0.927  0.00  0.00    +0.126 C 
ATOM      5  C   UNL     1       1.940  -4.351   2.023  0.00  0.00    +0.126 C 
ATOM      6  N   UNL     1       0.682  -5.053   1.730  0.00  0.00    -0.307 N 
ATOM      7  C   UNL     1      -0.462  -4.131   1.762  0.00  0.00    +0.126 C 
ATOM      8  C   UNL     1      -0.296  -3.078   0.662  0.00  0.00    +0.126 C 
ATOM      9  C   UNL     1       0.491  -6.109   2.598  0.00  0.00    +0.162 A 
ATOM     10  N   UNL     1      -0.528  -6.349   3.391  0.00  0.00    -0.225 NA
ATOM     11  C   UNL     1      -0.583  -7.436   4.192  0.00  0.00    +0.080 A 
ATOM     12  C   UNL     1      -1.614  -7.812   5.083  0.00  0.00    +0.029 A 
ATOM     13  C   UNL     1      -1.509  -8.954   5.834  0.00  0.00    +0.002 A 
ATOM     14  C   UNL     1      -0.395  -9.777   5.750  0.00  0.00    +0.001 A 
ATOM     15  C   UNL     1       0.633  -9.439   4.888  0.00  0.00    +0.017 A 
ATOM     16  C   UNL     1       0.536  -8.298   4.133  0.00  0.00    +0.041 A 
ATOM     17  S   UNL     1       1.571  -7.492   2.934  0.00  0.00    -0.052 S 
ENDROOT
BRANCH   1  18
ATOM     18  C   UNL     1       2.498  -0.467   1.021  0.00  0.00    +0.090 C 
BRANCH  18  24
ATOM     19  C   UNL     1       1.339   2.983   0.099  0.00  0.00    -0.059 C 
ATOM     20  C   UNL     1       0.203   3.072   1.120  0.00  0.00    +0.085 C 
ATOM     21  N   UNL     1       0.547   2.312   2.318  0.00  0.00    -0.318 N 
ATOM     22  C   UNL     1       1.505   1.379   2.337  0.00  0.00    +0.200 C 
ATOM     23  O   UNL     1       1.705   0.773   3.368  0.00  0.00    -0.278 OA
ATOM     24  C   UNL     1       2.344   1.051   1.135  0.00  0.00    +0.028 C 
ATOM     25  H   UNL     1       0.059   2.491   3.137  0.00  0.00    +0.149 HD
ATOM     26  N   UNL     1       1.680   1.558  -0.081  0.00  0.00    +0.389 N 
ATOM     27  H   UNL     1       0.818   1.024  -0.241  0.00  0.00    -0.081 HD
BRANCH  26  28
ATOM     28  C   UNL     1       2.572   1.393  -1.252  0.00  0.00    -0.072 C 
BRANCH  28  30
ATOM     29  C   UNL     1       1.130   2.834  -2.696  0.00  0.00    +0.009 C 
ATOM     30  C   UNL     1       1.728   1.436  -2.527  0.00  0.00    -0.052 C 
ATOM     31  C   UNL     1       0.600   0.408  -2.426  0.00  0.00    +0.009 C 
ATOM     32  C   UNL     1       2.610   1.109  -3.733  0.00  0.00    +0.009 C 
ENDBRANCH  28  30
ENDBRANCH  26  28
ENDBRANCH  18  24
ENDBRANCH   1  18
TORSDOF 4
