REMARK  Name = ZINC22920192
REMARK  12 active torsions:
REMARK  status: ('A' for Active; 'I' for Inactive)
REMARK    1  A    between atoms: C_1  and  C_2
REMARK    2  A    between atoms: C_2  and  N_3
REMARK    3  A    between atoms: N_6  and  C_9
REMARK    4  A    between atoms: C_9  and  C_10
REMARK    5  A    between atoms: C_14  and  O_16
REMARK    6  A    between atoms: O_16  and  C_17
REMARK    7  A    between atoms: C_17  and  C_18
REMARK    8  A    between atoms: C_18  and  C_20
REMARK    9  A    between atoms: C_18  and  O_29
REMARK   10  A    between atoms: C_20  and  N_21
REMARK   11  A    between atoms: N_21  and  C_22
REMARK   12  A    between atoms: N_21  and  C_23
REMARK                            x       y       z     vdW  Elec       q    Type
REMARK                         _______ _______ _______ _____ _____    ______ ____
ROOT
ATOM      1  C   UNL     1      -0.701   1.763  -3.604  0.00  0.00    -0.030 A 
ATOM      2  C   UNL     1      -1.820   1.244  -4.229  0.00  0.00    +0.005 A 
ATOM      3  C   UNL     1      -2.369   1.892  -5.319  0.00  0.00    +0.004 A 
ATOM      4  C   UNL     1      -1.792   3.054  -5.796  0.00  0.00    +0.045 A 
ATOM      5  C   UNL     1      -0.666   3.573  -5.175  0.00  0.00    +0.121 A 
ATOM      6  C   UNL     1      -0.121   2.924  -4.077  0.00  0.00    +0.050 A 
ENDROOT
BRANCH   1   7
ATOM      7  C   UNL     1      -0.109   1.057  -2.412  0.00  0.00    +0.119 C 
BRANCH   7  11
ATOM      8  N   UNL     1      -0.783   3.048   1.252  0.00  0.00    +0.381 N 
ATOM      9  C   UNL     1      -0.730   1.580   1.267  0.00  0.00    -0.063 C 
ATOM     10  C   UNL     1      -0.013   1.086   0.008  0.00  0.00    +0.066 C 
ATOM     11  N   UNL     1      -0.724   1.573  -1.182  0.00  0.00    -0.302 NA
ATOM     12  C   UNL     1      -0.777   3.042  -1.196  0.00  0.00    +0.066 C 
ATOM     13  C   UNL     1      -1.495   3.536   0.062  0.00  0.00    -0.063 C 
ATOM     14  H   UNL     1       0.249   3.425   1.208  0.00  0.00    -0.082 HD
BRANCH   8  16
ATOM     15  C   UNL     1      -0.798   2.848   3.693  0.00  0.00    -0.017 C 
ATOM     16  C   UNL     1      -1.399   3.565   2.482  0.00  0.00    -0.082 C 
ENDBRANCH   8  16
ENDBRANCH   7  11
ENDBRANCH   1   7
BRANCH   5  17
ATOM     17  O   UNL     1      -0.097   4.716  -5.641  0.00  0.00    -0.489 OA
BRANCH  17  18
ATOM     18  C   UNL     1      -0.712   5.331  -6.776  0.00  0.00    +0.258 C 
BRANCH  18  19
ATOM     19  C   UNL     1       0.062   6.595  -7.153  0.00  0.00    +0.135 C 
BRANCH  19  20
ATOM     20  O   UNL     1      -0.046   7.553  -6.098  0.00  0.00    -0.390 OA
ATOM     21  H   UNL     1       0.449   8.531  -6.190  0.00  0.00    +0.210 HD
ENDBRANCH  19  20
BRANCH  19  22
ATOM     22  C   UNL     1      -0.519   7.184  -8.440  0.00  0.00    -0.044 C 
BRANCH  22  23
ATOM     23  N   UNL     1       0.298   8.328  -8.867  0.00  0.00    +0.381 N 
ATOM     24  C   UNL     1       1.645   7.894  -9.259  0.00  0.00    -0.096 C 
ATOM     25  H   UNL     1       0.398   9.011  -8.011  0.00  0.00    -0.082 HD
BRANCH  23  26
ATOM     26  C   UNL     1      -0.357   9.064  -9.957  0.00  0.00    -0.069 C 
ATOM     27  C   UNL     1      -0.447   8.169 -11.195  0.00  0.00    -0.015 C 
ATOM     28  C   UNL     1      -1.128   8.935 -12.330  0.00  0.00    -0.002 C 
ATOM     29  C   UNL     1      -0.312  10.186 -12.663  0.00  0.00    -0.000 C 
ATOM     30  C   UNL     1      -0.222  11.081 -11.426  0.00  0.00    -0.002 C 
ATOM     31  C   UNL     1       0.460  10.314 -10.290  0.00  0.00    -0.015 C 
ENDBRANCH  23  26
ENDBRANCH  22  23
ENDBRANCH  19  22
ENDBRANCH  18  19
ENDBRANCH  17  18
ENDBRANCH   5  17
TORSDOF 10
