REMARK  Name = ZINC64986091
REMARK  8 active torsions:
REMARK  status: ('A' for Active; 'I' for Inactive)
REMARK    1  A    between atoms: C_1  and  C_2
REMARK    2  A    between atoms: C_2  and  C_3
REMARK    3  A    between atoms: C_3  and  C_5
REMARK    4  A    between atoms: C_3  and  N_6
REMARK    5  A    between atoms: C_7  and  C_9
REMARK    6  A    between atoms: N_12  and  S_21
REMARK    7  A    between atoms: S_21  and  C_24
REMARK    8  A    between atoms: C_27  and  C_30
REMARK                            x       y       z     vdW  Elec       q    Type
REMARK                         _______ _______ _______ _____ _____    ______ ____
ROOT
ATOM      1  C   UNL     1      -0.136   0.380   4.851  0.00  0.00    +0.277 C 
ATOM      2  C   UNL     1      -0.692   1.804   4.702  0.00  0.00    +0.186 C 
ATOM      3  N   UNL     1      -1.400   2.138   5.950  0.00  0.00    -0.195 N 
ATOM      4  C   UNL     1      -0.799   1.763   7.162  0.00  0.00    +0.094 A 
ATOM      5  C   UNL     1      -1.258   2.291   8.358  0.00  0.00    +0.048 A 
ATOM      6  C   UNL     1      -0.665   1.915   9.550  0.00  0.00    +0.043 A 
ATOM      7  C   UNL     1       0.385   1.014   9.547  0.00  0.00    +0.024 A 
ATOM      8  C   UNL     1       0.847   0.486   8.357  0.00  0.00    +0.049 A 
ATOM      9  C   UNL     1       0.260   0.858   7.157  0.00  0.00    +0.144 A 
ATOM     10  O   UNL     1       0.726   0.337   5.990  0.00  0.00    -0.476 OA
ATOM     11 CL   UNL     1      -1.238   2.575  11.050  0.00  0.00    -0.083 Cl
ENDROOT
BRANCH   1  13
ATOM     12  N   UNL     1       0.009  -0.109   2.431  0.00  0.00    -0.310 N 
ATOM     13  C   UNL     1       0.642   0.010   3.615  0.00  0.00    +0.256 C 
ATOM     14  O   UNL     1       1.837  -0.181   3.685  0.00  0.00    -0.272 OA
ATOM     15  H   UNL     1      -0.947   0.044   2.374  0.00  0.00    +0.149 HD
BRANCH  12  16
ATOM     16  C   UNL     1       0.765  -0.469   1.229  0.00  0.00    +0.070 C 
ATOM     17  C   UNL     1       0.896  -1.991   1.145  0.00  0.00    +0.028 C 
BRANCH  16  19
ATOM     18  C   UNL     1       0.010   1.579   0.012  0.00  0.00    +0.005 C 
ATOM     19  C   UNL     1       0.031   0.049  -0.010  0.00  0.00    +0.018 C 
ENDBRANCH  16  19
ENDBRANCH  12  16
ENDBRANCH   1  13
BRANCH   3  20
ATOM     20  S   UNL     1      -2.854   2.930   5.924  0.00  0.00    +0.075 S 
ATOM     21  O   UNL     1      -3.388   2.757   4.619  0.00  0.00    -0.150 OA
ATOM     22  O   UNL     1      -3.555   2.529   7.093  0.00  0.00    -0.150 OA
BRANCH  20  23
ATOM     23  C   UNL     1      -2.514   4.649   6.105  0.00  0.00    +0.109 A 
ATOM     24  C   UNL     1      -2.456   5.213   7.366  0.00  0.00    +0.029 A 
ATOM     25  C   UNL     1      -2.189   6.562   7.508  0.00  0.00    +0.005 A 
ATOM     26  C   UNL     1      -1.980   7.347   6.389  0.00  0.00    -0.050 A 
ATOM     27  C   UNL     1      -2.038   6.783   5.129  0.00  0.00    +0.005 A 
ATOM     28  C   UNL     1      -2.300   5.433   4.987  0.00  0.00    +0.029 A 
ATOM     29  C   UNL     1      -1.691   8.818   6.544  0.00  0.00    +0.044 C 
ENDBRANCH  20  23
ENDBRANCH   3  20
TORSDOF 5
