REMARK  Name = ZINC12896953
REMARK  8 active torsions:
REMARK  status: ('A' for Active; 'I' for Inactive)
REMARK    1  A    between atoms: C_1  and  C_2
REMARK    2  A    between atoms: C_6  and  O_29
REMARK    3  A    between atoms: C_7  and  O_28
REMARK    4  A    between atoms: C_12  and  C_13
REMARK    5  A    between atoms: C_13  and  C_14
REMARK    6  A    between atoms: C_18  and  C_27
REMARK    7  A    between atoms: C_23  and  C_25
REMARK    8  A    between atoms: C_23  and  C_26
REMARK                            x       y       z     vdW  Elec       q    Type
REMARK                         _______ _______ _______ _____ _____    ______ ____
ROOT
ATOM      1  C   UNL     1       0.694   3.624  -1.175  0.00  0.00    +0.045 C 
ATOM      2  C   UNL     1      -0.405   2.779  -1.766  0.00  0.00    -0.029 A 
ATOM      3  C   UNL     1      -1.141   3.225  -2.951  0.00  0.00    +0.025 A 
ATOM      4  C   UNL     1      -0.842   4.445  -3.568  0.00  0.00    +0.015 A 
ATOM      5  C   UNL     1      -1.542   4.838  -4.673  0.00  0.00    +0.050 A 
ATOM      6  C   UNL     1      -2.552   4.033  -5.192  0.00  0.00    +0.162 A 
ATOM      7  C   UNL     1      -2.863   2.819  -4.595  0.00  0.00    +0.202 A 
ATOM      8  C   UNL     1      -2.159   2.405  -3.469  0.00  0.00    +0.184 A 
ATOM      9  O   UNL     1      -2.444   1.227  -2.871  0.00  0.00    -0.418 OA
ATOM     10  C   UNL     1      -1.770   0.811  -1.788  0.00  0.00    +0.341 A 
ATOM     11  O   UNL     1      -2.058  -0.261  -1.285  0.00  0.00    -0.245 OA
ATOM     12  C   UNL     1      -0.742   1.585  -1.213  0.00  0.00    +0.049 A 
ENDROOT
BRANCH   7  13
ATOM     13  O   UNL     1      -3.852   2.038  -5.109  0.00  0.00    -0.501 OA
ATOM     14  H   UNL     1      -4.727   2.217  -4.739  0.00  0.00    +0.292 HD
ENDBRANCH   7  13
BRANCH   6  15
ATOM     15  O   UNL     1      -3.239   4.439  -6.292  0.00  0.00    -0.503 OA
ATOM     16  H   UNL     1      -4.027   4.962  -6.092  0.00  0.00    +0.292 HD
ENDBRANCH   6  15
BRANCH  12  17
ATOM     17  C   UNL     1      -0.013   1.086   0.008  0.00  0.00    +0.138 C 
BRANCH  17  18
ATOM     18  C   UNL     1      -0.718   1.572   1.248  0.00  0.00    +0.220 C 
ATOM     19  O   UNL     1      -1.714   2.256   1.150  0.00  0.00    -0.275 OA
ATOM     20  N   UNL     1      -0.241   1.246   2.467  0.00  0.00    -0.298 N 
ATOM     21  C   UNL     1       0.952   0.427   2.732  0.00  0.00    +0.114 C 
ATOM     22  C   UNL     1       1.117   0.383   4.267  0.00  0.00    -0.014 C 
ATOM     23  C   UNL     1      -0.348   0.546   4.759  0.00  0.00    +0.030 C 
ATOM     24  C   UNL     1      -0.833   1.631   3.762  0.00  0.00    +0.077 C 
ATOM     25  C   UNL     1      -0.230   2.958   4.225  0.00  0.00    +0.029 C 
ATOM     26  C   UNL     1       1.290   2.937   4.279  0.00  0.00    -0.033 C 
ATOM     27  C   UNL     1       1.889   1.617   4.737  0.00  0.00    +0.014 C 
ATOM     28  C   UNL     1       1.715   4.007   5.319  0.00  0.00    +0.011 C 
ATOM     29  C   UNL     1       1.885   3.376   2.940  0.00  0.00    +0.011 C 
ATOM     30  C   UNL     1       1.752  -0.930   4.750  0.00  0.00    +0.013 C 
ENDBRANCH  17  18
ENDBRANCH  12  17
TORSDOF 4
