REMARK  Name = ZINC38685166
REMARK  14 active torsions:
REMARK  status: ('A' for Active; 'I' for Inactive)
REMARK    1  A    between atoms: C_1  and  C_2
REMARK    2  A    between atoms: C_2  and  C_3
REMARK    3  A    between atoms: C_3  and  C_4
REMARK    4  A    between atoms: C_4  and  O_5
REMARK    5  A    between atoms: O_5  and  C_6
REMARK    6  A    between atoms: C_10  and  C_12
REMARK    7  A    between atoms: C_17  and  O_26
REMARK    8  A    between atoms: C_21  and  N_25
REMARK    9  A    between atoms: C_22  and  C_23
REMARK   10  A    between atoms: O_26  and  C_27
REMARK   11  A    between atoms: C_27  and  C_29
REMARK   12  A    between atoms: C_29  and  C_31
REMARK   13  A    between atoms: C_29  and  O_32
REMARK   14  A    between atoms: O_32  and  C_33
REMARK                            x       y       z     vdW  Elec       q    Type
REMARK                         _______ _______ _______ _____ _____    ______ ____
ROOT
ATOM      1  C   UNL     1       2.836  -6.191  -4.977  0.00  0.00    +0.098 C 
ATOM      2  C   UNL     1       1.904  -7.061  -5.779  0.00  0.00    +0.008 A 
ATOM      3  C   UNL     1       0.953  -6.471  -6.592  0.00  0.00    +0.012 A 
ATOM      4  C   UNL     1       0.090  -7.252  -7.334  0.00  0.00    +0.047 A 
ATOM      5  C   UNL     1       0.175  -8.636  -7.266  0.00  0.00    +0.135 A 
ATOM      6  C   UNL     1       1.126  -9.230  -6.453  0.00  0.00    +0.093 A 
ATOM      7  C   UNL     1       1.993  -8.442  -5.706  0.00  0.00    +0.138 A 
ATOM      8  O   UNL     1       2.918  -9.039  -4.915  0.00  0.00    -0.441 OA
ATOM      9  C   UNL     1       3.991  -8.346  -4.499  0.00  0.00    +0.199 C 
ATOM     10  C   UNL     1       4.014  -6.996  -4.503  0.00  0.00    +0.098 C 
ENDROOT
BRANCH   1  15
ATOM     11  C   UNL     1       1.287  -3.758  -2.536  0.00  0.00    +0.121 A 
ATOM     12  C   UNL     1       0.745  -4.621  -1.595  0.00  0.00    +0.045 A 
ATOM     13  C   UNL     1       0.881  -5.986  -1.752  0.00  0.00    +0.004 A 
ATOM     14  C   UNL     1       1.558  -6.493  -2.847  0.00  0.00    +0.005 A 
ATOM     15  C   UNL     1       2.099  -5.635  -3.786  0.00  0.00    -0.031 A 
ATOM     16  C   UNL     1       1.961  -4.269  -3.636  0.00  0.00    +0.050 A 
BRANCH  11  17
ATOM     17  O   UNL     1       1.154  -2.414  -2.384  0.00  0.00    -0.492 OA
BRANCH  17  18
ATOM     18  C   UNL     1       0.449  -1.959  -1.228  0.00  0.00    +0.229 C 
BRANCH  18  19
ATOM     19  C   UNL     1       0.401  -0.429  -1.228  0.00  0.00    +0.041 C 
BRANCH  19  21
ATOM     20  C   UNL     1      -0.402   1.587   0.009  0.00  0.00    +0.004 C 
ATOM     21  C   UNL     1      -0.354   0.058   0.010  0.00  0.00    -0.000 C 
ENDBRANCH  19  21
ENDBRANCH  18  19
ENDBRANCH  17  18
ENDBRANCH  11  17
ENDBRANCH   1  15
BRANCH   9  22
ATOM     22  N   UNL     1       5.096  -9.031  -4.056  0.00  0.00    -0.328 N 
ATOM     23  H   UNL     1       5.093 -10.001  -4.047  0.00  0.00    +0.145 HD
ATOM     24  H   UNL     1       5.878  -8.545  -3.753  0.00  0.00    +0.145 HD
ENDBRANCH   9  22
BRANCH  10  25
ATOM     25  C   UNL     1       5.189  -6.317  -4.046  0.00  0.00    +0.101 C 
ATOM     26  N   UNL     1       6.121  -5.779  -3.683  0.00  0.00    -0.191 NA
ENDBRANCH  10  25
BRANCH   5  27
ATOM     27  O   UNL     1      -0.674  -9.407  -7.996  0.00  0.00    -0.423 OA
BRANCH  27  28
ATOM     28  C   UNL     1      -1.564 -10.165  -7.334  0.00  0.00    +0.353 C 
ATOM     29  O   UNL     1      -1.656 -10.078  -6.133  0.00  0.00    -0.246 OA
BRANCH  28  30
ATOM     30  C   UNL     1      -2.447 -11.123  -8.091  0.00  0.00    +0.279 C 
ATOM     31  C   UNL     1      -3.386 -10.336  -9.007  0.00  0.00    +0.064 C 
BRANCH  30  32
ATOM     32  O   UNL     1      -3.218 -11.892  -7.165  0.00  0.00    -0.475 OA
BRANCH  32  33
ATOM     33  C   UNL     1      -3.501 -13.175  -7.514  0.00  0.00    +0.157 A 
ATOM     34  C   UNL     1      -3.162 -13.643  -8.775  0.00  0.00    +0.048 A 
ATOM     35  C   UNL     1      -3.450 -14.948  -9.127  0.00  0.00    +0.004 A 
ATOM     36  C   UNL     1      -4.077 -15.787  -8.226  0.00  0.00    +0.003 A 
ATOM     37  C   UNL     1      -4.418 -15.325  -6.968  0.00  0.00    +0.042 A 
ATOM     38  C   UNL     1      -4.125 -14.021  -6.607  0.00  0.00    +0.165 A 
ATOM     39  F   UNL     1      -4.452 -13.571  -5.376  0.00  0.00    -0.202 F 
ENDBRANCH  32  33
ENDBRANCH  30  32
ENDBRANCH  28  30
ENDBRANCH  27  28
ENDBRANCH   5  27
TORSDOF 12
