REMARK  Name = ZINC21230070
REMARK  3 active torsions:
REMARK  status: ('A' for Active; 'I' for Inactive)
REMARK    1  A    between atoms: C_5  and  C_7
REMARK    2  A    between atoms: C_12  and  C_22
REMARK    3  A    between atoms: C_26  and  N_28
REMARK                            x       y       z     vdW  Elec       q    Type
REMARK                         _______ _______ _______ _____ _____    ______ ____
ROOT
ATOM      1  C   UNL     1       4.193   5.298  -2.601  0.00  0.00    +0.033 C 
ATOM      2  C   UNL     1       3.825   5.196  -1.122  0.00  0.00    +0.059 C 
ATOM      3  C   UNL     1       3.259   3.818  -0.823  0.00  0.00    +0.017 C 
ATOM      4  C   UNL     1       3.694   2.741  -1.499  0.00  0.00    +0.036 C 
ATOM      5  C   UNL     1       3.225   1.320  -1.299  0.00  0.00    +0.136 C 
ATOM      6  N   UNL     1       2.423   1.113  -0.112  0.00  0.00    -0.331 N 
ATOM      7  C   UNL     1       1.174   1.718   0.025  0.00  0.00    +0.049 A 
ATOM      8  C   UNL     1       0.006   0.974   0.030  0.00  0.00    +0.025 A 
ATOM      9  C   UNL     1      -1.215   1.625   0.061  0.00  0.00    +0.002 A 
ATOM     10  C   UNL     1      -1.270   3.007   0.097  0.00  0.00    +0.002 A 
ATOM     11  C   UNL     1      -0.104   3.753   0.109  0.00  0.00    +0.025 A 
ATOM     12  C   UNL     1       1.117   3.102   0.089  0.00  0.00    +0.052 A 
ATOM     13  N   UNL     1       2.325   3.786   0.161  0.00  0.00    -0.316 N 
ATOM     14  C   UNL     1       4.671   2.884  -2.513  0.00  0.00    +0.163 C 
ATOM     15  O   UNL     1       5.064   1.890  -3.092  0.00  0.00    -0.292 OA
ATOM     16  C   UNL     1       5.239   4.217  -2.898  0.00  0.00    +0.088 C 
ATOM     17  H   UNL     1       2.795   0.469   0.699  0.00  0.00    +0.147 HD
ATOM     18  H   UNL     1       2.498   4.330   1.102  0.00  0.00    +0.152 HD
ENDROOT
BRANCH   1  23
ATOM     19  C   UNL     1       6.420   8.343  -2.480  0.00  0.00    +0.000 A 
ATOM     20  C   UNL     1       5.827   9.159  -3.425  0.00  0.00    +0.001 A 
ATOM     21  C   UNL     1       4.704   8.725  -4.104  0.00  0.00    +0.020 A 
ATOM     22  C   UNL     1       4.177   7.473  -3.842  0.00  0.00    +0.044 A 
ATOM     23  C   UNL     1       4.769   6.660  -2.892  0.00  0.00    -0.025 A 
ATOM     24  C   UNL     1       5.892   7.094  -2.213  0.00  0.00    +0.005 A 
ATOM     25 CL   UNL     1       2.771   6.924  -4.700  0.00  0.00    -0.083 Cl
ENDBRANCH   1  23
BRANCH   5  26
ATOM     26  C   UNL     1       2.414   0.910  -2.501  0.00  0.00    -0.021 A 
ATOM     27  C   UNL     1       1.232   1.566  -2.793  0.00  0.00    +0.007 A 
ATOM     28  C   UNL     1       0.491   1.194  -3.898  0.00  0.00    +0.022 A 
ATOM     29  C   UNL     1       0.926   0.159  -4.707  0.00  0.00    +0.071 A 
ATOM     30  C   UNL     1       2.106  -0.499  -4.412  0.00  0.00    +0.145 A 
ATOM     31  C   UNL     1       2.850  -0.123  -3.309  0.00  0.00    +0.040 A 
ATOM     32 CL   UNL     1      -0.008  -0.312  -6.092  0.00  0.00    -0.081 Cl
BRANCH  30  33
ATOM     33  N   UNL     1       2.572  -1.607  -5.276  0.00  0.00    +0.058 N 
ATOM     34  O   UNL     1       3.611  -2.187  -5.016  0.00  0.00    -0.126 OA
ATOM     35  O   UNL     1       1.917  -1.938  -6.248  0.00  0.00    -0.126 OA
ENDBRANCH  30  33
ENDBRANCH   5  26
TORSDOF 3
