REMARK  Name = ZINC03238266
REMARK  6 active torsions:
REMARK  status: ('A' for Active; 'I' for Inactive)
REMARK    1  A    between atoms: C_4  and  C_7
REMARK    2  A    between atoms: C_7  and  C_8
REMARK    3  A    between atoms: C_8  and  N_9
REMARK    4  A    between atoms: N_9  and  C_10
REMARK    5  A    between atoms: C_10  and  N_12
REMARK    6  A    between atoms: N_12  and  N_13
REMARK                            x       y       z     vdW  Elec       q    Type
REMARK                         _______ _______ _______ _____ _____    ______ ____
ROOT
ATOM      1  N   UNL     1       7.254  -2.611   2.521  0.00  0.00    -0.218 N 
ATOM      2  H   UNL     1       7.771  -2.668   3.340  0.00  0.00    +0.176 HD
ENDROOT
BRANCH   1   3
ATOM      3  N   UNL     1       7.777  -2.980   1.401  0.00  0.00    -0.177 NA
ATOM      4  C   UNL     1       8.938  -3.519   1.384  0.00  0.00    +0.137 C 
ATOM      5  C   UNL     1       9.720  -3.945   2.557  0.00  0.00    +0.014 A 
ATOM      6  C   UNL     1       9.492  -3.918   4.016  0.00  0.00    +0.011 A 
ATOM      7  C   UNL     1      10.420  -4.393   4.825  0.00  0.00    +0.001 A 
ATOM      8  C   UNL     1      11.687  -4.955   4.313  0.00  0.00    +0.008 A 
ATOM      9  C   UNL     1      11.887  -4.978   3.017  0.00  0.00    -0.017 A 
ATOM     10  C   UNL     1      10.840  -4.444   2.144  0.00  0.00    +0.002 A 
ATOM     11  C   UNL     1      10.990  -4.436   0.690  0.00  0.00    +0.032 A 
ATOM     12  C   UNL     1      12.097  -4.923   0.183  0.00  0.00    +0.012 A 
ATOM     13  C   UNL     1      13.163  -5.465   1.040  0.00  0.00    +0.001 A 
ATOM     14  C   UNL     1      13.095  -5.503   2.357  0.00  0.00    +0.008 A 
ATOM     15  C   UNL     1       9.745  -3.836   0.176  0.00  0.00    +0.214 C 
ATOM     16  O   UNL     1       9.447  -3.642  -0.976  0.00  0.00    -0.285 OA
ENDBRANCH   1   3
BRANCH   1  17
ATOM     17  C   UNL     1       5.990  -2.146   2.553  0.00  0.00    +0.150 C 
ATOM     18  S   UNL     1       5.295  -1.655   4.039  0.00  0.00    -0.017 S 
BRANCH  17  19
ATOM     19  N   UNL     1       5.272  -2.067   1.415  0.00  0.00    -0.325 N 
ATOM     20  H   UNL     1       5.665  -2.345   0.573  0.00  0.00    +0.148 HD
BRANCH  19  21
ATOM     21  C   UNL     1       3.897  -1.561   1.449  0.00  0.00    +0.108 C 
BRANCH  21  22
ATOM     22  C   UNL     1       3.313  -1.575   0.035  0.00  0.00    +0.054 C 
BRANCH  22  26
ATOM     23  C   UNL     1      -0.695  -0.101   0.134  0.00  0.00    +0.000 A 
ATOM     24  C   UNL     1       0.358   0.773  -0.059  0.00  0.00    +0.000 A 
ATOM     25  C   UNL     1       1.655   0.296  -0.091  0.00  0.00    +0.004 A 
ATOM     26  C   UNL     1       1.899  -1.055   0.071  0.00  0.00    -0.046 A 
ATOM     27  C   UNL     1       0.846  -1.929   0.265  0.00  0.00    +0.004 A 
ATOM     28  C   UNL     1      -0.451  -1.452   0.295  0.00  0.00    +0.000 A 
ENDBRANCH  22  26
ENDBRANCH  21  22
ENDBRANCH  19  21
ENDBRANCH  17  19
ENDBRANCH   1  17
TORSDOF 6
