REMARK  Name = ZINC00529269
REMARK  5 active torsions:
REMARK  status: ('A' for Active; 'I' for Inactive)
REMARK    1  A    between atoms: C_1  and  C_2
REMARK    2  A    between atoms: C_2  and  C_3
REMARK    3  A    between atoms: C_6  and  N_9
REMARK    4  A    between atoms: C_15  and  C_18
REMARK    5  A    between atoms: N_20  and  C_21
REMARK                            x       y       z     vdW  Elec       q    Type
REMARK                         _______ _______ _______ _____ _____    ______ ____
ROOT
ATOM      1  N   UNL     1      -5.320  -1.967   0.042  0.00  0.00    -0.289 N 
ATOM      2  C   UNL     1      -6.005  -2.105  -1.129  0.00  0.00    +0.177 C 
ATOM      3  N   UNL     1      -5.394  -1.880  -2.281  0.00  0.00    -0.151 NA
ATOM      4  C   UNL     1      -6.016  -1.981  -3.447  0.00  0.00    +0.241 C 
ATOM      5  O   UNL     1      -5.394  -1.787  -4.473  0.00  0.00    -0.274 OA
ATOM      6  C   UNL     1      -7.480  -2.332  -3.527  0.00  0.00    +0.129 C 
ATOM      7  C   UNL     1      -7.859  -3.164  -2.295  0.00  0.00    +0.167 C 
ATOM      8  N   UNL     1      -7.319  -2.480  -1.110  0.00  0.00    -0.307 N 
ATOM      9  H   UNL     1      -5.741  -2.209   0.882  0.00  0.00    +0.155 HD
ATOM     10  H   UNL     1      -7.880  -2.299  -0.340  0.00  0.00    +0.149 HD
ENDROOT
BRANCH   1  14
ATOM     11  C   UNL     1      -1.420  -0.503   0.015  0.00  0.00    -0.048 A 
ATOM     12  C   UNL     1      -2.336  -0.043  -0.913  0.00  0.00    +0.005 A 
ATOM     13  C   UNL     1      -3.630  -0.526  -0.906  0.00  0.00    +0.023 A 
ATOM     14  C   UNL     1      -4.011  -1.475   0.033  0.00  0.00    +0.033 A 
ATOM     15  C   UNL     1      -3.088  -1.935   0.964  0.00  0.00    +0.023 A 
ATOM     16  C   UNL     1      -1.794  -1.452   0.949  0.00  0.00    +0.005 A 
BRANCH  11  18
ATOM     17  C   UNL     1       0.855  -0.843  -0.909  0.00  0.00    +0.009 C 
ATOM     18  C   UNL     1      -0.009   0.027   0.005  0.00  0.00    +0.032 C 
ENDBRANCH  11  18
ENDBRANCH   1  14
BRANCH   7  19
ATOM     19  C   UNL     1      -7.258  -4.542  -2.404  0.00  0.00    +0.234 C 
ATOM     20  O   UNL     1      -6.239  -4.809  -1.801  0.00  0.00    -0.274 OA
ATOM     21  N   UNL     1      -7.851  -5.477  -3.171  0.00  0.00    -0.311 N 
ATOM     22  H   UNL     1      -8.665  -5.264  -3.653  0.00  0.00    +0.149 HD
BRANCH  21  23
ATOM     23  C   UNL     1      -7.267  -6.817  -3.277  0.00  0.00    +0.073 C 
ATOM     24  C   UNL     1      -6.190  -6.819  -4.364  0.00  0.00    +0.022 C 
ATOM     25  C   UNL     1      -5.580  -8.217  -4.475  0.00  0.00    +0.002 C 
ATOM     26  C   UNL     1      -6.673  -9.224  -4.838  0.00  0.00    +0.000 C 
ATOM     27  C   UNL     1      -7.750  -9.222  -3.751  0.00  0.00    +0.002 C 
ATOM     28  C   UNL     1      -8.360  -7.823  -3.640  0.00  0.00    +0.022 C 
ENDBRANCH  21  23
ENDBRANCH   7  19
TORSDOF 4
