REMARK  Name = ZINC43666613
REMARK  5 active torsions:
REMARK  status: ('A' for Active; 'I' for Inactive)
REMARK    1  A    between atoms: C_3  and  S_15
REMARK    2  A    between atoms: C_6  and  C_7
REMARK    3  A    between atoms: C_7  and  N_8
REMARK    4  A    between atoms: C_9  and  N_14
REMARK    5  A    between atoms: S_15  and  C_16
REMARK                            x       y       z     vdW  Elec       q    Type
REMARK                         _______ _______ _______ _____ _____    ______ ____
ROOT
ATOM      1  C   UNL     1      -0.017   1.379   0.010  0.00  0.00    +0.006 A 
ATOM      2  C   UNL     1       1.169   2.087   0.002  0.00  0.00    +0.015 A 
ATOM      3  C   UNL     1       2.381   1.409  -0.013  0.00  0.00    +0.016 A 
ATOM      4  C   UNL     1       2.396   0.019  -0.021  0.00  0.00    +0.015 A 
ATOM      5  C   UNL     1       1.207  -0.683  -0.013  0.00  0.00    +0.006 A 
ATOM      6  C   UNL     1       0.002  -0.004   0.002  0.00  0.00    -0.026 A 
ENDROOT
BRANCH   6   7
ATOM      7  C   UNL     1      -1.294  -0.773   0.010  0.00  0.00    +0.180 C 
BRANCH   7   8
ATOM      8  N   UNL     1      -1.727  -1.015  -1.368  0.00  0.00    -0.246 N 
ATOM      9  C   UNL     1      -2.519  -0.201  -2.112  0.00  0.00    +0.128 A 
ATOM     10  C   UNL     1      -2.680  -0.789  -3.330  0.00  0.00    +0.072 A 
ATOM     11  C   UNL     1      -1.966  -1.991  -3.324  0.00  0.00    +0.150 A 
ATOM     12  N   UNL     1      -1.392  -2.125  -2.155  0.00  0.00    -0.177 NA
ATOM     13  I   UNL     1      -3.799  -0.028  -4.930  0.00  0.00    -0.039 I 
BRANCH   9  14
ATOM     14  N   UNL     1      -3.067   1.013  -1.705  0.00  0.00    -0.343 N 
ATOM     15  H   UNL     1      -2.892   1.348  -0.811  0.00  0.00    +0.144 HD
ATOM     16  H   UNL     1      -3.623   1.523  -2.314  0.00  0.00    +0.144 HD
ENDBRANCH   9  14
ENDBRANCH   7   8
ENDBRANCH   6   7
BRANCH   3  17
ATOM     17  S   UNL     1       3.897   2.308  -0.023  0.00  0.00    -0.016 S 
BRANCH  17  18
ATOM     18  C   UNL     1       5.172   1.019  -0.042  0.00  0.00    +0.448 C 
ATOM     19  F   UNL     1       5.020   0.229  -1.187  0.00  0.00    -0.160 F 
ATOM     20  F   UNL     1       6.438   1.615  -0.051  0.00  0.00    -0.160 F 
ATOM     21  F   UNL     1       5.043   0.218   1.097  0.00  0.00    -0.160 F 
ENDBRANCH  17  18
ENDBRANCH   3  17
TORSDOF 5
