REMARK  Name = ZINC08845806
REMARK  10 active torsions:
REMARK  status: ('A' for Active; 'I' for Inactive)
REMARK    1  A    between atoms: C_1  and  C_2
REMARK    2  A    between atoms: C_8  and  C_28
REMARK    3  A    between atoms: C_10  and  C_15
REMARK    4  A    between atoms: C_11  and  O_14
REMARK    5  A    between atoms: C_15  and  C_17
REMARK    6  A    between atoms: C_24  and  C_27
REMARK    7  A    between atoms: C_31  and  C_34
REMARK    8  A    between atoms: C_34  and  C_35
REMARK    9  A    between atoms: C_34  and  C_36
REMARK   10  A    between atoms: C_34  and  C_37
REMARK                            x       y       z     vdW  Elec       q    Type
REMARK                         _______ _______ _______ _____ _____    ______ ____
ROOT
ATOM      1  C   UNL     1       7.902   0.702  -0.266  0.00  0.00    +0.075 C 
ATOM      2  C   UNL     1       6.412   0.480  -0.241  0.00  0.00    +0.101 A 
ATOM      3  N   UNL     1       5.720  -0.639  -0.336  0.00  0.00    -0.145 NA
ATOM      4  N   UNL     1       4.460  -0.655  -0.291  0.00  0.00    -0.125 NA
ATOM      5  C   UNL     1       3.751   0.458  -0.156  0.00  0.00    +0.191 A 
ATOM      6  S   UNL     1       5.075   1.659  -0.072  0.00  0.00    -0.035 S 
ATOM      7  N   UNL     1       2.375   0.638  -0.091  0.00  0.00    -0.231 N 
ATOM      8  C   UNL     1       1.361  -0.420  -0.170  0.00  0.00    +0.151 C 
ATOM      9  C   UNL     1       0.022   0.271  -0.053  0.00  0.00    +0.071 C 
ATOM     10  C   UNL     1       0.277   1.595   0.078  0.00  0.00    +0.189 C 
ATOM     11  C   UNL     1       1.737   1.813   0.054  0.00  0.00    +0.288 C 
ATOM     12  O   UNL     1       2.282   2.895   0.149  0.00  0.00    -0.266 OA
ENDROOT
BRANCH   8  13
ATOM     13  C   UNL     1       1.461  -1.136  -1.492  0.00  0.00    -0.022 A 
ATOM     14  C   UNL     1       1.656  -0.416  -2.655  0.00  0.00    +0.006 A 
ATOM     15  C   UNL     1       1.752  -1.074  -3.867  0.00  0.00    +0.004 A 
ATOM     16  C   UNL     1       1.643  -2.451  -3.917  0.00  0.00    -0.042 A 
ATOM     17  C   UNL     1       1.443  -3.171  -2.754  0.00  0.00    +0.004 A 
ATOM     18  C   UNL     1       1.351  -2.514  -1.541  0.00  0.00    +0.006 A 
BRANCH  16  19
ATOM     19  C   UNL     1       1.744  -3.168  -5.239  0.00  0.00    -0.013 C 
ATOM     20  C   UNL     1       0.449  -3.940  -5.500  0.00  0.00    +0.015 C 
ATOM     21  C   UNL     1       1.965  -2.147  -6.357  0.00  0.00    +0.015 C 
ATOM     22  C   UNL     1       2.921  -4.145  -5.201  0.00  0.00    +0.015 C 
ENDBRANCH  16  19
ENDBRANCH   8  13
BRANCH  10  23
ATOM     23  O   UNL     1      -0.659   2.564   0.206  0.00  0.00    -0.502 OA
ATOM     24  H   UNL     1      -0.209   3.453   0.286  0.00  0.00    +0.292 HD
ENDBRANCH  10  23
BRANCH   9  25
ATOM     25  C   UNL     1      -1.297  -0.367  -0.078  0.00  0.00    +0.195 C 
ATOM     26  O   UNL     1      -2.072  -0.129  -0.985  0.00  0.00    -0.287 OA
BRANCH  25  27
ATOM     27  C   UNL     1      -1.685  -1.301   0.998  0.00  0.00    +0.023 A 
ATOM     28  C   UNL     1      -0.832  -1.518   2.085  0.00  0.00    +0.015 A 
ATOM     29  C   UNL     1      -1.196  -2.385   3.087  0.00  0.00    +0.046 A 
ATOM     30  C   UNL     1      -2.418  -3.058   3.031  0.00  0.00    +0.124 A 
ATOM     31  C   UNL     1      -3.261  -2.842   1.944  0.00  0.00    -0.002 A 
ATOM     32  C   UNL     1      -2.912  -1.971   0.942  0.00  0.00    +0.019 A 
ATOM     33  C   UNL     1      -4.487  -3.710   2.154  0.00  0.00    +0.083 C 
ATOM     34  C   UNL     1      -4.001  -4.687   3.251  0.00  0.00    +0.175 C 
ATOM     35  O   UNL     1      -2.966  -3.938   3.910  0.00  0.00    -0.488 OA
ATOM     36  C   UNL     1      -3.433  -5.963   2.626  0.00  0.00    +0.052 C 
ENDBRANCH  25  27
ENDBRANCH   9  25
TORSDOF 5
