REMARK  Name = ZINC42746913
REMARK  4 active torsions:
REMARK  status: ('A' for Active; 'I' for Inactive)
REMARK    1  A    between atoms: C_1  and  C_2
REMARK    2  A    between atoms: C_6  and  C_19
REMARK    3  A    between atoms: N_9  and  S_10
REMARK    4  A    between atoms: S_10  and  C_13
REMARK                            x       y       z     vdW  Elec       q    Type
REMARK                         _______ _______ _______ _____ _____    ______ ____
ROOT
ATOM      1  C   UNL     1       0.124   1.513  -0.103  0.00  0.00    +0.026 C 
ATOM      2  C   UNL     1       0.078  -0.016  -0.053  0.00  0.00    +0.077 C 
ATOM      3  C   UNL     1      -1.378  -0.483   0.040  0.00  0.00    +0.021 C 
ATOM      4  C   UNL     1      -1.411  -2.001   0.230  0.00  0.00    +0.015 C 
ATOM      5  C   UNL     1      -0.700  -2.370   1.535  0.00  0.00    +0.090 C 
ATOM      6  C   UNL     1       0.763  -1.924   1.458  0.00  0.00    +0.122 C 
ATOM      7  N   UNL     1       0.808  -0.492   1.130  0.00  0.00    -0.173 NA
ENDROOT
BRANCH   5   8
ATOM      8  C   UNL     1      -0.762  -3.862   1.737  0.00  0.00    +0.215 C 
ATOM      9  O   UNL     1       0.262  -4.506   1.815  0.00  0.00    -0.276 OA
ATOM     10  N   UNL     1      -1.956  -4.480   1.831  0.00  0.00    -0.329 N 
ATOM     11  H   UNL     1      -2.776  -3.964   1.769  0.00  0.00    +0.145 HD
ATOM     12  H   UNL     1      -1.996  -5.440   1.962  0.00  0.00    +0.145 HD
ENDBRANCH   5   8
BRANCH   7  13
ATOM     13  S   UNL     1       1.660   0.565   2.077  0.00  0.00    +0.067 S 
ATOM     14  O   UNL     1       0.953   1.798   2.048  0.00  0.00    -0.152 OA
ATOM     15  O   UNL     1       1.950  -0.118   3.289  0.00  0.00    -0.152 OA
BRANCH  13  16
ATOM     16  C   UNL     1       3.205   0.852   1.279  0.00  0.00    +0.144 A 
ATOM     17  C   UNL     1       3.533   1.804   0.372  0.00  0.00    +0.038 A 
ATOM     18  C   UNL     1       4.822   1.840  -0.126  0.00  0.00    +0.030 A 
ATOM     19  C   UNL     1       5.720   0.920   0.308  0.00  0.00    +0.080 A 
ATOM     20  S   UNL     1       4.745  -0.032   1.461  0.00  0.00    -0.057 S 
ATOM     21 CL   UNL     1       7.387   0.725  -0.137  0.00  0.00    -0.076 Cl
ENDBRANCH  13  16
ENDBRANCH   7  13
TORSDOF 3
