REMARK  Name = ZINC36336425
REMARK  10 active torsions:
REMARK  status: ('A' for Active; 'I' for Inactive)
REMARK    1  A    between atoms: C_1  and  C_2
REMARK    2  A    between atoms: C_2  and  C_4
REMARK    3  A    between atoms: C_2  and  S_16
REMARK    4  A    between atoms: N_6  and  C_7
REMARK    5  A    between atoms: C_10  and  N_14
REMARK    6  A    between atoms: S_16  and  C_17
REMARK    7  A    between atoms: C_17  and  C_18
REMARK    8  A    between atoms: C_18  and  C_19
REMARK    9  A    between atoms: C_19  and  O_21
REMARK   10  A    between atoms: O_21  and  C_22
REMARK                            x       y       z     vdW  Elec       q    Type
REMARK                         _______ _______ _______ _____ _____    ______ ____
ROOT
ATOM      1  C   UNL     1      -1.002  -1.419  -0.918  0.00  0.00    +0.230 C 
ATOM      2  O   UNL     1      -1.131  -2.590  -0.626  0.00  0.00    -0.274 OA
ATOM      3  N   UNL     1      -2.090  -0.657  -1.144  0.00  0.00    -0.282 N 
ATOM      4  H   UNL     1      -1.991   0.294  -1.306  0.00  0.00    +0.155 HD
ENDROOT
BRANCH   3   5
ATOM      5  C   UNL     1      -3.366  -1.240  -1.147  0.00  0.00    +0.071 A 
ATOM      6  C   UNL     1      -4.106  -1.297   0.027  0.00  0.00    +0.065 A 
ATOM      7  C   UNL     1      -5.363  -1.871   0.025  0.00  0.00    +0.044 A 
ATOM      8  C   UNL     1      -5.886  -2.391  -1.152  0.00  0.00    +0.027 A 
ATOM      9  C   UNL     1      -5.146  -2.335  -2.326  0.00  0.00    +0.044 A 
ATOM     10  C   UNL     1      -3.892  -1.756  -2.325  0.00  0.00    +0.065 A 
ATOM     11 CL   UNL     1      -2.970  -1.678  -3.794  0.00  0.00    -0.082 Cl
ATOM     12 CL   UNL     1      -3.452  -0.647   1.498  0.00  0.00    -0.082 Cl
BRANCH   8  13
ATOM     13  N   UNL     1      -7.159  -2.973  -1.154  0.00  0.00    -0.358 N 
ATOM     14  H   UNL     1      -7.675  -3.012  -0.334  0.00  0.00    +0.142 HD
ATOM     15  H   UNL     1      -7.524  -3.336  -1.976  0.00  0.00    +0.142 HD
ENDBRANCH   8  13
ENDBRANCH   3   5
BRANCH   1  17
ATOM     16  C   UNL     1       0.747  -0.150   0.299  0.00  0.00    +0.029 C 
ATOM     17  C   UNL     1       0.375  -0.817  -1.027  0.00  0.00    +0.129 C 
BRANCH  17  18
ATOM     18  S   UNL     1       1.577  -2.122  -1.406  0.00  0.00    -0.148 S 
BRANCH  18  19
ATOM     19  C   UNL     1       3.135  -1.225  -1.653  0.00  0.00    +0.081 C 
BRANCH  19  20
ATOM     20  C   UNL     1       4.249  -2.220  -1.984  0.00  0.00    +0.131 C 
BRANCH  20  21
ATOM     21  C   UNL     1       5.543  -1.475  -2.189  0.00  0.00    +0.308 C 
ATOM     22  O   UNL     1       5.571  -0.272  -2.081  0.00  0.00    -0.251 OA
BRANCH  21  23
ATOM     23  O   UNL     1       6.664  -2.148  -2.491  0.00  0.00    -0.468 OA
ATOM     24  C   UNL     1       7.855  -1.378  -2.671  0.00  0.00    +0.280 C 
ENDBRANCH  21  23
ENDBRANCH  20  21
ENDBRANCH  19  20
ENDBRANCH  18  19
ENDBRANCH  17  18
ENDBRANCH   1  17
TORSDOF 8
