REMARK  Name = ZINC37938496
REMARK  4 active torsions:
REMARK  status: ('A' for Active; 'I' for Inactive)
REMARK    1  A    between atoms: C_5  and  C_7
REMARK    2  A    between atoms: C_7  and  C_9
REMARK    3  A    between atoms: C_7  and  N_11
REMARK    4  A    between atoms: N_11  and  C_12
REMARK                            x       y       z     vdW  Elec       q    Type
REMARK                         _______ _______ _______ _____ _____    ______ ____
ROOT
ATOM      1  C   UNL     1       1.229  -2.186  -0.022  0.00  0.00    +0.206 C 
ENDROOT
BRANCH   1   6
ATOM      2  C   UNL     1      -0.017   1.378   0.010  0.00  0.00    +0.000 A 
ATOM      3  C   UNL     1       1.171   2.086   0.002  0.00  0.00    +0.001 A 
ATOM      4  C   UNL     1       2.377   1.412  -0.013  0.00  0.00    +0.020 A 
ATOM      5  C   UNL     1       2.397   0.029  -0.021  0.00  0.00    +0.047 A 
ATOM      6  C   UNL     1       1.208  -0.679  -0.013  0.00  0.00    +0.005 A 
ATOM      7  C   UNL     1       0.002  -0.004   0.002  0.00  0.00    +0.008 A 
ATOM      8 CL   UNL     1       3.912  -0.818  -0.041  0.00  0.00    -0.083 Cl
ENDBRANCH   1   6
BRANCH   1   9
ATOM      9  C   UNL     1       1.370  -2.683   1.357  0.00  0.00    +0.090 C 
ATOM     10  N   UNL     1       1.479  -3.066   2.420  0.00  0.00    -0.194 NA
ENDBRANCH   1   9
BRANCH   1  11
ATOM     11  N   UNL     1      -0.022  -2.688  -0.596  0.00  0.00    -0.324 N 
ATOM     12  H   UNL     1      -0.824  -2.143  -0.563  0.00  0.00    +0.148 HD
BRANCH  11  13
ATOM     13  C   UNL     1      -0.061  -3.952  -1.190  0.00  0.00    +0.042 A 
ATOM     14  C   UNL     1       1.085  -4.736  -1.232  0.00  0.00    +0.024 A 
ATOM     15  C   UNL     1       1.043  -5.986  -1.820  0.00  0.00    +0.002 A 
ATOM     16  C   UNL     1      -0.137  -6.456  -2.366  0.00  0.00    +0.001 A 
ATOM     17  C   UNL     1      -1.280  -5.678  -2.326  0.00  0.00    +0.017 A 
ATOM     18  C   UNL     1      -1.247  -4.430  -1.735  0.00  0.00    +0.039 A 
ATOM     19 BR   UNL     1      -2.811  -3.369  -1.674  0.00  0.00    -0.048 Br
ENDBRANCH  11  13
ENDBRANCH   1  11
TORSDOF 4
