REMARK  Name = ZINC17446361
REMARK  7 active torsions:
REMARK  status: ('A' for Active; 'I' for Inactive)
REMARK    1  A    between atoms: C_5  and  S_7
REMARK    2  A    between atoms: S_7  and  N_10
REMARK    3  A    between atoms: N_10  and  C_11
REMARK    4  A    between atoms: C_11  and  C_12
REMARK    5  A    between atoms: C_12  and  C_13
REMARK    6  A    between atoms: N_15  and  N_16
REMARK    7  A    between atoms: C_17  and  C_19
REMARK                            x       y       z     vdW  Elec       q    Type
REMARK                         _______ _______ _______ _____ _____    ______ ____
ROOT
ATOM      1  C   UNL     1      -0.996   2.307   0.676  0.00  0.00    +0.230 C 
ATOM      2  O   UNL     1      -2.008   1.640   0.721  0.00  0.00    -0.274 OA
ATOM      3  N   UNL     1       0.207   1.717   0.820  0.00  0.00    -0.234 N 
ATOM      4  H   UNL     1       1.017   2.250   0.780  0.00  0.00    +0.173 HD
ENDROOT
BRANCH   3   5
ATOM      5  N   UNL     1       0.289   0.333   1.021  0.00  0.00    -0.230 N 
ATOM      6  C   UNL     1       1.492  -0.258   1.159  0.00  0.00    +0.267 C 
ATOM      7  O   UNL     1       2.508   0.410   1.109  0.00  0.00    -0.268 OA
ATOM      8  H   UNL     1      -0.521  -0.200   1.060  0.00  0.00    +0.173 HD
BRANCH   6   9
ATOM      9  C   UNL     1       1.578  -1.706   1.369  0.00  0.00    +0.076 A 
ATOM     10  C   UNL     1       2.696  -2.498   1.532  0.00  0.00    +0.024 A 
ATOM     11  C   UNL     1       2.513  -3.868   1.719  0.00  0.00    -0.036 A 
ATOM     12  C   UNL     1       1.229  -4.318   1.724  0.00  0.00    -0.006 A 
ATOM     13  S   UNL     1       0.263  -2.905   1.488  0.00  0.00    -0.088 S 
ATOM     14  C   UNL     1       1.157  -5.806   1.929  0.00  0.00    +0.043 C 
ATOM     15  C   UNL     1       2.584  -6.312   1.621  0.00  0.00    +0.010 C 
ATOM     16  C   UNL     1       3.438  -5.068   1.936  0.00  0.00    +0.036 C 
ENDBRANCH   6   9
ENDBRANCH   3   5
BRANCH   1  17
ATOM     17  C   UNL     1      -1.083   3.796   0.461  0.00  0.00    +0.114 C 
BRANCH  17  18
ATOM     18  C   UNL     1      -2.551   4.207   0.329  0.00  0.00    +0.115 C 
BRANCH  18  19
ATOM     19  N   UNL     1      -2.637   5.654   0.119  0.00  0.00    -0.189 NA
ATOM     20  H   UNL     1      -1.869   6.217   0.305  0.00  0.00    +0.148 HD
BRANCH  19  21
ATOM     21  S   UNL     1      -4.044   6.329  -0.435  0.00  0.00    +0.059 S 
ATOM     22  O   UNL     1      -3.824   7.731  -0.499  0.00  0.00    -0.153 OA
ATOM     23  O   UNL     1      -4.441   5.568  -1.567  0.00  0.00    -0.153 OA
BRANCH  21  28
ATOM     24  C   UNL     1      -7.330   5.068   1.502  0.00  0.00    +0.002 A 
ATOM     25  C   UNL     1      -7.195   5.658   2.746  0.00  0.00    +0.001 A 
ATOM     26  C   UNL     1      -6.098   6.453   3.018  0.00  0.00    +0.017 A 
ATOM     27  C   UNL     1      -5.135   6.658   2.046  0.00  0.00    +0.044 A 
ATOM     28  C   UNL     1      -5.270   6.067   0.803  0.00  0.00    +0.119 A 
ATOM     29  C   UNL     1      -6.370   5.277   0.530  0.00  0.00    +0.029 A 
ATOM     30 BR   UNL     1      -3.634   7.747   2.418  0.00  0.00    -0.048 Br
ENDBRANCH  21  28
ENDBRANCH  19  21
ENDBRANCH  18  19
ENDBRANCH  17  18
ENDBRANCH   1  17
TORSDOF 7
