REMARK  Name = ZINC20347529
REMARK  11 active torsions:
REMARK  status: ('A' for Active; 'I' for Inactive)
REMARK    1  A    between atoms: C_1  and  C_2
REMARK    2  A    between atoms: C_7  and  N_8
REMARK    3  A    between atoms: C_9  and  C_11
REMARK    4  A    between atoms: C_13  and  C_34
REMARK    5  A    between atoms: C_15  and  C_32
REMARK    6  A    between atoms: C_16  and  S_21
REMARK    7  A    between atoms: C_18  and  C_19
REMARK    8  A    between atoms: C_18  and  O_20
REMARK    9  A    between atoms: S_21  and  C_22
REMARK   10  A    between atoms: C_22  and  C_23
REMARK   11  A    between atoms: N_25  and  C_26
REMARK                            x       y       z     vdW  Elec       q    Type
REMARK                         _______ _______ _______ _____ _____    ______ ____
ROOT
ATOM      1  C   UNL     1      -0.216   1.464   0.567  0.00  0.00    +0.138 C 
ATOM      2  C   UNL     1       0.293   1.118  -0.834  0.00  0.00    +0.085 C 
ATOM      3  C   UNL     1      -0.709   1.549  -1.868  0.00  0.00    +0.065 C 
ATOM      4  C   UNL     1      -2.012   1.781  -1.562  0.00  0.00    +0.078 C 
ATOM      5  N   UNL     1      -2.483   1.643  -0.278  0.00  0.00    -0.310 N 
ATOM      6  C   UNL     1      -1.650   0.949   0.715  0.00  0.00    +0.140 C 
ATOM      7  C   UNL     1      -2.167   1.246   2.123  0.00  0.00    +0.064 C 
ATOM      8  H   UNL     1      -3.466   2.043   0.012  0.00  0.00    +0.149 HD
ENDROOT
BRANCH   2   9
ATOM      9  C   UNL     1       1.600   1.827  -1.080  0.00  0.00    -0.001 A 
ATOM     10  C   UNL     1       2.838   1.302  -1.248  0.00  0.00    +0.012 A 
ATOM     11  C   UNL     1       3.904   2.154  -1.467  0.00  0.00    +0.008 A 
ATOM     12  C   UNL     1       3.681   3.491  -1.497  0.00  0.00    +0.045 A 
ATOM     13  S   UNL     1       1.920   3.578  -1.218  0.00  0.00    -0.101 S 
ENDBRANCH   2   9
BRANCH   1  15
ATOM     14  N   UNL     1       0.624   3.509   1.677  0.00  0.00    -0.285 N 
ATOM     15  C   UNL     1      -0.194   2.959   0.758  0.00  0.00    +0.226 C 
ATOM     16  O   UNL     1      -0.912   3.667   0.084  0.00  0.00    -0.275 OA
ATOM     17  H   UNL     1       1.341   2.878   2.223  0.00  0.00    +0.155 HD
BRANCH  14  24
ATOM     18  C   UNL     1       3.035   4.861   2.352  0.00  0.00    +0.045 C 
ATOM     19  C   UNL     1       1.714   5.581   2.270  0.00  0.00    -0.029 A 
ATOM     20  C   UNL     1       1.650   6.938   2.520  0.00  0.00    +0.005 A 
ATOM     21  C   UNL     1       0.437   7.599   2.451  0.00  0.00    +0.000 A 
ATOM     22  C   UNL     1      -0.714   6.904   2.125  0.00  0.00    +0.002 A 
ATOM     23  C   UNL     1      -0.655   5.549   1.868  0.00  0.00    +0.023 A 
ATOM     24  C   UNL     1       0.561   4.883   1.937  0.00  0.00    +0.036 A 
ENDBRANCH  14  24
ENDBRANCH   1  15
BRANCH   6  25
ATOM     25  O   UNL     1      -1.685  -0.460   0.474  0.00  0.00    -0.371 OA
ATOM     26  H   UNL     1      -2.639  -1.005   0.537  0.00  0.00    +0.212 HD
ENDBRANCH   6  25
BRANCH   3  27
ATOM     27  C   UNL     1      -0.276   1.720  -3.222  0.00  0.00    +0.098 C 
ATOM     28  N   UNL     1       0.069   1.856  -4.296  0.00  0.00    -0.191 NA
ENDBRANCH   3  27
BRANCH   4  29
ATOM     29  S   UNL     1      -3.124   2.269  -2.840  0.00  0.00    -0.100 S 
BRANCH  29  30
ATOM     30  C   UNL     1      -4.652   2.429  -1.883  0.00  0.00    +0.171 C 
BRANCH  30  31
ATOM     31  C   UNL     1      -5.774   2.850  -2.796  0.00  0.00    +0.227 C 
ATOM     32  O   UNL     1      -5.562   3.026  -3.977  0.00  0.00    -0.275 OA
ATOM     33  N   UNL     1      -7.014   3.033  -2.300  0.00  0.00    -0.285 N 
ATOM     34  H   UNL     1      -7.188   2.963  -1.216  0.00  0.00    +0.155 HD
BRANCH  33  35
ATOM     35  C   UNL     1      -8.079   3.310  -3.164  0.00  0.00    +0.033 A 
ATOM     36  C   UNL     1      -9.104   4.154  -2.756  0.00  0.00    +0.023 A 
ATOM     37  C   UNL     1     -10.152   4.430  -3.612  0.00  0.00    +0.002 A 
ATOM     38  C   UNL     1     -10.186   3.859  -4.871  0.00  0.00    +0.000 A 
ATOM     39  C   UNL     1      -9.170   3.014  -5.278  0.00  0.00    +0.002 A 
ATOM     40  C   UNL     1      -8.117   2.738  -4.428  0.00  0.00    +0.023 A 
ENDBRANCH  33  35
ENDBRANCH  30  31
ENDBRANCH  29  30
ENDBRANCH   4  29
TORSDOF 9
