REMARK  Name = ZINC03840404
REMARK  6 active torsions:
REMARK  status: ('A' for Active; 'I' for Inactive)
REMARK    1  A    between atoms: C_1  and  C_2
REMARK    2  A    between atoms: C_7  and  C_9
REMARK    3  A    between atoms: C_9  and  O_10
REMARK    4  A    between atoms: O_10  and  C_11
REMARK    5  A    between atoms: C_19  and  C_34
REMARK    6  A    between atoms: C_28  and  C_33
REMARK                            x       y       z     vdW  Elec       q    Type
REMARK                         _______ _______ _______ _____ _____    ______ ____
ROOT
ATOM      1  C   UNL     1       3.672   3.457   0.154  0.00  0.00    +0.014 C 
ATOM      2  C   UNL     1       4.128   2.266   1.000  0.00  0.00    +0.043 C 
ATOM      3  C   UNL     1       5.648   2.194   0.998  0.00  0.00    +0.055 A 
ATOM      4  C   UNL     1       6.273   0.991   0.894  0.00  0.00    +0.014 A 
ATOM      5  S   UNL     1       7.987   1.441   0.942  0.00  0.00    -0.073 S 
ATOM      6  C   UNL     1       7.750   3.157   1.093  0.00  0.00    +0.116 A 
ATOM      7  N   UNL     1       6.442   3.255   1.095  0.00  0.00    -0.245 NA
ATOM      8  C   UNL     1       5.646  -0.352   0.770  0.00  0.00    +0.051 C 
ATOM      9  C   UNL     1       4.154  -0.243   1.141  0.00  0.00    -0.021 C 
ATOM     10  C   UNL     1       3.558   0.971   0.409  0.00  0.00    +0.045 C 
ATOM     11  C   UNL     1       2.060   0.953   0.629  0.00  0.00    +0.184 C 
ATOM     12  C   UNL     1       1.498  -0.336  -0.036  0.00  0.00    +0.044 C 
ATOM     13  C   UNL     1       1.949  -1.485   0.849  0.00  0.00    +0.008 C 
ATOM     14  C   UNL     1       3.478  -1.551   0.739  0.00  0.00    +0.008 C 
ATOM     15  C   UNL     1       0.002  -0.004   0.002  0.00  0.00    +0.101 C 
ATOM     16  C   UNL     1      -0.019   1.522   0.010  0.00  0.00    +0.311 C 
ATOM     17  O   UNL     1      -1.011   2.211   0.019  0.00  0.00    -0.251 OA
ATOM     18  O   UNL     1       1.264   1.982   0.001  0.00  0.00    -0.461 OA
ATOM     19  C   UNL     1      -0.707  -0.547  -1.241  0.00  0.00    +0.019 C 
ATOM     20  C   UNL     1       4.018  -0.043   2.652  0.00  0.00    +0.012 C 
ENDROOT
BRANCH   6  21
ATOM     21  C   UNL     1       8.782   4.250   1.194  0.00  0.00    +0.291 C 
BRANCH  21  22
ATOM     22  O   UNL     1       9.102   4.478   2.568  0.00  0.00    -0.485 OA
BRANCH  22  23
ATOM     23  C   UNL     1      10.023   5.440   2.836  0.00  0.00    +0.122 A 
ATOM     24  C   UNL     1      10.382   5.713   4.148  0.00  0.00    +0.046 A 
ATOM     25  C   UNL     1      11.319   6.691   4.419  0.00  0.00    +0.005 A 
ATOM     26  C   UNL     1      11.900   7.398   3.383  0.00  0.00    +0.020 A 
ATOM     27  C   UNL     1      11.545   7.128   2.073  0.00  0.00    +0.044 A 
ATOM     28  C   UNL     1      10.612   6.146   1.797  0.00  0.00    +0.065 A 
ATOM     29 CL   UNL     1      12.278   8.018   0.775  0.00  0.00    -0.083 Cl
ENDBRANCH  22  23
ENDBRANCH  21  22
ENDBRANCH   6  21
TORSDOF 3
