REMARK  Name = ZINC12864260
REMARK  6 active torsions:
REMARK  status: ('A' for Active; 'I' for Inactive)
REMARK    1  A    between atoms: C_1  and  C_2
REMARK    2  A    between atoms: C_12  and  N_67
REMARK    3  A    between atoms: C_17  and  C_18
REMARK    4  A    between atoms: C_17  and  N_67
REMARK    5  A    between atoms: C_24  and  C_36
REMARK    6  A    between atoms: C_28  and  C_35
REMARK                            x       y       z     vdW  Elec       q    Type
REMARK                         _______ _______ _______ _____ _____    ______ ____
ROOT
ATOM      1  N   UNL     1       1.587   2.690  -0.433  0.00  0.00    +0.385 N 
ATOM      2  H   UNL     1       1.989   2.996   0.461  0.00  0.00    -0.085 HD
ATOM      3  H   UNL     1       1.582   3.477  -1.093  0.00  0.00    -0.085 HD
ENDROOT
BRANCH   1  15
ATOM      4  C   UNL     1      -4.101   6.444   4.204  0.00  0.00    +0.044 C 
ATOM      5  C   UNL     1      -2.935   5.657   3.664  0.00  0.00    -0.050 A 
ATOM      6  C   UNL     1      -1.774   5.575   4.416  0.00  0.00    +0.005 A 
ATOM      7  C   UNL     1      -0.663   4.872   3.985  0.00  0.00    +0.026 A 
ATOM      8  C   UNL     1      -0.757   4.239   2.748  0.00  0.00    +0.047 A 
ATOM      9  C   UNL     1      -1.948   4.326   1.981  0.00  0.00    +0.003 A 
ATOM     10  C   UNL     1      -3.056   5.045   2.441  0.00  0.00    +0.013 A 
ATOM     11  C   UNL     1      -1.702   3.566   0.773  0.00  0.00    -0.021 A 
ATOM     12  C   UNL     1      -0.440   3.083   0.860  0.00  0.00    +0.006 A 
ATOM     13  N   UNL     1       0.128   3.479   2.038  0.00  0.00    -0.359 N 
ATOM     14  H   UNL     1       1.026   3.255   2.326  0.00  0.00    +0.166 HD
ATOM     15  C   UNL     1       0.202   2.233  -0.212  0.00  0.00    -0.024 C 
ATOM     16  C   UNL     1      -0.603   2.383  -1.507  0.00  0.00    -0.009 C 
ATOM     17  C   UNL     1      -2.088   2.152  -1.213  0.00  0.00    +0.003 C 
ATOM     18  C   UNL     1      -2.631   3.325  -0.390  0.00  0.00    +0.037 C 
ENDBRANCH   1  15
BRANCH   1  19
ATOM     19  C   UNL     1       2.405   1.595  -0.986  0.00  0.00    -0.067 C 
BRANCH  19  20
ATOM     20  C   UNL     1       3.834   2.098  -1.205  0.00  0.00    +0.088 C 
ATOM     21  C   UNL     1       4.763   0.927  -1.650  0.00  0.00    +0.046 C 
ATOM     22  C   UNL     1       3.848  -0.111  -2.308  0.00  0.00    +0.039 C 
ATOM     23  C   UNL     1       4.644  -0.950  -3.287  0.00  0.00    -0.064 C 
ATOM     24  C   UNL     1       4.641  -2.243  -3.162  0.00  0.00    -0.073 C 
ATOM     25  C   UNL     1       5.419  -3.144  -4.080  0.00  0.00    +0.030 C 
ATOM     26  C   UNL     1       6.643  -2.375  -4.593  0.00  0.00    +0.005 C 
ATOM     27  C   UNL     1       6.155  -1.113  -5.302  0.00  0.00    +0.011 C 
ATOM     28  C   UNL     1       5.399  -0.206  -4.353  0.00  0.00    -0.007 C 
ATOM     29  C   UNL     1       6.353   0.765  -3.654  0.00  0.00    +0.056 C 
ATOM     30  C   UNL     1       5.615   1.666  -2.698  0.00  0.00    +0.181 C 
ATOM     31  O   UNL     1       4.667   2.561  -3.343  0.00  0.00    -0.461 OA
ATOM     32  C   UNL     1       3.882   3.072  -2.367  0.00  0.00    +0.309 C 
ATOM     33  O   UNL     1       3.311   4.136  -2.414  0.00  0.00    -0.251 OA
ATOM     34  C   UNL     1       4.400   0.620  -5.165  0.00  0.00    +0.016 C 
ATOM     35  C   UNL     1       3.829  -2.863  -2.054  0.00  0.00    +0.039 C 
ENDBRANCH  19  20
ENDBRANCH   1  19
TORSDOF 3
