REMARK  Name = ZINC36146647
REMARK  13 active torsions:
REMARK  status: ('A' for Active; 'I' for Inactive)
REMARK    1  A    between atoms: C_1  and  O_2
REMARK    2  A    between atoms: O_2  and  C_3
REMARK    3  A    between atoms: C_6  and  C_9
REMARK    4  A    between atoms: C_12  and  C_15
REMARK    5  A    between atoms: C_15  and  N_16
REMARK    6  A    between atoms: N_16  and  C_17
REMARK    7  A    between atoms: N_16  and  C_25
REMARK    8  A    between atoms: C_17  and  C_18
REMARK    9  A    between atoms: C_25  and  C_26
REMARK   10  A    between atoms: C_26  and  C_28
REMARK   11  A    between atoms: C_26  and  O_36
REMARK   12  A    between atoms: C_28  and  O_29
REMARK   13  A    between atoms: O_29  and  C_30
REMARK                            x       y       z     vdW  Elec       q    Type
REMARK                         _______ _______ _______ _____ _____    ______ ____
ROOT
ATOM      1  N   UNL     1      -8.863  -5.392  -0.029  0.00  0.00    +0.387 N 
ATOM      2  H   UNL     1      -8.757  -5.331   0.973  0.00  0.00    -0.081 HD
ENDROOT
BRANCH   1   3
ATOM      3  C   UNL     1      -7.549  -5.246  -0.670  0.00  0.00    -0.030 C 
BRANCH   3   7
ATOM      4  C   UNL     1      -5.404  -2.285  -0.979  0.00  0.00    +0.091 C 
ATOM      5  N   UNL     1      -6.593  -1.802  -0.830  0.00  0.00    -0.089 NA
ATOM      6  O   UNL     1      -7.561  -2.799  -0.567  0.00  0.00    -0.392 OA
ATOM      7  C   UNL     1      -6.861  -3.986  -0.142  0.00  0.00    +0.194 C 
ATOM      8  C   UNL     1      -5.478  -3.791  -0.812  0.00  0.00    +0.104 C 
BRANCH   4  12
ATOM      9  C   UNL     1      -1.896  -0.043  -1.813  0.00  0.00    +0.120 A 
ATOM     10  C   UNL     1      -3.116   0.607  -1.670  0.00  0.00    +0.046 A 
ATOM     11  C   UNL     1      -4.256  -0.117  -1.399  0.00  0.00    +0.013 A 
ATOM     12  C   UNL     1      -4.186  -1.506  -1.269  0.00  0.00    -0.000 A 
ATOM     13  C   UNL     1      -2.957  -2.155  -1.414  0.00  0.00    +0.013 A 
ATOM     14  C   UNL     1      -1.822  -1.425  -1.690  0.00  0.00    +0.046 A 
BRANCH   9  16
ATOM     15  C   UNL     1      -0.921   2.091  -2.193  0.00  0.00    +0.277 C 
ATOM     16  O   UNL     1      -0.774   0.674  -2.079  0.00  0.00    -0.495 OA
ENDBRANCH   9  16
ENDBRANCH   4  12
ENDBRANCH   3   7
ENDBRANCH   1   3
BRANCH   1  17
ATOM     17  C   UNL     1      -9.756  -4.321  -0.493  0.00  0.00    -0.043 C 
BRANCH  17  18
ATOM     18  C   UNL     1      -9.977  -4.460  -1.977  0.00  0.00    -0.063 A 
ATOM     19  C   UNL     1      -9.087  -3.886  -2.865  0.00  0.00    +0.002 A 
ATOM     20  C   UNL     1      -9.289  -4.012  -4.226  0.00  0.00    +0.002 A 
ATOM     21  C   UNL     1     -10.383  -4.713  -4.701  0.00  0.00    +0.020 A 
ATOM     22  C   UNL     1     -11.274  -5.287  -3.813  0.00  0.00    +0.041 A 
ATOM     23  C   UNL     1     -11.067  -5.165  -2.450  0.00  0.00    +0.021 A 
ATOM     24 CL   UNL     1     -12.647  -6.167  -4.407  0.00  0.00    -0.084 Cl
ENDBRANCH  17  18
ENDBRANCH   1  17
BRANCH   1  25
ATOM     25  C   UNL     1      -9.438  -6.697  -0.382  0.00  0.00    -0.043 C 
BRANCH  25  26
ATOM     26  C   UNL     1     -10.732  -6.914   0.406  0.00  0.00    +0.135 C 
BRANCH  26  27
ATOM     27  O   UNL     1     -10.446  -6.889   1.806  0.00  0.00    -0.390 OA
ATOM     28  H   UNL     1      -9.821  -7.569   2.092  0.00  0.00    +0.210 HD
ENDBRANCH  26  27
BRANCH  26  29
ATOM     29  C   UNL     1     -11.335  -8.269   0.032  0.00  0.00    +0.258 C 
BRANCH  29  30
ATOM     30  O   UNL     1     -12.600  -8.421   0.678  0.00  0.00    -0.489 OA
BRANCH  30  31
ATOM     31  C   UNL     1     -13.274  -9.579   0.450  0.00  0.00    +0.121 A 
ATOM     32  C   UNL     1     -12.726 -10.551  -0.374  0.00  0.00    +0.045 A 
ATOM     33  C   UNL     1     -13.413 -11.727  -0.605  0.00  0.00    +0.004 A 
ATOM     34  C   UNL     1     -14.646 -11.937  -0.014  0.00  0.00    +0.000 A 
ATOM     35  C   UNL     1     -15.194 -10.969   0.807  0.00  0.00    +0.004 A 
ATOM     36  C   UNL     1     -14.509  -9.794   1.046  0.00  0.00    +0.045 A 
ENDBRANCH  30  31
ENDBRANCH  29  30
ENDBRANCH  26  29
ENDBRANCH  25  26
ENDBRANCH   1  25
TORSDOF 12
