REMARK  Name = ZINC09836261
REMARK  5 active torsions:
REMARK  status: ('A' for Active; 'I' for Inactive)
REMARK    1  A    between atoms: C_4  and  C_7
REMARK    2  A    between atoms: C_7  and  C_8
REMARK    3  A    between atoms: C_7  and  N_58
REMARK    4  A    between atoms: C_14  and  C_15
REMARK    5  A    between atoms: C_14  and  N_58
REMARK                            x       y       z     vdW  Elec       q    Type
REMARK                         _______ _______ _______ _____ _____    ______ ____
ROOT
ATOM      1  C   UNL     1      -0.014   1.209   0.009  0.00  0.00    +0.204 C 
ATOM      2  O   UNL     1       0.032   0.044  -0.327  0.00  0.00    -0.277 OA
ATOM      3  N   UNL     1       1.126   1.894   0.225  0.00  0.00    -0.256 N 
ATOM      4  C   UNL     1       1.123   3.292   0.364  0.00  0.00    +0.058 A 
ATOM      5  C   UNL     1       0.178   4.075  -0.268  0.00  0.00    +0.025 A 
ATOM      6  C   UNL     1       0.209   5.449  -0.113  0.00  0.00    +0.002 A 
ATOM      7  C   UNL     1       1.180   6.038   0.677  0.00  0.00    +0.002 A 
ATOM      8  C   UNL     1       2.124   5.260   1.321  0.00  0.00    +0.025 A 
ATOM      9  C   UNL     1       2.098   3.882   1.175  0.00  0.00    +0.055 A 
ATOM     10  N   UNL     1       3.036   3.075   1.829  0.00  0.00    -0.282 N 
ATOM     11  C   UNL     1       3.227   1.797   1.444  0.00  0.00    +0.241 C 
ATOM     12  O   UNL     1       4.055   1.116   2.010  0.00  0.00    -0.273 OA
ATOM     13  C   UNL     1       2.421   1.209   0.319  0.00  0.00    +0.118 C 
ATOM     14  C   UNL     1       3.185   1.353  -1.008  0.00  0.00    +0.036 C 
ATOM     15  C   UNL     1       3.899  -0.012  -1.181  0.00  0.00    +0.003 C 
ATOM     16  C   UNL     1       2.850  -1.019  -0.647  0.00  0.00    +0.003 C 
ATOM     17  C   UNL     1       2.204  -0.293   0.552  0.00  0.00    +0.036 C 
ATOM     18  H   UNL     1       3.554   3.438   2.565  0.00  0.00    +0.155 HD
ENDROOT
BRANCH   1  19
ATOM     19  C   UNL     1      -1.347   1.892   0.177  0.00  0.00    +0.017 C 
BRANCH  19  20
ATOM     20  N   UNL     1      -2.407   0.870   0.259  0.00  0.00    +0.392 N 
ATOM     21  H   UNL     1      -2.408   0.312  -0.604  0.00  0.00    -0.084 HD
ATOM     22  H   UNL     1      -2.226   0.257   1.062  0.00  0.00    -0.084 HD
BRANCH  20  23
ATOM     23  C   UNL     1      -3.725   1.511   0.424  0.00  0.00    -0.009 C 
BRANCH  23  27
ATOM     24  C   UNL     1      -5.285   2.572  -3.409  0.00  0.00    +0.000 A 
ATOM     25  C   UNL     1      -5.449   3.428  -2.335  0.00  0.00    +0.000 A 
ATOM     26  C   UNL     1      -4.944   3.084  -1.095  0.00  0.00    +0.002 A 
ATOM     27  C   UNL     1      -4.276   1.885  -0.928  0.00  0.00    -0.057 A 
ATOM     28  C   UNL     1      -4.107   1.033  -2.003  0.00  0.00    +0.002 A 
ATOM     29  C   UNL     1      -4.616   1.374  -3.243  0.00  0.00    +0.000 A 
ENDBRANCH  23  27
BRANCH  23  30
ATOM     30  C   UNL     1      -4.665   0.544   1.098  0.00  0.00    -0.057 A 
ATOM     31  C   UNL     1      -4.645  -0.794   0.752  0.00  0.00    +0.002 A 
ATOM     32  C   UNL     1      -5.503  -1.681   1.374  0.00  0.00    +0.000 A 
ATOM     33  C   UNL     1      -6.388  -1.228   2.336  0.00  0.00    +0.000 A 
ATOM     34  C   UNL     1      -6.411   0.111   2.678  0.00  0.00    +0.000 A 
ATOM     35  C   UNL     1      -5.549   0.997   2.059  0.00  0.00    +0.002 A 
ENDBRANCH  23  30
ENDBRANCH  20  23
ENDBRANCH  19  20
ENDBRANCH   1  19
TORSDOF 5
