REMARK  Name = ZINC24214742
REMARK  8 active torsions:
REMARK  status: ('A' for Active; 'I' for Inactive)
REMARK    1  A    between atoms: C_1  and  C_2
REMARK    2  A    between atoms: C_2  and  C_4
REMARK    3  A    between atoms: C_2  and  N_12
REMARK    4  A    between atoms: C_13  and  C_15
REMARK    5  A    between atoms: C_15  and  N_16
REMARK    6  A    between atoms: N_16  and  C_17
REMARK    7  A    between atoms: C_22  and  O_23
REMARK    8  A    between atoms: O_23  and  C_24
REMARK                            x       y       z     vdW  Elec       q    Type
REMARK                         _______ _______ _______ _____ _____    ______ ____
ROOT
ATOM      1  N   UNL     1       3.966   7.218   0.002  0.00  0.00    -0.307 N 
ATOM      2  C   UNL     1       3.743   5.889  -0.003  0.00  0.00    +0.231 C 
ATOM      3  O   UNL     1       4.678   5.117  -0.017  0.00  0.00    -0.274 OA
ATOM      4  H   UNL     1       3.118   7.918   0.014  0.00  0.00    +0.149 HD
ENDROOT
BRANCH   1   6
ATOM      5  C   UNL     1       5.875   7.783   1.423  0.00  0.00    +0.033 C 
ATOM      6  C   UNL     1       5.339   7.730  -0.009  0.00  0.00    +0.103 C 
BRANCH   6   7
ATOM      7  C   UNL     1       5.354   9.115  -0.602  0.00  0.00    +0.008 A 
ATOM      8  C   UNL     1       4.214   9.896  -0.561  0.00  0.00    +0.011 A 
ATOM      9  C   UNL     1       4.228  11.169  -1.100  0.00  0.00    +0.039 A 
ATOM     10  C   UNL     1       5.380  11.659  -1.691  0.00  0.00    +0.126 A 
ATOM     11  C   UNL     1       6.520  10.875  -1.738  0.00  0.00    +0.077 A 
ATOM     12  C   UNL     1       6.507   9.603  -1.193  0.00  0.00    +0.131 A 
ATOM     13  F   UNL     1       7.619   8.837  -1.238  0.00  0.00    -0.205 F 
ATOM     14  F   UNL     1       5.392  12.901  -2.222  0.00  0.00    -0.205 F 
ENDBRANCH   6   7
ENDBRANCH   1   6
BRANCH   2  15
ATOM     15  C   UNL     1       2.331   5.362   0.008  0.00  0.00    +0.197 C 
BRANCH  15  16
ATOM     16  N   UNL     1       2.356   3.898   0.000  0.00  0.00    -0.333 N 
ATOM     17  H   UNL     1       3.317   3.364  -0.012  0.00  0.00    +0.147 HD
BRANCH  16  18
ATOM     18  C   UNL     1       1.156   3.177   0.008  0.00  0.00    +0.071 A 
ATOM     19  C   UNL     1      -0.058   3.848   0.023  0.00  0.00    +0.046 A 
ATOM     20  C   UNL     1      -1.243   3.134   0.031  0.00  0.00    +0.043 A 
ATOM     21  C   UNL     1      -1.220   1.751   0.017  0.00  0.00    +0.024 A 
ATOM     22  C   UNL     1      -0.013   1.076   0.008  0.00  0.00    +0.049 A 
ATOM     23  C   UNL     1       1.177   1.784   0.000  0.00  0.00    +0.141 A 
ATOM     24 CL   UNL     1      -2.761   3.975   0.050  0.00  0.00    -0.083 Cl
BRANCH  23  25
ATOM     25  O   UNL     1       2.365   1.121  -0.015  0.00  0.00    -0.493 OA
ATOM     26  C   UNL     1       2.311  -0.307  -0.023  0.00  0.00    +0.277 C 
ENDBRANCH  23  25
ENDBRANCH  16  18
ENDBRANCH  15  16
ENDBRANCH   2  15
TORSDOF 6
