REMARK  Name = ZINC39531818
REMARK  7 active torsions:
REMARK  status: ('A' for Active; 'I' for Inactive)
REMARK    1  A    between atoms: C_1  and  C_2
REMARK    2  A    between atoms: C_5  and  C_8
REMARK    3  A    between atoms: C_8  and  C_10
REMARK    4  A    between atoms: C_8  and  N_19
REMARK    5  A    between atoms: C_10  and  N_11
REMARK    6  A    between atoms: N_11  and  C_12
REMARK    7  A    between atoms: C_17  and  O_18
REMARK                            x       y       z     vdW  Elec       q    Type
REMARK                         _______ _______ _______ _____ _____    ______ ____
ROOT
ATOM      1  C   UNL     1       0.059  -4.275  -0.021  0.00  0.00    +0.104 C 
ENDROOT
BRANCH   1   2
ATOM      2  N   UNL     1       1.050  -4.758   0.950  0.00  0.00    -0.290 NA
ATOM      3  C   UNL     1       0.676  -4.374   2.318  0.00  0.00    +0.100 C 
ATOM      4  C   UNL     1       1.689  -4.962   3.304  0.00  0.00    +0.097 C 
ATOM      5  N   UNL     1       3.034  -4.471   2.972  0.00  0.00    -0.302 NA
ATOM      6  C   UNL     1       3.408  -4.855   1.604  0.00  0.00    +0.136 C 
ATOM      7  C   UNL     1       2.395  -4.267   0.618  0.00  0.00    +0.115 C 
ATOM      8 BR   UNL     1       5.201  -4.160   1.195  0.00  0.00    -0.070 Br
ATOM      9  H   UNL     1       3.095  -3.472   3.098  0.00  0.00    +0.123 HD
ENDBRANCH   1   2
BRANCH   1  14
ATOM     10  C   UNL     1      -0.398   1.471   0.381  0.00  0.00    +0.044 C 
ATOM     11  C   UNL     1      -0.278  -0.027   0.276  0.00  0.00    -0.050 A 
ATOM     12  C   UNL     1       0.322  -0.597  -0.831  0.00  0.00    +0.003 A 
ATOM     13  C   UNL     1       0.431  -1.972  -0.927  0.00  0.00    +0.005 A 
ATOM     14  C   UNL     1      -0.059  -2.777   0.084  0.00  0.00    -0.029 A 
ATOM     15  C   UNL     1      -0.659  -2.207   1.191  0.00  0.00    +0.005 A 
ATOM     16  C   UNL     1      -0.764  -0.832   1.289  0.00  0.00    +0.003 A 
ENDBRANCH   1  14
BRANCH   1  17
ATOM     17  C   UNL     1      -1.298  -4.916   0.274  0.00  0.00    +0.125 C 
BRANCH  17  18
ATOM     18  N   UNL     1      -1.157  -6.374   0.289  0.00  0.00    -0.339 N 
ATOM     19  H   UNL     1      -0.291  -6.779   0.125  0.00  0.00    +0.146 HD
BRANCH  18  20
ATOM     20  C   UNL     1      -2.271  -7.183   0.540  0.00  0.00    +0.069 A 
ATOM     21  C   UNL     1      -3.512  -6.606   0.769  0.00  0.00    +0.026 A 
ATOM     22  C   UNL     1      -4.611  -7.406   1.017  0.00  0.00    +0.002 A 
ATOM     23  C   UNL     1      -4.478  -8.782   1.036  0.00  0.00    +0.004 A 
ATOM     24  C   UNL     1      -3.244  -9.365   0.809  0.00  0.00    +0.047 A 
ATOM     25  C   UNL     1      -2.139  -8.570   0.555  0.00  0.00    +0.138 A 
BRANCH  25  26
ATOM     26  O   UNL     1      -0.926  -9.141   0.326  0.00  0.00    -0.505 OA
ATOM     27  H   UNL     1      -0.400  -9.280   1.125  0.00  0.00    +0.292 HD
ENDBRANCH  25  26
ENDBRANCH  18  20
ENDBRANCH  17  18
ENDBRANCH   1  17
TORSDOF 6
