REMARK  Name = ZINC56956033
REMARK  7 active torsions:
REMARK  status: ('A' for Active; 'I' for Inactive)
REMARK    1  A    between atoms: C_1  and  C_2
REMARK    2  A    between atoms: C_5  and  O_27
REMARK    3  A    between atoms: C_7  and  C_24
REMARK    4  A    between atoms: C_7  and  C_25
REMARK    5  A    between atoms: C_14  and  C_16
REMARK    6  A    between atoms: C_16  and  C_17
REMARK    7  A    between atoms: C_25  and  O_26
REMARK                            x       y       z     vdW  Elec       q    Type
REMARK                         _______ _______ _______ _____ _____    ______ ____
ROOT
ATOM      1  C   UNL     1      -0.239   1.445   0.509  0.00  0.00    +0.012 C 
ATOM      2  C   UNL     1      -0.153  -0.087   0.436  0.00  0.00    -0.022 C 
ATOM      3  C   UNL     1       0.193  -0.500  -0.992  0.00  0.00    +0.010 C 
ATOM      4  C   UNL     1       1.563   0.063  -1.372  0.00  0.00    +0.032 C 
ATOM      5  C   UNL     1       2.643  -0.452  -0.434  0.00  0.00    +0.123 C 
ATOM      6  C   UNL     1       2.317  -0.227   1.037  0.00  0.00    +0.020 C 
ATOM      7  C   UNL     1       0.893  -0.646   1.397  0.00  0.00    +0.006 C 
ATOM      8  C   UNL     1       0.831  -2.177   1.440  0.00  0.00    +0.009 C 
ATOM      9  C   UNL     1      -0.555  -2.690   1.843  0.00  0.00    +0.031 C 
ATOM     10  C   UNL     1      -1.563  -2.082   0.893  0.00  0.00    -0.073 C 
ATOM     11  C   UNL     1      -2.382  -2.816   0.192  0.00  0.00    +0.008 C 
ATOM     12  C   UNL     1      -1.558  -0.577   0.815  0.00  0.00    +0.024 C 
ATOM     13  C   UNL     1       3.327  -1.068   1.855  0.00  0.00    +0.016 C 
ENDROOT
BRANCH   5  14
ATOM     14  O   UNL     1       2.879  -1.841  -0.678  0.00  0.00    -0.391 OA
ATOM     15  H   UNL     1       3.171  -2.039  -1.578  0.00  0.00    +0.210 HD
ENDBRANCH   5  14
BRANCH  12  16
ATOM     16  C   UNL     1      -2.597  -0.087  -0.188  0.00  0.00    +0.036 C 
BRANCH  16  17
ATOM     17  C   UNL     1      -3.974  -0.481   0.282  0.00  0.00    -0.011 C 
ATOM     18  C   UNL     1      -4.930   0.458   0.430  0.00  0.00    +0.058 C 
ATOM     19  C   UNL     1      -6.330   0.273   0.882  0.00  0.00    +0.053 C 
ATOM     20  C   UNL     1      -6.894   1.478   0.871  0.00  0.00    +0.200 C 
ATOM     21  O   UNL     1      -6.035   2.431   0.467  0.00  0.00    -0.430 OA
ATOM     22  C   UNL     1      -4.824   1.916   0.185  0.00  0.00    +0.344 C 
ATOM     23  O   UNL     1      -3.843   2.523  -0.198  0.00  0.00    -0.245 OA
ENDBRANCH  16  17
ENDBRANCH  12  16
BRANCH   6  24
ATOM     24  C   UNL     1       2.610   1.229   1.421  0.00  0.00    +0.165 C 
BRANCH  24  25
ATOM     25  O   UNL     1       4.014   1.473   1.325  0.00  0.00    -0.394 OA
ATOM     26  H   UNL     1       4.273   2.377   1.554  0.00  0.00    +0.209 HD
ENDBRANCH  24  25
ENDBRANCH   6  24
TORSDOF 5
