REMARK  Name = ZINC06156129
REMARK  6 active torsions:
REMARK  status: ('A' for Active; 'I' for Inactive)
REMARK    1  A    between atoms: C_1  and  C_2
REMARK    2  A    between atoms: C_2  and  C_3
REMARK    3  A    between atoms: C_10  and  N_15
REMARK    4  A    between atoms: C_11  and  C_12
REMARK    5  A    between atoms: N_15  and  S_16
REMARK    6  A    between atoms: S_16  and  C_19
REMARK                            x       y       z     vdW  Elec       q    Type
REMARK                         _______ _______ _______ _____ _____    ______ ____
ROOT
ATOM      1  C   UNL     1      -0.750   1.591  -1.235  0.00  0.00    -0.006 C 
ATOM      2  C   UNL     1      -0.013   1.086   0.008  0.00  0.00    +0.008 C 
ATOM      3  C   UNL     1      -0.725   1.577   1.269  0.00  0.00    +0.037 C 
ATOM      4  C   UNL     1      -2.199   1.208   1.177  0.00  0.00    -0.023 A 
ATOM      5  C   UNL     1      -2.764   0.894  -0.007  0.00  0.00    -0.004 A 
ATOM      6  S   UNL     1      -4.456   0.543   0.376  0.00  0.00    -0.076 S 
ATOM      7  C   UNL     1      -4.417   0.808   2.088  0.00  0.00    +0.098 A 
ATOM      8  C   UNL     1      -3.094   1.163   2.322  0.00  0.00    +0.069 A 
ATOM      9  C   UNL     1      -2.094   0.857  -1.346  0.00  0.00    +0.046 C 
ENDROOT
BRANCH   8  10
ATOM     10  C   UNL     1      -2.620   1.479   3.671  0.00  0.00    +0.244 C 
ATOM     11  O   UNL     1      -2.177   0.597   4.383  0.00  0.00    -0.270 OA
ATOM     12  N   UNL     1      -2.674   2.748   4.124  0.00  0.00    -0.325 N 
ATOM     13  H   UNL     1      -3.026   3.451   3.557  0.00  0.00    +0.145 HD
ATOM     14  H   UNL     1      -2.359   2.957   5.018  0.00  0.00    +0.145 HD
ENDBRANCH   8  10
BRANCH   1  16
ATOM     15  C   UNL     1      -0.587   1.926  -3.706  0.00  0.00    +0.004 C 
ATOM     16  C   UNL     1       0.092   1.310  -2.481  0.00  0.00    +0.000 C 
ENDBRANCH   1  16
BRANCH   7  17
ATOM     17  N   UNL     1      -5.450   0.695   2.999  0.00  0.00    -0.209 N 
ATOM     18  H   UNL     1      -5.290   0.873   3.939  0.00  0.00    +0.174 HD
BRANCH  17  19
ATOM     19  S   UNL     1      -6.961   0.253   2.486  0.00  0.00    +0.073 S 
ATOM     20  O   UNL     1      -7.784   0.199   3.644  0.00  0.00    -0.150 OA
ATOM     21  O   UNL     1      -7.269   1.079   1.371  0.00  0.00    -0.150 OA
BRANCH  19  22
ATOM     22  C   UNL     1      -6.843  -1.395   1.875  0.00  0.00    +0.109 A 
ATOM     23  C   UNL     1      -6.555  -1.619   0.541  0.00  0.00    +0.030 A 
ATOM     24  C   UNL     1      -6.458  -2.912   0.063  0.00  0.00    +0.017 A 
ATOM     25  C   UNL     1      -6.659  -3.982   0.916  0.00  0.00    +0.018 A 
ATOM     26  C   UNL     1      -6.952  -3.758   2.249  0.00  0.00    +0.017 A 
ATOM     27  C   UNL     1      -7.044  -2.464   2.728  0.00  0.00    +0.030 A 
ATOM     28 BR   UNL     1      -6.532  -5.751   0.260  0.00  0.00    -0.050 Br
ENDBRANCH  19  22
ENDBRANCH  17  19
ENDBRANCH   7  17
TORSDOF 5
