REMARK  Name = ZINC39974636
REMARK  8 active torsions:
REMARK  status: ('A' for Active; 'I' for Inactive)
REMARK    1  A    between atoms: C_1  and  C_2
REMARK    2  A    between atoms: C_2  and  C_4
REMARK    3  A    between atoms: C_2  and  N_14
REMARK    4  A    between atoms: N_14  and  C_15
REMARK    5  A    between atoms: C_15  and  N_17
REMARK    6  A    between atoms: N_17  and  C_18
REMARK    7  A    between atoms: C_21  and  S_24
REMARK    8  A    between atoms: S_24  and  N_27
REMARK                            x       y       z     vdW  Elec       q    Type
REMARK                         _______ _______ _______ _____ _____    ______ ____
ROOT
ATOM      1  N   UNL     1      -3.293  -1.122   1.190  0.00  0.00    -0.297 N 
ATOM      2  H   UNL     1      -3.719  -0.715   0.420  0.00  0.00    +0.154 HD
ENDROOT
BRANCH   1   3
ATOM      3  C   UNL     1      -4.029  -1.350   2.358  0.00  0.00    +0.033 A 
ATOM      4  C   UNL     1      -3.494  -1.014   3.595  0.00  0.00    +0.025 A 
ATOM      5  C   UNL     1      -4.223  -1.240   4.745  0.00  0.00    +0.030 A 
ATOM      6  C   UNL     1      -5.485  -1.800   4.667  0.00  0.00    +0.109 A 
ATOM      7  C   UNL     1      -6.021  -2.135   3.438  0.00  0.00    +0.030 A 
ATOM      8  C   UNL     1      -5.299  -1.907   2.283  0.00  0.00    +0.025 A 
BRANCH   6   9
ATOM      9  S   UNL     1      -6.412  -2.087   6.138  0.00  0.00    +0.075 S 
ATOM     10  O   UNL     1      -7.339  -3.122   5.838  0.00  0.00    -0.150 OA
ATOM     11  O   UNL     1      -5.470  -2.192   7.197  0.00  0.00    -0.150 OA
BRANCH   9  12
ATOM     12  N   UNL     1      -7.303  -0.723   6.430  0.00  0.00    -0.202 N 
ATOM     13  C   UNL     1      -6.852   0.420   7.228  0.00  0.00    +0.136 C 
ATOM     14  C   UNL     1      -8.022   1.417   7.201  0.00  0.00    +0.058 C 
ATOM     15  C   UNL     1      -9.081   0.738   6.361  0.00  0.00    -0.023 A 
ATOM     16  C   UNL     1      -8.592  -0.491   5.946  0.00  0.00    +0.054 A 
ATOM     17  C   UNL     1      -9.396  -1.304   5.146  0.00  0.00    +0.025 A 
ATOM     18  C   UNL     1     -10.656  -0.885   4.772  0.00  0.00    +0.002 A 
ATOM     19  C   UNL     1     -11.132   0.344   5.189  0.00  0.00    +0.000 A 
ATOM     20  C   UNL     1     -10.345   1.152   5.989  0.00  0.00    +0.005 A 
ENDBRANCH   9  12
ENDBRANCH   6   9
ENDBRANCH   1   3
BRANCH   1  21
ATOM     21  C   UNL     1      -1.992  -1.468   1.136  0.00  0.00    +0.135 C 
ATOM     22  S   UNL     1      -1.211  -2.085   2.529  0.00  0.00    -0.019 S 
BRANCH  21  23
ATOM     23  N   UNL     1      -1.305  -1.327  -0.015  0.00  0.00    -0.320 N 
ATOM     24  H   UNL     1      -1.747  -0.977  -0.804  0.00  0.00    +0.148 HD
BRANCH  23  26
ATOM     25  C   UNL     1       0.969  -0.534   0.410  0.00  0.00    +0.033 C 
ATOM     26  C   UNL     1       0.110  -1.703  -0.074  0.00  0.00    +0.099 C 
BRANCH  26  27
ATOM     27  C   UNL     1       0.480  -2.044  -1.495  0.00  0.00    -0.027 A 
ATOM     28  C   UNL     1      -0.025  -1.273  -2.540  0.00  0.00    +0.006 A 
ATOM     29  C   UNL     1       0.289  -1.554  -3.834  0.00  0.00    +0.009 A 
ATOM     30  C   UNL     1       1.136  -2.637  -4.125  0.00  0.00    -0.018 A 
ATOM     31  C   UNL     1       1.483  -2.958  -5.448  0.00  0.00    +0.008 A 
ATOM     32  C   UNL     1       2.306  -4.014  -5.691  0.00  0.00    +0.001 A 
ATOM     33  C   UNL     1       2.812  -4.785  -4.646  0.00  0.00    +0.001 A 
ATOM     34  C   UNL     1       2.497  -4.504  -3.352  0.00  0.00    +0.008 A 
ATOM     35  C   UNL     1       1.650  -3.421  -3.062  0.00  0.00    -0.018 A 
ATOM     36  C   UNL     1       1.307  -3.097  -1.738  0.00  0.00    +0.014 A 
ENDBRANCH  26  27
ENDBRANCH  23  26
ENDBRANCH  21  23
ENDBRANCH   1  21
TORSDOF 7
