REMARK  Name = ZINC38971798
REMARK  8 active torsions:
REMARK  status: ('A' for Active; 'I' for Inactive)
REMARK    1  A    between atoms: C_1  and  C_2
REMARK    2  A    between atoms: C_2  and  C_3
REMARK    3  A    between atoms: C_3  and  C_4
REMARK    4  A    between atoms: C_4  and  C_5
REMARK    5  A    between atoms: C_5  and  N_6
REMARK    6  A    between atoms: N_6  and  C_7
REMARK    7  A    between atoms: N_10  and  S_11
REMARK    8  A    between atoms: S_11  and  C_14
REMARK                            x       y       z     vdW  Elec       q    Type
REMARK                         _______ _______ _______ _____ _____    ______ ____
ROOT
ATOM      1  C   UNL     1       2.227  -4.540   3.643  0.00  0.00    +0.219 C 
ATOM      2  C   UNL     1       1.352  -5.602   4.269  0.00  0.00    +0.188 C 
ATOM      3  N   UNL     1       0.145  -5.316   4.661  0.00  0.00    -0.110 NA
ATOM      4  N   UNL     1       1.838  -6.844   4.415  0.00  0.00    -0.226 NA
ATOM      5  C   UNL     1       3.056  -7.159   4.027  0.00  0.00    +0.089 A 
ATOM      6  C   UNL     1       3.538  -8.482   4.196  0.00  0.00    +0.030 A 
ATOM      7  C   UNL     1       4.787  -8.810   3.800  0.00  0.00    +0.002 A 
ATOM      8  C   UNL     1       5.664  -7.885   3.210  0.00  0.00    +0.002 A 
ATOM      9  C   UNL     1       5.306  -6.599   3.002  0.00  0.00    +0.027 A 
ATOM     10  C   UNL     1       3.962  -6.161   3.406  0.00  0.00    +0.063 A 
ATOM     11  N   UNL     1       3.582  -4.929   3.220  0.00  0.00    -0.362 N 
ATOM     12  H   UNL     1       4.179  -4.282   2.813  0.00  0.00    +0.162 HD
ENDROOT
BRANCH   3  13
ATOM     13  S   UNL     1      -0.803  -6.488   5.346  0.00  0.00    +0.100 S 
ATOM     14  O   UNL     1      -1.065  -7.444   4.328  0.00  0.00    -0.146 OA
ATOM     15  O   UNL     1      -0.190  -6.837   6.580  0.00  0.00    -0.146 OA
BRANCH  13  16
ATOM     16  C   UNL     1      -2.348  -5.741   5.745  0.00  0.00    +0.113 A 
ATOM     17  C   UNL     1      -2.532  -5.151   6.981  0.00  0.00    +0.032 A 
ATOM     18  C   UNL     1      -3.743  -4.564   7.295  0.00  0.00    +0.040 A 
ATOM     19  C   UNL     1      -4.774  -4.568   6.370  0.00  0.00    +0.124 A 
ATOM     20  C   UNL     1      -4.589  -5.159   5.132  0.00  0.00    +0.040 A 
ATOM     21  C   UNL     1      -3.375  -5.740   4.818  0.00  0.00    +0.032 A 
ATOM     22  F   UNL     1      -5.958  -3.995   6.676  0.00  0.00    -0.205 F 
ENDBRANCH  13  16
ENDBRANCH   3  13
BRANCH   1  23
ATOM     23  N   UNL     1       1.523  -4.016   2.465  0.00  0.00    -0.291 NA
ATOM     24  H   UNL     1       0.587  -4.390   2.406  0.00  0.00    +0.124 HD
BRANCH  23  25
ATOM     25  C   UNL     1       1.503  -2.548   2.473  0.00  0.00    +0.083 C 
BRANCH  25  26
ATOM     26  C   UNL     1       0.763  -2.041   1.233  0.00  0.00    +0.015 C 
BRANCH  26  27
ATOM     27  C   UNL     1       0.742  -0.511   1.242  0.00  0.00    +0.001 C 
BRANCH  27  29
ATOM     28  C   UNL     1      -0.019   1.526   0.010  0.00  0.00    +0.004 C 
ATOM     29  C   UNL     1       0.002  -0.004   0.002  0.00  0.00    -0.003 C 
ENDBRANCH  27  29
ENDBRANCH  26  27
ENDBRANCH  25  26
ENDBRANCH  23  25
ENDBRANCH   1  23
TORSDOF 7
