REMARK  Name = ZINC53405142
REMARK  9 active torsions:
REMARK  status: ('A' for Active; 'I' for Inactive)
REMARK    1  A    between atoms: C_1  and  C_2
REMARK    2  A    between atoms: N_6  and  C_8
REMARK    3  A    between atoms: C_8  and  C_9
REMARK    4  A    between atoms: C_8  and  C_10
REMARK    5  A    between atoms: C_8  and  C_11
REMARK    6  A    between atoms: C_11  and  N_12
REMARK    7  A    between atoms: C_13  and  C_15
REMARK    8  A    between atoms: C_18  and  C_20
REMARK    9  A    between atoms: N_23  and  C_25
REMARK                            x       y       z     vdW  Elec       q    Type
REMARK                         _______ _______ _______ _____ _____    ______ ____
ROOT
ATOM      1  N   UNL     1      -0.070  -4.403   2.277  0.00  0.00    -0.311 N 
ATOM      2  C   UNL     1      -0.413  -5.702   2.379  0.00  0.00    +0.263 C 
ATOM      3  O   UNL     1       0.426  -6.531   2.676  0.00  0.00    -0.269 OA
ATOM      4  H   UNL     1      -0.739  -3.742   2.040  0.00  0.00    +0.149 HD
ENDROOT
BRANCH   2   5
ATOM      5  C   UNL     1      -1.804  -6.118   2.132  0.00  0.00    +0.133 A 
ATOM      6  C   UNL     1      -2.164  -7.434   2.239  0.00  0.00    +0.080 A 
ATOM      7  S   UNL     1      -3.806  -7.394   1.873  0.00  0.00    -0.075 S 
ATOM      8  C   UNL     1      -3.961  -5.639   1.591  0.00  0.00    +0.112 A 
ATOM      9  N   UNL     1      -2.728  -5.221   1.809  0.00  0.00    -0.234 NA
BRANCH   8  10
ATOM     10  C   UNL     1      -5.159  -4.856   1.217  0.00  0.00    +0.045 A 
ATOM     11  C   UNL     1      -5.212  -3.463   1.002  0.00  0.00    +0.145 A 
ATOM     12  N   UNL     1      -6.441  -3.148   0.689  0.00  0.00    -0.179 NA
ATOM     13  N   UNL     1      -7.215  -4.315   0.690  0.00  0.00    -0.274 N 
ATOM     14  C   UNL     1      -6.416  -5.351   1.010  0.00  0.00    +0.118 A 
ATOM     15  C   UNL     1      -8.647  -4.395   0.390  0.00  0.00    +0.172 C 
ENDBRANCH   8  10
ENDBRANCH   2   5
BRANCH   1  16
ATOM     16  C   UNL     1       1.314  -3.989   2.522  0.00  0.00    +0.092 C 
BRANCH  16  17
ATOM     17  C   UNL     1       1.462  -2.497   2.217  0.00  0.00    -0.055 C 
ATOM     18  C   UNL     1       2.924  -2.083   2.394  0.00  0.00    -0.008 C 
ATOM     19  C   UNL     1       0.584  -1.691   3.176  0.00  0.00    -0.008 C 
BRANCH  17  25
ATOM     20  C   UNL     1       0.871   0.971  -1.187  0.00  0.00    +0.005 C 
ATOM     21  C   UNL     1       0.696  -0.517  -0.877  0.00  0.00    -0.031 C 
ATOM     22  C   UNL     1       1.497  -1.346  -1.885  0.00  0.00    -0.001 C 
ATOM     23  C   UNL     1       1.379  -2.829  -1.520  0.00  0.00    -0.018 C 
ATOM     24  C   UNL     1       1.865  -3.035  -0.084  0.00  0.00    -0.078 C 
ATOM     25  N   UNL     1       1.043  -2.236   0.834  0.00  0.00    +0.384 N 
ATOM     26  C   UNL     1       1.207  -0.809   0.535  0.00  0.00    -0.075 C 
ATOM     27  H   UNL     1       0.073  -2.493   0.724  0.00  0.00    -0.081 HD
ENDBRANCH  17  25
ENDBRANCH  16  17
ENDBRANCH   1  16
TORSDOF 5
