REMARK  Name = ZINC51648868
REMARK  7 active torsions:
REMARK  status: ('A' for Active; 'I' for Inactive)
REMARK    1  A    between atoms: C_1  and  C_2
REMARK    2  A    between atoms: C_2  and  C_3
REMARK    3  A    between atoms: C_3  and  C_4
REMARK    4  A    between atoms: C_3  and  N_9
REMARK    5  A    between atoms: N_12  and  C_13
REMARK    6  A    between atoms: C_16  and  N_20
REMARK    7  A    between atoms: C_18  and  C_19
REMARK                            x       y       z     vdW  Elec       q    Type
REMARK                         _______ _______ _______ _____ _____    ______ ____
ROOT
ATOM      1  N   UNL     1       2.372  -0.344   1.650  0.00  0.00    -0.292 N 
ATOM      2  C   UNL     1       2.751   0.869   2.097  0.00  0.00    +0.304 C 
ATOM      3  O   UNL     1       2.137   1.403   3.000  0.00  0.00    -0.252 OA
ATOM      4  N   UNL     1       3.812   1.491   1.544  0.00  0.00    -0.269 N 
ATOM      5  H   UNL     1       2.862  -0.770   0.929  0.00  0.00    +0.151 HD
ATOM      6  H   UNL     1       4.352   1.031   0.882  0.00  0.00    +0.156 HD
ENDROOT
BRANCH   4   7
ATOM      7  C   UNL     1       4.133   2.801   1.924  0.00  0.00    +0.038 A 
ATOM      8  C   UNL     1       3.149   3.637   2.435  0.00  0.00    +0.025 A 
ATOM      9  C   UNL     1       3.466   4.927   2.810  0.00  0.00    +0.025 A 
ATOM     10  C   UNL     1       4.769   5.389   2.677  0.00  0.00    +0.030 A 
ATOM     11  C   UNL     1       5.753   4.553   2.166  0.00  0.00    +0.028 A 
ATOM     12  C   UNL     1       5.436   3.261   1.796  0.00  0.00    -0.027 A 
ATOM     13  C   UNL     1       6.506   2.352   1.247  0.00  0.00    +0.046 C 
BRANCH  10  14
ATOM     14  N   UNL     1       5.089   6.697   3.056  0.00  0.00    -0.328 N 
ATOM     15  C   UNL     1       4.078   7.529   3.710  0.00  0.00    +0.116 C 
ATOM     16  C   UNL     1       4.512   7.825   5.150  0.00  0.00    +0.088 C 
ATOM     17  S   UNL     1       6.144   8.627   5.112  0.00  0.00    -0.158 S 
ATOM     18  C   UNL     1       7.148   7.475   4.127  0.00  0.00    +0.088 C 
ATOM     19  C   UNL     1       6.434   7.215   2.801  0.00  0.00    +0.116 C 
ENDBRANCH  10  14
ENDBRANCH   4   7
BRANCH   1  20
ATOM     20  C   UNL     1       1.220  -1.020   2.251  0.00  0.00    +0.111 C 
BRANCH  20  21
ATOM     21  C   UNL     1       1.354  -2.508   2.059  0.00  0.00    +0.010 A 
ATOM     22  C   UNL     1       1.060  -3.510   2.924  0.00  0.00    +0.013 A 
ATOM     23  C   UNL     1       1.264  -4.819   2.528  0.00  0.00    +0.008 A 
ATOM     24  C   UNL     1       1.754  -5.061   1.288  0.00  0.00    +0.045 A 
ATOM     25  S   UNL     1       1.934  -3.410   0.632  0.00  0.00    -0.100 S 
ENDBRANCH  20  21
BRANCH  20  27
ATOM     26  C   UNL     1      -0.266   0.954   1.879  0.00  0.00    +0.006 C 
ATOM     27  C   UNL     1      -0.065  -0.532   1.579  0.00  0.00    +0.024 C 
ENDBRANCH  20  27
ENDBRANCH   1  20
TORSDOF 5
