REMARK  Name = ZINC63698916
REMARK  6 active torsions:
REMARK  status: ('A' for Active; 'I' for Inactive)
REMARK    1  A    between atoms: C_9  and  S_11
REMARK    2  A    between atoms: S_11  and  C_12
REMARK    3  A    between atoms: C_12  and  C_13
REMARK    4  A    between atoms: N_15  and  C_16
REMARK    5  A    between atoms: C_16  and  C_17
REMARK    6  A    between atoms: C_17  and  C_18
REMARK                            x       y       z     vdW  Elec       q    Type
REMARK                         _______ _______ _______ _____ _____    ______ ____
ROOT
ATOM      1  C   UNL     1      -7.759  -2.058   0.028  0.00  0.00    +0.223 C 
ATOM      2  O   UNL     1      -7.919  -3.260   0.022  0.00  0.00    -0.275 OA
ATOM      3  N   UNL     1      -8.827  -1.236   0.037  0.00  0.00    -0.314 N 
ATOM      4  H   UNL     1      -8.699  -0.274   0.042  0.00  0.00    +0.149 HD
ENDROOT
BRANCH   1   5
ATOM      5  C   UNL     1      -6.366  -1.483   0.025  0.00  0.00    +0.173 C 
BRANCH   5   6
ATOM      6  S   UNL     1      -5.155  -2.834   0.012  0.00  0.00    -0.078 S 
BRANCH   6  15
ATOM      7  C   UNL     1      -0.017   1.363   0.009  0.00  0.00    +0.001 A 
ATOM      8  C   UNL     1      -1.220   2.057   0.019  0.00  0.00    +0.002 A 
ATOM      9  C   UNL     1      -2.414   1.393   0.021  0.00  0.00    +0.028 A 
ATOM     10  C   UNL     1      -2.429  -0.005   0.013  0.00  0.00    +0.079 A 
ATOM     11  C   UNL     1      -1.202  -0.707   0.004  0.00  0.00    +0.065 A 
ATOM     12  C   UNL     1       0.002  -0.004   0.002  0.00  0.00    +0.015 A 
ATOM     13  C   UNL     1      -1.243  -2.176  -0.004  0.00  0.00    +0.260 A 
ATOM     14  N   UNL     1      -2.460  -2.767  -0.001  0.00  0.00    -0.301 N 
ATOM     15  C   UNL     1      -3.597  -2.010   0.009  0.00  0.00    +0.170 A 
ATOM     16  N   UNL     1      -3.584  -0.700   0.015  0.00  0.00    -0.223 NA
ATOM     17  O   UNL     1      -0.220  -2.836  -0.012  0.00  0.00    -0.267 OA
ATOM     18  H   UNL     1      -2.526  -3.735  -0.006  0.00  0.00    +0.171 HD
ENDBRANCH   6  15
ENDBRANCH   5   6
ENDBRANCH   1   5
BRANCH   3  19
ATOM     19  C   UNL     1     -10.181  -1.794   0.041  0.00  0.00    +0.108 C 
BRANCH  19  20
ATOM     20  C   UNL     1     -11.203  -0.655   0.052  0.00  0.00    +0.065 C 
BRANCH  20  21
ATOM     21  C   UNL     1     -12.617  -1.238   0.055  0.00  0.00    +0.175 C 
ATOM     22  N   UNL     1     -12.850  -2.002  -1.177  0.00  0.00    -0.363 N 
ATOM     23  C   UNL     1     -13.845  -1.440  -1.802  0.00  0.00    +0.060 A 
ATOM     24  C   UNL     1     -14.528  -1.742  -3.067  0.00  0.00    +0.027 A 
ATOM     25  C   UNL     1     -15.553  -0.965  -3.471  0.00  0.00    +0.002 A 
ATOM     26  C   UNL     1     -16.006   0.139  -2.728  0.00  0.00    +0.002 A 
ATOM     27  C   UNL     1     -15.450   0.504  -1.556  0.00  0.00    +0.027 A 
ATOM     28  C   UNL     1     -14.325  -0.271  -1.015  0.00  0.00    +0.060 A 
ATOM     29  N   UNL     1     -13.609  -0.155   0.066  0.00  0.00    -0.363 N 
ATOM     30  H   UNL     1     -12.354  -2.781  -1.472  0.00  0.00    +0.162 HD
ATOM     31  H   UNL     1     -13.711   0.522   0.753  0.00  0.00    +0.162 HD
ENDBRANCH  20  21
ENDBRANCH  19  20
ENDBRANCH   3  19
TORSDOF 6
