REMARK  Name = ZINC63416523
REMARK  5 active torsions:
REMARK  status: ('A' for Active; 'I' for Inactive)
REMARK    1  A    between atoms: C_1  and  O_2
REMARK    2  A    between atoms: O_2  and  C_3
REMARK    3  A    between atoms: C_6  and  N_9
REMARK    4  A    between atoms: C_10  and  N_26
REMARK    5  A    between atoms: C_12  and  C_17
REMARK                            x       y       z     vdW  Elec       q    Type
REMARK                         _______ _______ _______ _____ _____    ______ ____
ROOT
ATOM      1  N   UNL     1       2.459  -2.458  -4.301  0.00  0.00    -0.272 N 
ATOM      2  C   UNL     1       2.603  -3.902  -4.328  0.00  0.00    +0.162 C 
ATOM      3  C   UNL     1       3.719  -4.340  -5.313  0.00  0.00    +0.131 C 
ATOM      4  S   UNL     1       3.696  -2.879  -6.437  0.00  0.00    -0.092 S 
ATOM      5  C   UNL     1       2.920  -1.716  -5.327  0.00  0.00    +0.115 C 
ATOM      6  S   UNL     1       2.791  -0.020  -5.523  0.00  0.00    -0.028 S 
ENDROOT
BRANCH   3   7
ATOM      7  C   UNL     1       3.343  -5.625  -6.053  0.00  0.00    +0.191 C 
ATOM      8  N   UNL     1       3.082  -6.703  -5.090  0.00  0.00    -0.362 N 
ATOM      9  C   UNL     1       3.938  -7.654  -5.328  0.00  0.00    +0.060 A 
ATOM     10  C   UNL     1       4.171  -8.966  -4.708  0.00  0.00    +0.027 A 
ATOM     11  C   UNL     1       5.155  -9.758  -5.178  0.00  0.00    +0.002 A 
ATOM     12  C   UNL     1       5.984  -9.383  -6.251  0.00  0.00    +0.002 A 
ATOM     13  C   UNL     1       5.855  -8.202  -6.889  0.00  0.00    +0.027 A 
ATOM     14  C   UNL     1       4.814  -7.257  -6.464  0.00  0.00    +0.060 A 
ATOM     15  N   UNL     1       4.466  -6.075  -6.884  0.00  0.00    -0.362 N 
ATOM     16  H   UNL     1       2.397  -6.705  -4.402  0.00  0.00    +0.162 HD
ATOM     17  H   UNL     1       4.873  -5.583  -7.614  0.00  0.00    +0.162 HD
ENDBRANCH   3   7
BRANCH   1  21
ATOM     18  C   UNL     1       0.607  -0.608  -1.056  0.00  0.00    +0.120 A 
ATOM     19  C   UNL     1      -0.136  -0.948  -2.176  0.00  0.00    +0.047 A 
ATOM     20  C   UNL     1       0.477  -1.561  -3.252  0.00  0.00    +0.027 A 
ATOM     21  C   UNL     1       1.837  -1.836  -3.211  0.00  0.00    +0.036 A 
ATOM     22  C   UNL     1       2.580  -1.495  -2.088  0.00  0.00    +0.027 A 
ATOM     23  C   UNL     1       1.967  -0.878  -1.016  0.00  0.00    +0.047 A 
BRANCH  18  25
ATOM     24  C   UNL     1      -1.400   0.243  -0.106  0.00  0.00    +0.277 C 
ATOM     25  O   UNL     1       0.003  -0.005   0.003  0.00  0.00    -0.495 OA
ENDBRANCH  18  25
ENDBRANCH   1  21
BRANCH   2  26
ATOM     26  N   UNL     1       1.331  -4.504  -4.749  0.00  0.00    -0.311 NA
ATOM     27  H   UNL     1       0.593  -4.281  -4.098  0.00  0.00    +0.120 HD
ATOM     28  H   UNL     1       1.086  -4.217  -5.684  0.00  0.00    +0.120 HD
ENDBRANCH   2  26
TORSDOF 4
