REMARK  Name = ZINC18167060
REMARK  1 active torsions:
REMARK  status: ('A' for Active; 'I' for Inactive)
REMARK    1  A    between atoms: C_6  and  N_11
REMARK                            x       y       z     vdW  Elec       q    Type
REMARK                         _______ _______ _______ _____ _____    ______ ____
ROOT
ATOM      1  N   UNL     1       4.915  -2.655  -0.058  0.00  0.00    -0.210 N 
ATOM      2  C   UNL     1       6.088  -2.020  -0.158  0.00  0.00    +0.232 C 
ATOM      3  O   UNL     1       6.230  -0.819  -0.246  0.00  0.00    -0.274 OA
ATOM      4  C   UNL     1       7.211  -3.033  -0.143  0.00  0.00    +0.107 C 
ATOM      5  C   UNL     1       7.895  -3.058  -1.523  0.00  0.00    +0.071 C 
ATOM      6  C   UNL     1       9.339  -2.542  -1.384  0.00  0.00    +0.021 C 
ATOM      7  C   UNL     1      10.199  -3.792  -1.115  0.00  0.00    +0.017 C 
ATOM      8  C   UNL     1       9.203  -4.968  -1.083  0.00  0.00    +0.086 C 
ATOM      9  N   UNL     1       8.008  -4.505  -1.877  0.00  0.00    -0.281 NA
ATOM     10  C   UNL     1       6.770  -5.108  -1.355  0.00  0.00    +0.138 C 
ATOM     11  C   UNL     1       6.467  -4.390  -0.017  0.00  0.00    +0.123 C 
ATOM     12  C   UNL     1       5.011  -3.986   0.033  0.00  0.00    +0.233 C 
ATOM     13  O   UNL     1       4.075  -4.750   0.137  0.00  0.00    -0.274 OA
ATOM     14  C   UNL     1       5.635  -4.968  -2.329  0.00  0.00    +0.004 A 
ATOM     15  C   UNL     1       5.015  -3.886  -2.913  0.00  0.00    +0.008 A 
ATOM     16  C   UNL     1       3.966  -4.080  -3.793  0.00  0.00    +0.000 A 
ATOM     17  C   UNL     1       3.542  -5.364  -4.086  0.00  0.00    +0.002 A 
ATOM     18  C   UNL     1       4.160  -6.451  -3.504  0.00  0.00    +0.023 A 
ATOM     19  C   UNL     1       5.217  -6.264  -2.617  0.00  0.00    +0.039 A 
ATOM     20  N   UNL     1       5.991  -7.189  -1.912  0.00  0.00    -0.283 N 
ATOM     21  C   UNL     1       6.926  -6.591  -1.148  0.00  0.00    +0.243 C 
ATOM     22  O   UNL     1       7.737  -7.141  -0.434  0.00  0.00    -0.273 OA
ATOM     23  H   UNL     1       5.869  -8.149  -1.966  0.00  0.00    +0.155 HD
ENDROOT
BRANCH   1  29
ATOM     24  C   UNL     1      -0.727   0.039   1.095  0.00  0.00    +0.001 A 
ATOM     25  C   UNL     1      -0.297  -0.628   2.241  0.00  0.00    +0.001 A 
ATOM     26  C   UNL     1       0.890  -1.293   2.261  0.00  0.00    +0.008 A 
ATOM     27  C   UNL     1       1.698  -1.309   1.111  0.00  0.00    -0.016 A 
ATOM     28  C   UNL     1       2.928  -1.985   1.094  0.00  0.00    +0.032 A 
ATOM     29  C   UNL     1       3.687  -1.980  -0.043  0.00  0.00    +0.044 A 
ATOM     30  C   UNL     1       3.253  -1.310  -1.191  0.00  0.00    +0.024 A 
ATOM     31  C   UNL     1       2.067  -0.646  -1.207  0.00  0.00    +0.010 A 
ATOM     32  C   UNL     1       1.260  -0.631  -0.055  0.00  0.00    -0.018 A 
ATOM     33  C   UNL     1       0.029   0.045  -0.037  0.00  0.00    +0.008 A 
ENDBRANCH   1  29
TORSDOF 1
