REMARK  Name = ZINC06409701
REMARK  9 active torsions:
REMARK  status: ('A' for Active; 'I' for Inactive)
REMARK    1  A    between atoms: C_1  and  C_2
REMARK    2  A    between atoms: C_7  and  C_14
REMARK    3  A    between atoms: C_14  and  N_64
REMARK    4  A    between atoms: C_15  and  C_16
REMARK    5  A    between atoms: C_15  and  N_64
REMARK    6  A    between atoms: C_25  and  C_26
REMARK    7  A    between atoms: C_25  and  N_64
REMARK    8  A    between atoms: N_30  and  C_31
REMARK    9  A    between atoms: C_31  and  C_32
REMARK                            x       y       z     vdW  Elec       q    Type
REMARK                         _______ _______ _______ _____ _____    ______ ____
ROOT
ATOM      1  N   UNL     1      -2.567   5.006  -1.394  0.00  0.00    +0.390 N 
ATOM      2  H   UNL     1      -2.596   3.984  -1.491  0.00  0.00    -0.080 HD
ENDROOT
BRANCH   1   3
ATOM      3  C   UNL     1      -3.930   5.545  -1.577  0.00  0.00    -0.036 C 
BRANCH   3  10
ATOM      4  C   UNL     1      -9.136   1.307   2.731  0.00  0.00    +0.044 C 
ATOM      5  C   UNL     1      -8.160   2.262   2.093  0.00  0.00    -0.048 A 
ATOM      6  C   UNL     1      -7.817   3.435   2.750  0.00  0.00    +0.004 A 
ATOM      7  C   UNL     1      -6.934   4.314   2.189  0.00  0.00    +0.010 A 
ATOM      8  C   UNL     1      -6.372   4.029   0.941  0.00  0.00    -0.001 A 
ATOM      9  C   UNL     1      -5.423   4.949   0.310  0.00  0.00    +0.017 A 
ATOM     10  C   UNL     1      -4.909   4.620  -0.901  0.00  0.00    +0.001 A 
ATOM     11  C   UNL     1      -5.293   3.418  -1.533  0.00  0.00    +0.251 A 
ATOM     12  O   UNL     1      -4.823   3.144  -2.624  0.00  0.00    -0.268 OA
ATOM     13  N   UNL     1      -6.159   2.565  -0.959  0.00  0.00    -0.322 N 
ATOM     14  H   UNL     1      -6.398   1.745  -1.420  0.00  0.00    +0.169 HD
ATOM     15  C   UNL     1      -6.717   2.841   0.271  0.00  0.00    +0.049 A 
ATOM     16  C   UNL     1      -7.618   1.961   0.862  0.00  0.00    +0.029 A 
ENDBRANCH   3  10
ENDBRANCH   1   3
BRANCH   1  17
ATOM     17  C   UNL     1      -2.065   5.347  -0.046  0.00  0.00    -0.042 C 
BRANCH  17  18
ATOM     18  C   UNL     1      -1.914   6.839   0.100  0.00  0.00    -0.060 A 
ATOM     19  C   UNL     1      -2.946   7.588   0.634  0.00  0.00    +0.005 A 
ATOM     20  C   UNL     1      -2.811   8.957   0.769  0.00  0.00    +0.050 A 
ATOM     21  C   UNL     1      -1.641   9.582   0.369  0.00  0.00    +0.166 A 
ATOM     22  C   UNL     1      -0.602   8.827  -0.169  0.00  0.00    +0.166 A 
ATOM     23  C   UNL     1      -0.745   7.456  -0.306  0.00  0.00    +0.051 A 
ATOM     24  O   UNL     1       0.429   9.665  -0.482  0.00  0.00    -0.453 OA
ATOM     25  C   UNL     1       0.171  10.881   0.244  0.00  0.00    +0.466 C 
ATOM     26  O   UNL     1      -1.262  10.893   0.393  0.00  0.00    -0.453 OA
ENDBRANCH  17  18
ENDBRANCH   1  17
BRANCH   1  27
ATOM     27  C   UNL     1      -1.662   5.559  -2.424  0.00  0.00    +0.001 C 
BRANCH  27  28
ATOM     28  C   UNL     1      -0.466   4.652  -2.553  0.00  0.00    +0.135 A 
ATOM     29  N   UNL     1       0.633   4.700  -1.839  0.00  0.00    -0.115 NA
ATOM     30  N   UNL     1       1.414   3.761  -2.248  0.00  0.00    -0.023 NA
ATOM     31  N   UNL     1       0.846   3.119  -3.209  0.00  0.00    -0.044 NA
ATOM     32  N   UNL     1      -0.315   3.639  -3.426  0.00  0.00    -0.229 N 
BRANCH  32  33
ATOM     33  C   UNL     1      -1.286   3.208  -4.435  0.00  0.00    +0.178 C 
BRANCH  33  34
ATOM     34  C   UNL     1      -1.037   3.968  -5.740  0.00  0.00    +0.140 C 
ATOM     35  C   UNL     1      -2.126   3.606  -6.772  0.00  0.00    +0.035 C 
ATOM     36  C   UNL     1      -1.314   3.526  -8.094  0.00  0.00    +0.031 C 
ATOM     37  C   UNL     1       0.036   2.970  -7.576  0.00  0.00    +0.160 C 
ATOM     38  O   UNL     1       0.227   3.585  -6.292  0.00  0.00    -0.375 OA
ENDBRANCH  33  34
ENDBRANCH  32  33
ENDBRANCH  27  28
ENDBRANCH   1  27
TORSDOF 8
