REMARK  Name = ZINC63952582
REMARK  8 active torsions:
REMARK  status: ('A' for Active; 'I' for Inactive)
REMARK    1  A    between atoms: C_1  and  C_2
REMARK    2  A    between atoms: C_8  and  C_11
REMARK    3  A    between atoms: C_11  and  C_12
REMARK    4  A    between atoms: C_12  and  N_13
REMARK    5  A    between atoms: C_17  and  C_23
REMARK    6  A    between atoms: N_21  and  N_22
REMARK    7  A    between atoms: C_26  and  O_29
REMARK    8  A    between atoms: O_29  and  C_30
REMARK                            x       y       z     vdW  Elec       q    Type
REMARK                         _______ _______ _______ _____ _____    ______ ____
ROOT
ATOM      1  N   UNL     1      -1.377  -2.600   5.613  0.00  0.00    -0.358 N 
ATOM      2  C   UNL     1      -2.498  -2.599   6.276  0.00  0.00    +0.191 C 
ATOM      3  N   UNL     1      -3.707  -2.840   5.647  0.00  0.00    -0.252 N 
ATOM      4  N   UNL     1      -4.780  -2.087   6.059  0.00  0.00    -0.224 NA
ATOM      5  C   UNL     1      -5.011  -2.280   7.498  0.00  0.00    +0.190 C 
ATOM      6  C   UNL     1      -3.715  -2.174   8.253  0.00  0.00    +0.259 C 
ATOM      7  O   UNL     1      -3.738  -1.918   9.438  0.00  0.00    -0.272 OA
ATOM      8  N   UNL     1      -2.529  -2.362   7.643  0.00  0.00    -0.176 N 
ATOM      9  H   UNL     1      -4.641  -1.111   5.844  0.00  0.00    +0.145 HD
ATOM     10  H   UNL     1      -3.793  -3.508   4.949  0.00  0.00    +0.169 HD
ATOM     11  H   UNL     1      -0.540  -2.433   6.075  0.00  0.00    +0.162 HD
ENDROOT
BRANCH   5  12
ATOM     12  C   UNL     1      -5.963  -1.224   7.996  0.00  0.00    -0.020 A 
ATOM     13  C   UNL     1      -5.858   0.074   7.533  0.00  0.00    +0.009 A 
ATOM     14  C   UNL     1      -6.730   1.045   7.989  0.00  0.00    +0.046 A 
ATOM     15  C   UNL     1      -7.711   0.715   8.912  0.00  0.00    +0.120 A 
ATOM     16  C   UNL     1      -7.815  -0.589   9.375  0.00  0.00    +0.046 A 
ATOM     17  C   UNL     1      -6.944  -1.556   8.912  0.00  0.00    +0.009 A 
BRANCH  15  18
ATOM     18  O   UNL     1      -8.569   1.668   9.363  0.00  0.00    -0.495 OA
ATOM     19  C   UNL     1      -9.555   1.256  10.312  0.00  0.00    +0.277 C 
ENDBRANCH  15  18
ENDBRANCH   5  12
BRANCH   8  20
ATOM     20  N   UNL     1      -1.368  -2.316   8.361  0.00  0.00    -0.245 NA
ATOM     21  H   UNL     1      -1.553  -2.136   9.336  0.00  0.00    +0.141 HD
ATOM     22  H   UNL     1      -0.837  -3.166   8.244  0.00  0.00    +0.141 HD
ENDBRANCH   8  20
BRANCH   1  23
ATOM     23  C   UNL     1      -1.379  -2.854   4.170  0.00  0.00    +0.119 C 
BRANCH  23  24
ATOM     24  C   UNL     1       0.055  -2.799   3.641  0.00  0.00    +0.054 C 
BRANCH  24  32
ATOM     25  C   UNL     1      -0.018   1.503   0.010  0.00  0.00    +0.044 C 
ATOM     26  C   UNL     1       0.002  -0.004   0.002  0.00  0.00    -0.050 A 
ATOM     27  C   UNL     1       0.005  -0.680  -1.226  0.00  0.00    +0.005 A 
ATOM     28  C   UNL     1       0.023  -2.026  -1.317  0.00  0.00    +0.026 A 
ATOM     29  C   UNL     1       0.039  -2.826  -0.141  0.00  0.00    +0.043 A 
ATOM     30  N   UNL     1       0.057  -4.126   0.030  0.00  0.00    -0.380 N 
ATOM     31  C   UNL     1       0.067  -4.408   1.470  0.00  0.00    +0.144 C 
ATOM     32  C   UNL     1       0.052  -3.060   2.156  0.00  0.00    -0.040 C 
ATOM     33  C   UNL     1       0.036  -2.137   1.168  0.00  0.00    -0.001 A 
ATOM     34  C   UNL     1       0.022  -0.669   1.180  0.00  0.00    +0.013 A 
ATOM     35  H   UNL     1       0.062  -4.790  -0.677  0.00  0.00    +0.160 HD
ENDBRANCH  24  32
ENDBRANCH  23  24
ENDBRANCH   1  23
TORSDOF 6
