REMARK  Name = ZINC63530458
REMARK  7 active torsions:
REMARK  status: ('A' for Active; 'I' for Inactive)
REMARK    1  A    between atoms: C_1  and  N_2
REMARK    2  A    between atoms: N_5  and  C_8
REMARK    3  A    between atoms: C_8  and  C_9
REMARK    4  A    between atoms: C_9  and  N_10
REMARK    5  A    between atoms: C_11  and  C_13
REMARK    6  A    between atoms: C_15  and  S_23
REMARK    7  A    between atoms: S_23  and  C_24
REMARK                            x       y       z     vdW  Elec       q    Type
REMARK                         _______ _______ _______ _____ _____    ______ ____
ROOT
ATOM      1  C   UNL     1       3.270  -7.867   2.061  0.00  0.00    +0.204 C 
ATOM      2  C   UNL     1       2.098  -8.609   2.664  0.00  0.00    +0.030 C 
ATOM      3  C   UNL     1       2.641  -9.442   3.638  0.00  0.00    +0.010 A 
ATOM      4  C   UNL     1       2.059 -10.367   4.532  0.00  0.00    +0.011 A 
ATOM      5  C   UNL     1       2.848 -11.058   5.394  0.00  0.00    +0.001 A 
ATOM      6  C   UNL     1       4.232 -10.878   5.422  0.00  0.00    +0.002 A 
ATOM      7  C   UNL     1       4.857 -10.006   4.592  0.00  0.00    +0.026 A 
ATOM      8  C   UNL     1       4.098  -9.249   3.664  0.00  0.00    +0.044 A 
ATOM      9  N   UNL     1       4.462  -8.351   2.764  0.00  0.00    -0.369 N 
ATOM     10  H   UNL     1       5.372  -8.059   2.596  0.00  0.00    +0.161 HD
ENDROOT
BRANCH   1  12
ATOM     11  N   UNL     1       2.313  -5.669   1.452  0.00  0.00    -0.312 N 
ATOM     12  C   UNL     1       3.110  -6.384   2.272  0.00  0.00    +0.241 C 
ATOM     13  O   UNL     1       3.698  -5.833   3.178  0.00  0.00    -0.273 OA
ATOM     14  H   UNL     1       1.843  -6.109   0.727  0.00  0.00    +0.149 HD
BRANCH  11  15
ATOM     15  C   UNL     1       2.158  -4.227   1.657  0.00  0.00    +0.119 C 
BRANCH  15  16
ATOM     16  C   UNL     1       1.208  -3.661   0.599  0.00  0.00    +0.103 C 
BRANCH  16  21
ATOM     17  C   UNL     1      -0.563   1.633   1.361  0.00  0.00    -0.096 C 
ATOM     18  N   UNL     1      -0.461   0.182   1.156  0.00  0.00    +0.379 N 
ATOM     19  C   UNL     1       0.252  -0.085  -0.100  0.00  0.00    -0.064 C 
ATOM     20  C   UNL     1       0.341  -1.597  -0.324  0.00  0.00    +0.066 C 
ATOM     21  N   UNL     1       1.051  -2.215   0.804  0.00  0.00    -0.304 NA
ATOM     22  C   UNL     1       0.362  -1.934   2.072  0.00  0.00    +0.066 C 
ATOM     23  C   UNL     1       0.273  -0.420   2.276  0.00  0.00    -0.064 C 
ATOM     24  H   UNL     1      -1.387  -0.216   1.107  0.00  0.00    -0.082 HD
ENDBRANCH  16  21
ENDBRANCH  15  16
ENDBRANCH  11  15
ENDBRANCH   1  12
BRANCH   2  25
ATOM     25  S   UNL     1       0.497  -8.459   2.252  0.00  0.00    -0.091 S 
BRANCH  25  26
ATOM     26  C   UNL     1       0.411  -9.132   0.626  0.00  0.00    +0.013 A 
ATOM     27  C   UNL     1       1.525  -9.746   0.067  0.00  0.00    +0.016 A 
ATOM     28  C   UNL     1       1.455 -10.273  -1.208  0.00  0.00    +0.021 A 
ATOM     29  C   UNL     1       0.276 -10.188  -1.929  0.00  0.00    +0.041 A 
ATOM     30  C   UNL     1      -0.835  -9.577  -1.374  0.00  0.00    +0.021 A 
ATOM     31  C   UNL     1      -0.773  -9.054  -0.098  0.00  0.00    +0.016 A 
ATOM     32 CL   UNL     1       0.192 -10.850  -3.531  0.00  0.00    -0.084 Cl
ENDBRANCH  25  26
ENDBRANCH   2  25
TORSDOF 6
