REMARK  Name = ZINC59116531
REMARK  4 active torsions:
REMARK  status: ('A' for Active; 'I' for Inactive)
REMARK    1  A    between atoms: C_7  and  C_11
REMARK    2  A    between atoms: C_11  and  C_12
REMARK    3  A    between atoms: C_11  and  C_21
REMARK    4  A    between atoms: C_17  and  O_18
REMARK                            x       y       z     vdW  Elec       q    Type
REMARK                         _______ _______ _______ _____ _____    ______ ____
ROOT
ATOM      1  C   UNL     1       0.666  -3.275  -0.021  0.00  0.00    +0.087 C 
ENDROOT
BRANCH   1   8
ATOM      2  C   UNL     1      -0.017   1.362   0.009  0.00  0.00    +0.001 A 
ATOM      3  C   UNL     1       1.169   2.083   0.002  0.00  0.00    +0.002 A 
ATOM      4  C   UNL     1       2.386   1.436  -0.013  0.00  0.00    +0.026 A 
ATOM      5  C   UNL     1       2.428   0.046  -0.021  0.00  0.00    +0.047 A 
ATOM      6  C   UNL     1       1.223  -0.681  -0.013  0.00  0.00    +0.004 A 
ATOM      7  C   UNL     1       0.002  -0.004   0.002  0.00  0.00    +0.010 A 
ATOM      8  C   UNL     1       1.603  -2.095  -0.025  0.00  0.00    -0.010 A 
ATOM      9  C   UNL     1       2.945  -2.141  -0.038  0.00  0.00    +0.088 A 
ATOM     10  N   UNL     1       3.455  -0.871  -0.036  0.00  0.00    -0.360 N 
ATOM     11  H   UNL     1       4.399  -0.650  -0.044  0.00  0.00    +0.165 HD
ENDBRANCH   1   8
BRANCH   1  12
ATOM     12  C   UNL     1       0.922  -4.117   1.202  0.00  0.00    -0.010 A 
ATOM     13  C   UNL     1       2.077  -4.717   1.531  0.00  0.00    +0.088 A 
ATOM     14  N   UNL     1       1.932  -5.394   2.711  0.00  0.00    -0.360 N 
ATOM     15  H   UNL     1       2.630  -5.904   3.151  0.00  0.00    +0.165 HD
ATOM     16  C   UNL     1       0.647  -5.241   3.183  0.00  0.00    +0.047 A 
ATOM     17  C   UNL     1      -0.040  -4.430   2.261  0.00  0.00    +0.004 A 
ATOM     18  C   UNL     1      -1.377  -4.099   2.486  0.00  0.00    +0.010 A 
ATOM     19  C   UNL     1      -2.012  -4.563   3.603  0.00  0.00    +0.001 A 
ATOM     20  C   UNL     1      -1.338  -5.361   4.518  0.00  0.00    +0.002 A 
ATOM     21  C   UNL     1      -0.020  -5.706   4.312  0.00  0.00    +0.026 A 
ENDBRANCH   1  12
BRANCH   1  22
ATOM     22  C   UNL     1       0.898  -4.104  -1.259  0.00  0.00    +0.009 A 
ATOM     23  C   UNL     1       2.138  -4.669  -1.490  0.00  0.00    +0.028 A 
ATOM     24  C   UNL     1       2.352  -5.429  -2.626  0.00  0.00    +0.043 A 
ATOM     25  C   UNL     1       1.325  -5.626  -3.533  0.00  0.00    +0.043 A 
ATOM     26  C   UNL     1       0.084  -5.063  -3.305  0.00  0.00    +0.084 A 
ATOM     27  C   UNL     1      -0.134  -4.305  -2.163  0.00  0.00    +0.139 A 
ATOM     28 CL   UNL     1      -1.204  -5.309  -4.443  0.00  0.00    -0.080 Cl
ATOM     29 CL   UNL     1       3.910  -6.137  -2.914  0.00  0.00    -0.083 Cl
BRANCH  27  30
ATOM     30  O   UNL     1      -1.356  -3.754  -1.934  0.00  0.00    -0.505 OA
ATOM     31  H   UNL     1      -1.465  -2.869  -2.308  0.00  0.00    +0.292 HD
ENDBRANCH  27  30
ENDBRANCH   1  22
TORSDOF 4
