REMARK  Name = ZINC04478264
REMARK  7 active torsions:
REMARK  status: ('A' for Active; 'I' for Inactive)
REMARK    1  A    between atoms: C_1  and  C_2
REMARK    2  A    between atoms: C_2  and  C_3
REMARK    3  A    between atoms: C_3  and  C_4
REMARK    4  A    between atoms: C_6  and  C_24
REMARK    5  A    between atoms: C_9  and  C_17
REMARK    6  A    between atoms: C_11  and  C_16
REMARK    7  A    between atoms: N_14  and  O_15
REMARK                            x       y       z     vdW  Elec       q    Type
REMARK                         _______ _______ _______ _____ _____    ______ ____
ROOT
ATOM      1  C   UNL     1      -0.456  -2.211  -1.713  0.00  0.00    +0.058 C 
ATOM      2  C   UNL     1       0.788  -2.573  -2.532  0.00  0.00    +0.093 C 
ATOM      3  N   UNL     1       1.173  -3.960  -2.247  0.00  0.00    -0.301 NA
ATOM      4  C   UNL     1       0.153  -4.910  -2.709  0.00  0.00    +0.093 C 
ATOM      5  C   UNL     1      -1.134  -4.707  -1.901  0.00  0.00    +0.055 C 
ATOM      6  C   UNL     1      -1.526  -3.247  -1.991  0.00  0.00    +0.067 C 
ATOM      7  N   UNL     1      -2.720  -2.900  -2.292  0.00  0.00    -0.096 NA
ATOM      8  C   UNL     1      -2.250  -5.578  -2.482  0.00  0.00    +0.016 C 
ATOM      9  H   UNL     1       2.075  -4.175  -2.647  0.00  0.00    +0.123 HD
ENDROOT
BRANCH   4  10
ATOM     10  C   UNL     1      -0.127  -4.675  -4.170  0.00  0.00    -0.030 A 
ATOM     11  C   UNL     1      -0.796  -3.532  -4.570  0.00  0.00    +0.006 A 
ATOM     12  C   UNL     1      -1.054  -3.316  -5.911  0.00  0.00    +0.020 A 
ATOM     13  C   UNL     1      -0.642  -4.242  -6.853  0.00  0.00    +0.041 A 
ATOM     14  C   UNL     1       0.026  -5.385  -6.452  0.00  0.00    +0.020 A 
ATOM     15  C   UNL     1       0.288  -5.598  -5.111  0.00  0.00    +0.006 A 
ATOM     16 CL   UNL     1      -0.966  -3.971  -8.536  0.00  0.00    -0.084 Cl
ENDBRANCH   4  10
BRANCH   2  17
ATOM     17  C   UNL     1       1.920  -1.650  -2.161  0.00  0.00    -0.030 A 
ATOM     18  C   UNL     1       2.655  -1.885  -1.014  0.00  0.00    +0.006 A 
ATOM     19  C   UNL     1       3.694  -1.039  -0.674  0.00  0.00    +0.020 A 
ATOM     20  C   UNL     1       3.997   0.044  -1.480  0.00  0.00    +0.041 A 
ATOM     21  C   UNL     1       3.260   0.279  -2.628  0.00  0.00    +0.020 A 
ATOM     22  C   UNL     1       2.226  -0.572  -2.970  0.00  0.00    +0.006 A 
ATOM     23 CL   UNL     1       5.301   1.107  -1.052  0.00  0.00    -0.084 Cl
ENDBRANCH   2  17
BRANCH   7  24
ATOM     24  O   UNL     1      -3.725  -3.884  -2.448  0.00  0.00    -0.409 OA
ATOM     25  H   UNL     1      -4.595  -3.526  -2.675  0.00  0.00    +0.328 HD
ENDBRANCH   7  24
BRANCH   1  26
ATOM     26  C   UNL     1      -0.960  -0.826  -2.124  0.00  0.00    +0.011 C 
BRANCH  26  28
ATOM     27  C   UNL     1      -2.637   0.961  -1.639  0.00  0.00    +0.004 C 
ATOM     28  C   UNL     1      -2.134  -0.424  -1.228  0.00  0.00    -0.003 C 
ENDBRANCH  26  28
ENDBRANCH   1  26
TORSDOF 5
