REMARK  Name = ZINC32093982
REMARK  3 active torsions:
REMARK  status: ('A' for Active; 'I' for Inactive)
REMARK    1  A    between atoms: C_13  and  O_28
REMARK    2  A    between atoms: N_19  and  C_20
REMARK    3  A    between atoms: C_20  and  C_21
REMARK                            x       y       z     vdW  Elec       q    Type
REMARK                         _______ _______ _______ _____ _____    ______ ____
ROOT
ATOM      1  C   UNL     1      -0.017   1.375   0.010  0.00  0.00    +0.002 A 
ATOM      2  C   UNL     1       1.161   2.116   0.002  0.00  0.00    +0.007 A 
ATOM      3  C   UNL     1       2.344   1.411  -0.013  0.00  0.00    -0.005 A 
ATOM      4  C   UNL     1       2.378   0.010  -0.021  0.00  0.00    +0.056 A 
ATOM      5  C   UNL     1       1.189  -0.722  -0.013  0.00  0.00    +0.062 A 
ATOM      6  C   UNL     1       0.002  -0.004   0.002  0.00  0.00    +0.022 A 
ATOM      7 CL   UNL     1       1.196  -2.458  -0.023  0.00  0.00    -0.082 Cl
ATOM      8  N   UNL     1       3.687  -0.439  -0.036  0.00  0.00    -0.283 N 
ATOM      9  C   UNL     1       4.572   0.580  -0.039  0.00  0.00    +0.233 C 
ATOM     10  O   UNL     1       5.782   0.486  -0.051  0.00  0.00    -0.274 OA
ATOM     11  C   UNL     1       3.769   1.861  -0.024  0.00  0.00    +0.112 C 
ATOM     12  C   UNL     1       4.079   2.695  -1.266  0.00  0.00    +0.121 C 
ATOM     13  C   UNL     1       3.657   4.125  -1.089  0.00  0.00    +0.191 C 
ATOM     14  N   UNL     1       3.669   4.741   0.055  0.00  0.00    -0.198 NA
ATOM     15  C   UNL     1       4.035   4.062   1.180  0.00  0.00    +0.159 A 
ATOM     16  C   UNL     1       4.099   2.673   1.197  0.00  0.00    +0.036 A 
ATOM     17  C   UNL     1       4.492   2.283   2.463  0.00  0.00    +0.141 A 
ATOM     18  N   UNL     1       4.653   3.360   3.198  0.00  0.00    -0.177 NA
ATOM     19  N   UNL     1       4.364   4.490   2.417  0.00  0.00    -0.242 N 
ATOM     20  H   UNL     1       3.939  -1.376  -0.044  0.00  0.00    +0.155 HD
ENDROOT
BRANCH  13  21
ATOM     21  O   UNL     1       3.242   4.807  -2.176  0.00  0.00    -0.495 OA
ATOM     22  H   UNL     1       2.985   5.721  -1.992  0.00  0.00    +0.293 HD
ENDBRANCH  13  21
BRANCH  19  23
ATOM     23  C   UNL     1       4.409   5.884   2.864  0.00  0.00    +0.181 C 
BRANCH  23  24
ATOM     24  C   UNL     1       3.061   6.282   3.408  0.00  0.00    -0.026 A 
ATOM     25  C   UNL     1       2.107   6.820   2.564  0.00  0.00    +0.007 A 
ATOM     26  C   UNL     1       0.871   7.185   3.061  0.00  0.00    +0.020 A 
ATOM     27  C   UNL     1       0.587   7.011   4.404  0.00  0.00    +0.041 A 
ATOM     28  C   UNL     1       1.542   6.472   5.248  0.00  0.00    +0.020 A 
ATOM     29  C   UNL     1       2.776   6.103   4.748  0.00  0.00    +0.007 A 
ATOM     30 CL   UNL     1      -0.966   7.470   5.030  0.00  0.00    -0.084 Cl
ENDBRANCH  23  24
ENDBRANCH  19  23
TORSDOF 3
