REMARK  Name = ZINC09079077
REMARK  8 active torsions:
REMARK  status: ('A' for Active; 'I' for Inactive)
REMARK    1  A    between atoms: C_1  and  N_2
REMARK    2  A    between atoms: N_2  and  C_3
REMARK    3  A    between atoms: N_2  and  S_9
REMARK    4  A    between atoms: S_9  and  C_12
REMARK    5  A    between atoms: C_15  and  C_18
REMARK    6  A    between atoms: C_18  and  N_20
REMARK    7  A    between atoms: N_22  and  C_31
REMARK    8  A    between atoms: C_31  and  C_32
REMARK                            x       y       z     vdW  Elec       q    Type
REMARK                         _______ _______ _______ _____ _____    ______ ____
ROOT
ATOM      1  C   UNL     1       1.682  -1.059  -1.905  0.00  0.00    +0.106 A 
ATOM      2  C   UNL     1       2.321  -0.106  -2.678  0.00  0.00    +0.029 A 
ATOM      3  C   UNL     1       3.639  -0.285  -3.048  0.00  0.00    +0.015 A 
ATOM      4  C   UNL     1       4.325  -1.429  -2.642  0.00  0.00    +0.039 A 
ATOM      5  C   UNL     1       3.675  -2.386  -1.863  0.00  0.00    +0.015 A 
ATOM      6  C   UNL     1       2.359  -2.193  -1.494  0.00  0.00    +0.029 A 
ENDROOT
BRANCH   1   7
ATOM      7  S   UNL     1      -0.000  -0.824  -1.437  0.00  0.00    +0.061 S 
ATOM      8  O   UNL     1      -0.531  -2.115  -1.167  0.00  0.00    -0.153 OA
ATOM      9  O   UNL     1      -0.572   0.049  -2.401  0.00  0.00    -0.153 OA
BRANCH   7  11
ATOM     10  C   UNL     1      -0.018   1.461   0.010  0.00  0.00    +0.132 C 
ATOM     11  N   UNL     1       0.002  -0.004   0.002  0.00  0.00    -0.177 NA
BRANCH  11  12
ATOM     12  C   UNL     1       0.024  -0.743   1.267  0.00  0.00    +0.080 C 
ATOM     13  C   UNL     1      -1.222  -0.395   2.083  0.00  0.00    +0.020 C 
ATOM     14  C   UNL     1      -1.199  -1.167   3.404  0.00  0.00    +0.002 C 
ATOM     15  C   UNL     1       0.052  -0.785   4.196  0.00  0.00    +0.000 C 
ATOM     16  C   UNL     1       1.299  -1.133   3.380  0.00  0.00    +0.002 C 
ATOM     17  C   UNL     1       1.276  -0.361   2.059  0.00  0.00    +0.020 C 
ENDBRANCH  11  12
ENDBRANCH   7  11
ENDBRANCH   1   7
BRANCH   4  18
ATOM     18  C   UNL     1       5.739  -1.627  -3.036  0.00  0.00    +0.269 C 
ATOM     19  O   UNL     1       6.305  -0.790  -3.718  0.00  0.00    -0.268 OA
BRANCH  18  20
ATOM     20  N   UNL     1       6.395  -2.724  -2.646  0.00  0.00    -0.152 NA
ATOM     21  C   UNL     1       7.663  -2.902  -3.000  0.00  0.00    +0.168 A 
ATOM     22  N   UNL     1       8.473  -3.950  -2.699  0.00  0.00    -0.307 N 
ATOM     23  C   UNL     1       9.777  -3.964  -3.158  0.00  0.00    +0.094 A 
ATOM     24  C   UNL     1      10.774  -4.934  -2.968  0.00  0.00    +0.148 A 
ATOM     25  C   UNL     1      12.028  -4.767  -3.512  0.00  0.00    +0.040 A 
ATOM     26  C   UNL     1      12.341  -3.642  -4.257  0.00  0.00    +0.004 A 
ATOM     27  C   UNL     1      11.376  -2.671  -4.459  0.00  0.00    +0.017 A 
ATOM     28  C   UNL     1      10.122  -2.837  -3.917  0.00  0.00    +0.042 A 
ATOM     29  S   UNL     1       8.627  -1.884  -3.927  0.00  0.00    -0.052 S 
ATOM     30  F   UNL     1      10.500  -6.042  -2.245  0.00  0.00    -0.203 F 
BRANCH  22  31
ATOM     31  C   UNL     1       7.966  -5.062  -1.890  0.00  0.00    +0.212 C 
BRANCH  31  32
ATOM     32  C   UNL     1       7.383  -6.085  -2.773  0.00  0.00    -0.084 C 
ATOM     33  C   UNL     1       6.918  -6.901  -3.477  0.00  0.00    +0.005 C 
ENDBRANCH  31  32
ENDBRANCH  22  31
ENDBRANCH  18  20
ENDBRANCH   4  18
TORSDOF 7
