REMARK  Name = ZINC05948299
REMARK  4 active torsions:
REMARK  status: ('A' for Active; 'I' for Inactive)
REMARK    1  A    between atoms: N_9  and  C_12
REMARK    2  A    between atoms: C_12  and  C_13
REMARK    3  A    between atoms: C_13  and  C_14
REMARK    4  A    between atoms: N_16  and  C_17
REMARK                            x       y       z     vdW  Elec       q    Type
REMARK                         _______ _______ _______ _____ _____    ______ ____
ROOT
ATOM      1  C   UNL     1      -2.092   5.741   1.064  0.00  0.00    +0.215 C 
ATOM      2  O   UNL     1      -2.601   5.123   1.975  0.00  0.00    -0.276 OA
ATOM      3  N   UNL     1      -1.510   5.081   0.044  0.00  0.00    -0.310 N 
ATOM      4  H   UNL     1      -1.103   5.575  -0.685  0.00  0.00    +0.149 HD
ENDROOT
BRANCH   3   5
ATOM      5  C   UNL     1      -1.490   3.616   0.036  0.00  0.00    +0.035 C 
ATOM      6  C   UNL     1      -0.773   3.123  -1.223  0.00  0.00    +0.029 C 
ATOM      7  C   UNL     1      -0.753   1.593  -1.232  0.00  0.00    -0.008 C 
ATOM      8  C   UNL     1      -0.013   1.086   0.008  0.00  0.00    +0.007 C 
ATOM      9  C   UNL     1      -0.729   1.579   1.267  0.00  0.00    -0.008 C 
ATOM     10  C   UNL     1      -0.750   3.109   1.275  0.00  0.00    +0.029 C 
ATOM     11  C   UNL     1      -2.164   1.050   1.278  0.00  0.00    +0.007 C 
ATOM     12  C   UNL     1      -2.904   1.556   0.038  0.00  0.00    -0.008 C 
ATOM     13  C   UNL     1      -2.188   1.063  -1.221  0.00  0.00    +0.007 C 
ATOM     14  C   UNL     1      -2.925   3.086   0.047  0.00  0.00    +0.029 C 
ENDBRANCH   3   5
BRANCH   1  15
ATOM     15  C   UNL     1      -2.113   7.248   1.072  0.00  0.00    +0.115 C 
BRANCH  15  16
ATOM     16  C   UNL     1      -2.829   7.741   2.331  0.00  0.00    +0.126 C 
BRANCH  16  25
ATOM     17  C   UNL     1      -3.514  13.779   2.026  0.00  0.00    +0.001 A 
ATOM     18  C   UNL     1      -2.311  13.792   2.706  0.00  0.00    +0.001 A 
ATOM     19  C   UNL     1      -1.682  12.604   3.045  0.00  0.00    +0.014 A 
ATOM     20  C   UNL     1      -2.266  11.395   2.699  0.00  0.00    +0.049 A 
ATOM     21  C   UNL     1      -3.493  11.383   2.005  0.00  0.00    +0.049 A 
ATOM     22  C   UNL     1      -4.109  12.578   1.673  0.00  0.00    +0.014 A 
ATOM     23  C   UNL     1      -3.825   9.957   1.798  0.00  0.00    +0.254 C 
ATOM     24  O   UNL     1      -4.814   9.535   1.233  0.00  0.00    -0.270 OA
ATOM     25  N   UNL     1      -2.849   9.206   2.339  0.00  0.00    -0.234 N 
ATOM     26  C   UNL     1      -1.896   9.977   2.894  0.00  0.00    +0.254 C 
ATOM     27  O   UNL     1      -0.899   9.576   3.458  0.00  0.00    -0.270 OA
ENDBRANCH  16  25
ENDBRANCH  15  16
ENDBRANCH   1  15
TORSDOF 4
