REMARK  Name = ZINC09291787
REMARK  8 active torsions:
REMARK  status: ('A' for Active; 'I' for Inactive)
REMARK    1  A    between atoms: C_4  and  C_7
REMARK    2  A    between atoms: C_7  and  O_8
REMARK    3  A    between atoms: O_8  and  C_9
REMARK    4  A    between atoms: C_12  and  C_15
REMARK    5  A    between atoms: C_22  and  N_37
REMARK    6  A    between atoms: C_23  and  C_35
REMARK    7  A    between atoms: C_24  and  C_26
REMARK    8  A    between atoms: C_30  and  N_32
REMARK                            x       y       z     vdW  Elec       q    Type
REMARK                         _______ _______ _______ _____ _____    ______ ____
ROOT
ATOM      1  C   UNL     1       9.256  -3.973   2.098  0.00  0.00    +0.100 A 
ATOM      2  C   UNL     1      10.146  -3.484   3.059  0.00  0.00    +0.054 A 
ATOM      3  C   UNL     1      11.274  -4.252   3.020  0.00  0.00    +0.223 A 
ATOM      4  N   UNL     1      11.097  -5.192   2.069  0.00  0.00    -0.246 N 
ATOM      5  H   UNL     1      11.735  -5.880   1.821  0.00  0.00    +0.192 HD
ATOM      6  N   UNL     1       9.825  -5.005   1.505  0.00  0.00    -0.171 NA
ATOM      7  O   UNL     1      12.337  -4.033   3.833  0.00  0.00    -0.423 OA
ATOM      8  C   UNL     1      12.380  -2.865   4.504  0.00  0.00    +0.200 C 
ATOM      9  C   UNL     1      11.327  -2.027   4.623  0.00  0.00    +0.098 C 
ATOM     10  C   UNL     1       9.982  -2.327   4.011  0.00  0.00    +0.102 C 
ENDROOT
BRANCH   1  14
ATOM     11  C   UNL     1       5.387  -2.419   1.252  0.00  0.00    +0.121 A 
ATOM     12  C   UNL     1       5.585  -3.792   1.310  0.00  0.00    +0.046 A 
ATOM     13  C   UNL     1       6.838  -4.298   1.584  0.00  0.00    +0.013 A 
ATOM     14  C   UNL     1       7.906  -3.431   1.803  0.00  0.00    +0.003 A 
ATOM     15  C   UNL     1       7.705  -2.053   1.743  0.00  0.00    +0.013 A 
ATOM     16  C   UNL     1       6.450  -1.552   1.464  0.00  0.00    +0.046 A 
BRANCH  11  17
ATOM     17  O   UNL     1       4.151  -1.923   0.982  0.00  0.00    -0.487 OA
BRANCH  17  18
ATOM     18  C   UNL     1       3.102  -2.871   0.775  0.00  0.00    +0.264 C 
BRANCH  18  22
ATOM     19  C   UNL     1      -0.549  -0.806  -0.033  0.00  0.00    +0.000 A 
ATOM     20  C   UNL     1       0.291  -1.158  -1.073  0.00  0.00    +0.000 A 
ATOM     21  C   UNL     1       1.473  -1.826  -0.812  0.00  0.00    +0.007 A 
ATOM     22  C   UNL     1       1.815  -2.142   0.490  0.00  0.00    -0.010 A 
ATOM     23  C   UNL     1       0.975  -1.789   1.530  0.00  0.00    +0.007 A 
ATOM     24  C   UNL     1      -0.207  -1.122   1.268  0.00  0.00    +0.000 A 
ENDBRANCH  18  22
ENDBRANCH  17  18
ENDBRANCH  11  17
ENDBRANCH   1  14
BRANCH  10  25
ATOM     25  C   UNL     1       9.000  -2.695   5.093  0.00  0.00    -0.032 A 
ATOM     26  C   UNL     1       9.216  -3.819   5.869  0.00  0.00    +0.005 A 
ATOM     27  C   UNL     1       8.316  -4.157   6.862  0.00  0.00    +0.003 A 
ATOM     28  C   UNL     1       7.200  -3.370   7.080  0.00  0.00    +0.033 A 
ATOM     29  C   UNL     1       6.985  -2.246   6.305  0.00  0.00    +0.126 A 
ATOM     30  C   UNL     1       7.887  -1.906   5.315  0.00  0.00    +0.037 A 
BRANCH  29  31
ATOM     31  N   UNL     1       5.790  -1.404   6.538  0.00  0.00    +0.056 N 
ATOM     32  O   UNL     1       5.002  -1.700   7.406  0.00  0.00    -0.126 OA
ATOM     33  O   UNL     1       5.601  -0.421   5.860  0.00  0.00    -0.126 OA
ENDBRANCH  29  31
ENDBRANCH  10  25
BRANCH   8  34
ATOM     34  N   UNL     1      13.563  -2.505   5.101  0.00  0.00    -0.328 N 
ATOM     35  H   UNL     1      14.337  -3.086   5.033  0.00  0.00    +0.145 HD
ATOM     36  H   UNL     1      13.625  -1.670   5.591  0.00  0.00    +0.145 HD
ENDBRANCH   8  34
BRANCH   9  37
ATOM     37  C   UNL     1      11.493  -0.809   5.359  0.00  0.00    +0.101 C 
ATOM     38  N   UNL     1      11.626   0.156   5.943  0.00  0.00    -0.191 NA
ENDBRANCH   9  37
TORSDOF 8
