REMARK  Name = ZINC64348414
REMARK  4 active torsions:
REMARK  status: ('A' for Active; 'I' for Inactive)
REMARK    1  A    between atoms: C_8  and  C_31
REMARK    2  A    between atoms: N_19  and  C_23
REMARK    3  A    between atoms: C_23  and  C_24
REMARK    4  A    between atoms: C_35  and  N_37
REMARK                            x       y       z     vdW  Elec       q    Type
REMARK                         _______ _______ _______ _____ _____    ______ ____
ROOT
ATOM      1  C   UNL     1       0.058   1.520  -0.415  0.00  0.00    +0.001 A 
ATOM      2  C   UNL     1       1.223   2.283  -0.544  0.00  0.00    +0.002 A 
ATOM      3  C   UNL     1       2.480   1.772  -0.522  0.00  0.00    +0.026 A 
ATOM      4  C   UNL     1       2.613   0.362  -0.357  0.00  0.00    +0.043 A 
ATOM      5  N   UNL     1       3.677  -0.384  -0.321  0.00  0.00    -0.375 N 
ATOM      6  C   UNL     1       3.264  -1.766  -0.063  0.00  0.00    +0.131 C 
ATOM      7  C   UNL     1       3.731  -2.713  -1.172  0.00  0.00    +0.133 C 
ATOM      8  N   UNL     1       2.969  -3.975  -1.038  0.00  0.00    -0.279 N 
ATOM      9  C   UNL     1       1.515  -3.950  -1.157  0.00  0.00    +0.167 C 
ATOM     10  C   UNL     1       0.919  -3.017  -0.088  0.00  0.00    +0.065 C 
ATOM     11  C   UNL     1       1.741  -1.748  -0.099  0.00  0.00    -0.034 C 
ATOM     12  C   UNL     1       1.383  -0.476  -0.226  0.00  0.00    -0.001 A 
ATOM     13  C   UNL     1       0.061   0.170  -0.257  0.00  0.00    +0.010 A 
ATOM     14  C   UNL     1       0.904  -5.306  -1.021  0.00  0.00    +0.237 C 
ATOM     15  O   UNL     1      -0.301  -5.399  -1.126  0.00  0.00    -0.274 OA
ATOM     16  N   UNL     1       1.597  -6.420  -0.793  0.00  0.00    -0.287 N 
ATOM     17  C   UNL     1       3.043  -6.451  -0.647  0.00  0.00    +0.204 C 
ATOM     18  C   UNL     1       3.656  -5.100  -0.811  0.00  0.00    +0.234 C 
ATOM     19  O   UNL     1       4.862  -5.014  -0.712  0.00  0.00    -0.274 OA
ATOM     20  H   UNL     1       4.589  -0.079  -0.444  0.00  0.00    +0.160 HD
ENDROOT
BRANCH   7  21
ATOM     21  C   UNL     1       5.205  -2.987  -1.022  0.00  0.00    -0.023 A 
ATOM     22  C   UNL     1       5.778  -3.019   0.236  0.00  0.00    +0.005 A 
ATOM     23  C   UNL     1       7.130  -3.271   0.374  0.00  0.00    +0.003 A 
ATOM     24  C   UNL     1       7.909  -3.491  -0.747  0.00  0.00    +0.033 A 
ATOM     25  C   UNL     1       7.337  -3.460  -2.004  0.00  0.00    +0.127 A 
ATOM     26  C   UNL     1       5.983  -3.213  -2.142  0.00  0.00    +0.038 A 
BRANCH  25  27
ATOM     27  N   UNL     1       8.172  -3.695  -3.204  0.00  0.00    +0.056 N 
ATOM     28  O   UNL     1       9.354  -3.914  -3.083  0.00  0.00    -0.126 OA
ATOM     29  O   UNL     1       7.671  -3.668  -4.304  0.00  0.00    -0.126 OA
ENDBRANCH  25  27
ENDBRANCH   7  21
BRANCH  16  30
ATOM     30  C   UNL     1       0.862  -7.682  -0.681  0.00  0.00    +0.143 C 
BRANCH  30  31
ATOM     31  C   UNL     1       0.746  -8.317  -2.043  0.00  0.00    -0.030 A 
ATOM     32  C   UNL     1      -0.334  -8.021  -2.854  0.00  0.00    +0.008 A 
ATOM     33  C   UNL     1      -0.441  -8.603  -4.103  0.00  0.00    +0.038 A 
ATOM     34  C   UNL     1       0.534  -9.483  -4.542  0.00  0.00    +0.123 A 
ATOM     35  C   UNL     1       1.615  -9.779  -3.729  0.00  0.00    +0.038 A 
ATOM     36  C   UNL     1       1.723  -9.192  -2.483  0.00  0.00    +0.008 A 
ATOM     37  F   UNL     1       0.430 -10.052  -5.763  0.00  0.00    -0.205 F 
ENDBRANCH  30  31
ENDBRANCH  16  30
TORSDOF 4
