REMARK  Name = ZINC13140557
REMARK  11 active torsions:
REMARK  status: ('A' for Active; 'I' for Inactive)
REMARK    1  A    between atoms: C_1  and  C_2
REMARK    2  A    between atoms: C_2  and  C_34
REMARK    3  A    between atoms: C_3  and  N_20
REMARK    4  A    between atoms: N_5  and  N_9
REMARK    5  A    between atoms: C_10  and  C_11
REMARK    6  A    between atoms: C_14  and  N_17
REMARK    7  A    between atoms: N_17  and  C_18
REMARK    8  A    between atoms: N_17  and  C_19
REMARK    9  A    between atoms: N_20  and  O_33
REMARK   10  A    between atoms: N_23  and  C_24
REMARK   11  A    between atoms: C_27  and  N_30
REMARK                            x       y       z     vdW  Elec       q    Type
REMARK                         _______ _______ _______ _____ _____    ______ ____
ROOT
ATOM      1  C   UNL     1      -1.699   2.172  -0.199  0.00  0.00    +0.026 C 
ATOM      2  C   UNL     1      -1.273   0.707  -0.310  0.00  0.00    +0.056 C 
ATOM      3  C   UNL     1      -0.210   0.507  -1.422  0.00  0.00    +0.232 C 
ATOM      4  N   UNL     1       1.137   0.601  -0.889  0.00  0.00    -0.187 N 
ATOM      5  C   UNL     1       1.353   0.425   0.429  0.00  0.00    +0.132 C 
ATOM      6  S   UNL     1       2.858   0.432   1.246  0.00  0.00    -0.026 S 
ATOM      7  S   UNL     1      -0.266   0.184   1.143  0.00  0.00    -0.091 S 
ATOM      8  C   UNL     1      -2.480  -0.210  -0.514  0.00  0.00    +0.026 C 
ENDROOT
BRANCH   3   9
ATOM      9  N   UNL     1      -0.393  -0.814  -2.028  0.00  0.00    -0.143 N 
ATOM     10  C   UNL     1      -0.369  -0.950  -3.369  0.00  0.00    +0.331 C 
ATOM     11  O   UNL     1      -0.105   0.006  -4.072  0.00  0.00    -0.250 OA
ATOM     12  N   UNL     1      -0.638  -2.145  -3.930  0.00  0.00    -0.268 N 
ATOM     13  H   UNL     1      -0.925  -2.888  -3.376  0.00  0.00    +0.156 HD
BRANCH  12  14
ATOM     14  C   UNL     1      -0.504  -2.315  -5.313  0.00  0.00    +0.035 A 
ATOM     15  C   UNL     1       0.491  -1.636  -6.004  0.00  0.00    +0.025 A 
ATOM     16  C   UNL     1       0.622  -1.806  -7.368  0.00  0.00    +0.034 A 
ATOM     17  C   UNL     1      -0.237  -2.651  -8.046  0.00  0.00    +0.126 A 
ATOM     18  C   UNL     1      -1.230  -3.328  -7.362  0.00  0.00    +0.034 A 
ATOM     19  C   UNL     1      -1.362  -3.167  -5.996  0.00  0.00    +0.025 A 
BRANCH  17  20
ATOM     20  N   UNL     1      -0.095  -2.832  -9.509  0.00  0.00    +0.056 N 
ATOM     21  O   UNL     1       0.772  -2.240 -10.109  0.00  0.00    -0.126 OA
ATOM     22  O   UNL     1      -0.846  -3.570 -10.103  0.00  0.00    -0.126 OA
ENDBRANCH  17  20
ENDBRANCH  12  14
BRANCH   9  23
ATOM     23  O   UNL     1      -0.595  -1.949  -1.206  0.00  0.00    -0.289 OA
ATOM     24  H   UNL     1      -0.626  -2.785  -1.690  0.00  0.00    +0.242 HD
ENDBRANCH   9  23
ENDBRANCH   3   9
BRANCH   4  25
ATOM     25  N   UNL     1       2.212   0.873  -1.745  0.00  0.00    -0.184 NA
ATOM     26  C   UNL     1       2.250   1.989  -2.405  0.00  0.00    +0.138 C 
BRANCH  26  27
ATOM     27  C   UNL     1       3.431   2.324  -3.221  0.00  0.00    -0.005 A 
ATOM     28  C   UNL     1       4.509   1.438  -3.289  0.00  0.00    +0.011 A 
ATOM     29  C   UNL     1       5.611   1.754  -4.053  0.00  0.00    +0.024 A 
ATOM     30  C   UNL     1       5.652   2.954  -4.755  0.00  0.00    +0.029 A 
ATOM     31  C   UNL     1       4.581   3.838  -4.689  0.00  0.00    +0.024 A 
ATOM     32  C   UNL     1       3.473   3.526  -3.933  0.00  0.00    +0.011 A 
BRANCH  30  33
ATOM     33  N   UNL     1       6.770   3.271  -5.527  0.00  0.00    -0.336 N 
ATOM     34  C   UNL     1       7.900   2.340  -5.596  0.00  0.00    +0.129 C 
ATOM     35  C   UNL     1       6.815   4.534  -6.267  0.00  0.00    +0.129 C 
ENDBRANCH  30  33
ENDBRANCH  26  27
ENDBRANCH   4  25
TORSDOF 7
