REMARK  Name = ZINC09442469
REMARK  12 active torsions:
REMARK  status: ('A' for Active; 'I' for Inactive)
REMARK    1  A    between atoms: C_1  and  O_2
REMARK    2  A    between atoms: O_2  and  C_3
REMARK    3  A    between atoms: C_3  and  C_5
REMARK    4  A    between atoms: C_6  and  C_15
REMARK    5  A    between atoms: C_7  and  C_11
REMARK    6  A    between atoms: C_9  and  N_10
REMARK    7  A    between atoms: C_11  and  O_13
REMARK    8  A    between atoms: O_13  and  C_14
REMARK    9  A    between atoms: C_15  and  S_16
REMARK   10  A    between atoms: S_16  and  C_17
REMARK   11  A    between atoms: N_27  and  C_28
REMARK   12  A    between atoms: C_28  and  C_29
REMARK                            x       y       z     vdW  Elec       q    Type
REMARK                         _______ _______ _______ _____ _____    ______ ____
ROOT
ATOM      1  S   UNL     1      -2.111  -0.730  -0.982  0.00  0.00    -0.083 S 
ENDROOT
BRANCH   1   2
ATOM      2  C   UNL     1      -1.717   0.816  -1.730  0.00  0.00    +0.173 A 
ATOM      3  N   UNL     1      -2.396   1.190  -2.787  0.00  0.00    -0.223 NA
ATOM      4  C   UNL     1      -2.143   2.357  -3.413  0.00  0.00    +0.079 A 
ATOM      5  C   UNL     1      -2.864   2.753  -4.543  0.00  0.00    +0.028 A 
ATOM      6  C   UNL     1      -2.574   3.945  -5.146  0.00  0.00    +0.002 A 
ATOM      7  C   UNL     1      -1.572   4.771  -4.653  0.00  0.00    +0.001 A 
ATOM      8  C   UNL     1      -0.851   4.411  -3.549  0.00  0.00    +0.015 A 
ATOM      9  C   UNL     1      -1.124   3.200  -2.914  0.00  0.00    +0.065 A 
ATOM     10  C   UNL     1      -0.381   2.762  -1.724  0.00  0.00    +0.262 A 
ATOM     11  O   UNL     1       0.507   3.445  -1.248  0.00  0.00    -0.267 OA
ATOM     12  N   UNL     1      -0.721   1.571  -1.179  0.00  0.00    -0.285 N 
BRANCH  12  13
ATOM     13  C   UNL     1      -0.013   1.086   0.008  0.00  0.00    +0.159 C 
BRANCH  13  14
ATOM     14  C   UNL     1      -0.729   1.579   1.267  0.00  0.00    +0.138 C 
ATOM     15  C   UNL     1       0.045   1.137   2.534  0.00  0.00    +0.035 C 
ATOM     16  C   UNL     1      -0.418   2.213   3.553  0.00  0.00    +0.031 C 
ATOM     17  C   UNL     1      -0.572   3.464   2.661  0.00  0.00    +0.160 C 
ATOM     18  O   UNL     1      -0.729   3.015   1.310  0.00  0.00    -0.375 OA
ENDBRANCH  13  14
ENDBRANCH  12  13
ENDBRANCH   1   2
BRANCH   1  19
ATOM     19  C   UNL     1      -3.443  -1.278  -2.078  0.00  0.00    +0.114 C 
BRANCH  19  21
ATOM     20  C   UNL     1      -4.988  -2.719  -0.703  0.00  0.00    +0.092 A 
ATOM     21  C   UNL     1      -3.951  -2.620  -1.618  0.00  0.00    -0.000 A 
ATOM     22  C   UNL     1      -3.409  -3.784  -2.093  0.00  0.00    +0.103 A 
ATOM     23  S   UNL     1      -4.353  -5.034  -1.242  0.00  0.00    -0.066 S 
ATOM     24  C   UNL     1      -5.403  -4.004  -0.325  0.00  0.00    +0.078 A 
BRANCH  24  25
ATOM     25  N   UNL     1      -6.398  -4.359   0.554  0.00  0.00    -0.352 N 
ATOM     26  H   UNL     1      -6.915  -3.672   1.004  0.00  0.00    +0.143 HD
ATOM     27  H   UNL     1      -6.582  -5.295   0.726  0.00  0.00    +0.143 HD
ENDBRANCH  24  25
BRANCH  20  28
ATOM     28  C   UNL     1      -5.629  -1.522  -0.150  0.00  0.00    +0.342 C 
ATOM     29  O   UNL     1      -6.591  -1.033  -0.710  0.00  0.00    -0.245 OA
BRANCH  28  31
ATOM     30  C   UNL     1      -5.835   0.220   1.471  0.00  0.00    +0.280 C 
ATOM     31  O   UNL     1      -5.151  -0.963   0.981  0.00  0.00    -0.464 OA
ENDBRANCH  28  31
ENDBRANCH  20  28
BRANCH  22  32
ATOM     32  C   UNL     1      -2.324  -3.959  -3.056  0.00  0.00    +0.346 C 
ATOM     33  O   UNL     1      -1.782  -2.985  -3.545  0.00  0.00    -0.244 OA
BRANCH  32  34
ATOM     34  O   UNL     1      -1.924  -5.199  -3.405  0.00  0.00    -0.464 OA
ATOM     35  C   UNL     1      -0.858  -5.295  -4.352  0.00  0.00    +0.280 C 
ENDBRANCH  32  34
ENDBRANCH  22  32
ENDBRANCH  19  21
ENDBRANCH   1  19
TORSDOF 10
