REMARK  Name = ZINC36525621
REMARK  12 active torsions:
REMARK  status: ('A' for Active; 'I' for Inactive)
REMARK    1  A    between atoms: C_1  and  C_2
REMARK    2  A    between atoms: C_2  and  C_3
REMARK    3  A    between atoms: C_3  and  C_4
REMARK    4  A    between atoms: C_5  and  C_6
REMARK    5  A    between atoms: C_6  and  C_8
REMARK    6  A    between atoms: C_6  and  N_17
REMARK    7  A    between atoms: N_10  and  C_11
REMARK    8  A    between atoms: N_17  and  C_18
REMARK    9  A    between atoms: C_19  and  C_21
REMARK   10  A    between atoms: C_29  and  C_31
REMARK   11  A    between atoms: C_32  and  C_33
REMARK   12  A    between atoms: C_32  and  C_34
REMARK                            x       y       z     vdW  Elec       q    Type
REMARK                         _______ _______ _______ _____ _____    ______ ____
ROOT
ATOM      1  C   UNL     1      -1.963  -4.054   0.968  0.00  0.00    +0.184 C 
ENDROOT
BRANCH   1   2
ATOM      2  C   UNL     1      -3.380  -3.761   0.546  0.00  0.00    +0.238 C 
ATOM      3  O   UNL     1      -3.679  -3.783  -0.629  0.00  0.00    -0.273 OA
ATOM      4  N   UNL     1      -4.313  -3.474   1.474  0.00  0.00    -0.311 N 
ATOM      5  H   UNL     1      -4.074  -3.456   2.414  0.00  0.00    +0.149 HD
BRANCH   4   6
ATOM      6  C   UNL     1      -5.691  -3.190   1.064  0.00  0.00    +0.073 C 
ATOM      7  C   UNL     1      -5.817  -1.711   0.693  0.00  0.00    +0.022 C 
ATOM      8  C   UNL     1      -7.255  -1.413   0.265  0.00  0.00    +0.002 C 
ATOM      9  C   UNL     1      -8.207  -1.732   1.419  0.00  0.00    +0.000 C 
ATOM     10  C   UNL     1      -8.081  -3.211   1.791  0.00  0.00    +0.002 C 
ATOM     11  C   UNL     1      -6.643  -3.508   2.219  0.00  0.00    +0.022 C 
ENDBRANCH   4   6
ENDBRANCH   1   2
BRANCH   1  12
ATOM     12  N   UNL     1      -1.148  -4.333  -0.218  0.00  0.00    -0.289 N 
ATOM     13  C   UNL     1      -1.055  -3.342  -1.293  0.00  0.00    +0.133 C 
ATOM     14  C   UNL     1      -0.484  -5.501  -0.319  0.00  0.00    +0.220 C 
ATOM     15  O   UNL     1      -0.639  -6.362   0.522  0.00  0.00    -0.275 OA
BRANCH  14  16
ATOM     16  C   UNL     1       0.458  -5.740  -1.485  0.00  0.00    +0.079 C 
ATOM     17  C   UNL     1      -0.360  -6.179  -2.694  0.00  0.00    +0.017 C 
ATOM     18  C   UNL     1       0.353  -7.235  -3.537  0.00  0.00    -0.004 C 
ATOM     19  C   UNL     1       0.675  -8.495  -2.706  0.00  0.00    +0.008 C 
ATOM     20  C   UNL     1       1.906  -7.679  -2.236  0.00  0.00    -0.001 C 
ATOM     21  C   UNL     1       1.496  -6.776  -1.073  0.00  0.00    +0.001 C 
ATOM     22  C   UNL     1       2.722  -6.097  -0.454  0.00  0.00    +0.008 C 
ATOM     23  C   UNL     1       1.873  -7.039  -3.625  0.00  0.00    -0.029 C 
ATOM     24  C   UNL     1       2.530  -7.913  -4.712  0.00  0.00    +0.011 C 
ATOM     25  C   UNL     1       2.344  -5.593  -3.736  0.00  0.00    +0.011 C 
ENDBRANCH  14  16
ENDBRANCH   1  12
BRANCH   1  27
ATOM     26  C   UNL     1      -0.264  -2.333   1.307  0.00  0.00    -0.029 C 
ATOM     27  C   UNL     1      -1.398  -2.861   1.695  0.00  0.00    +0.000 C 
BRANCH  26  28
ATOM     28  C   UNL     1       0.251  -1.081   1.970  0.00  0.00    +0.027 C 
BRANCH  28  30
ATOM     29  C   UNL     1       2.189  -0.057   3.168  0.00  0.00    +0.004 C 
ATOM     30  C   UNL     1       1.667  -1.328   2.495  0.00  0.00    +0.001 C 
ENDBRANCH  28  30
ENDBRANCH  26  28
ENDBRANCH   1  27
TORSDOF 7
