REMARK  Name = ZINC39912456
REMARK  10 active torsions:
REMARK  status: ('A' for Active; 'I' for Inactive)
REMARK    1  A    between atoms: C_1  and  C_2
REMARK    2  A    between atoms: C_2  and  O_3
REMARK    3  A    between atoms: O_3  and  C_4
REMARK    4  A    between atoms: C_8  and  C_10
REMARK    5  A    between atoms: C_13  and  C_29
REMARK    6  A    between atoms: N_20  and  C_21
REMARK    7  A    between atoms: C_21  and  C_22
REMARK    8  A    between atoms: C_31  and  C_37
REMARK    9  A    between atoms: C_33  and  C_36
REMARK   10  A    between atoms: C_34  and  O_35
REMARK                            x       y       z     vdW  Elec       q    Type
REMARK                         _______ _______ _______ _____ _____    ______ ____
ROOT
ATOM      1  C   UNL     1      -4.270  -4.375   0.016  0.00  0.00    +0.142 C 
ATOM      2  C   UNL     1      -4.612  -4.937   1.368  0.00  0.00    +0.035 A 
ATOM      3  C   UNL     1      -4.798  -4.695   2.734  0.00  0.00    +0.102 A 
ATOM      4  N   UNL     1      -5.119  -5.843   3.298  0.00  0.00    -0.173 NA
ATOM      5  N   UNL     1      -5.154  -6.785   2.424  0.00  0.00    -0.272 N 
ATOM      6  H   UNL     1      -5.369  -7.712   2.614  0.00  0.00    +0.189 HD
ATOM      7  C   UNL     1      -4.846  -6.287   1.190  0.00  0.00    +0.126 A 
ATOM      8  C   UNL     1      -4.666  -6.609  -0.230  0.00  0.00    +0.266 C 
ATOM      9  O   UNL     1      -4.800  -7.717  -0.713  0.00  0.00    -0.268 OA
ATOM     10  N   UNL     1      -4.331  -5.503  -0.922  0.00  0.00    -0.281 N 
ENDROOT
BRANCH   3  11
ATOM     11  C   UNL     1      -4.659  -3.387   3.421  0.00  0.00    +0.044 A 
ATOM     12  C   UNL     1      -4.441  -2.228   2.680  0.00  0.00    +0.017 A 
ATOM     13  C   UNL     1      -4.312  -1.013   3.324  0.00  0.00    -0.049 A 
ATOM     14  C   UNL     1      -4.398  -0.943   4.703  0.00  0.00    +0.010 A 
ATOM     15  C   UNL     1      -4.614  -2.087   5.447  0.00  0.00    -0.008 A 
ATOM     16  C   UNL     1      -4.751  -3.312   4.813  0.00  0.00    +0.129 A 
ATOM     17  C   UNL     1      -4.706  -2.002   6.949  0.00  0.00    +0.047 C 
ATOM     18  C   UNL     1      -4.076   0.240   2.521  0.00  0.00    +0.044 C 
BRANCH  16  19
ATOM     19  O   UNL     1      -4.969  -4.437   5.543  0.00  0.00    -0.506 OA
ATOM     20  H   UNL     1      -4.161  -4.889   5.819  0.00  0.00    +0.292 HD
ENDBRANCH  16  19
ENDBRANCH   3  11
BRANCH   1  25
ATOM     21  C   UNL     1      -1.427  -1.889  -0.096  0.00  0.00    +0.121 A 
ATOM     22  C   UNL     1      -0.328  -2.721   0.065  0.00  0.00    +0.045 A 
ATOM     23  C   UNL     1      -0.510  -4.083   0.209  0.00  0.00    +0.004 A 
ATOM     24  C   UNL     1      -1.785  -4.617   0.193  0.00  0.00    +0.006 A 
ATOM     25  C   UNL     1      -2.881  -3.790   0.033  0.00  0.00    -0.019 A 
ATOM     26  C   UNL     1      -2.705  -2.426  -0.106  0.00  0.00    +0.051 A 
BRANCH  21  27
ATOM     27  O   UNL     1      -1.251  -0.549  -0.237  0.00  0.00    -0.492 OA
BRANCH  27  29
ATOM     28  C   UNL     1       0.092   1.455  -0.389  0.00  0.00    +0.048 C 
ATOM     29  C   UNL     1       0.094  -0.065  -0.217  0.00  0.00    +0.225 C 
ENDBRANCH  27  29
ENDBRANCH  21  27
ENDBRANCH   1  25
BRANCH  10  30
ATOM     30  C   UNL     1      -4.073  -5.437  -2.363  0.00  0.00    +0.145 C 
BRANCH  30  31
ATOM     31  C   UNL     1      -2.609  -5.683  -2.623  0.00  0.00    -0.012 A 
ATOM     32  C   UNL     1      -1.758  -4.618  -2.849  0.00  0.00    +0.006 A 
ATOM     33  C   UNL     1      -0.415  -4.844  -3.087  0.00  0.00    +0.000 A 
ATOM     34  C   UNL     1       0.077  -6.136  -3.099  0.00  0.00    +0.001 A 
ATOM     35  C   UNL     1      -0.773  -7.202  -2.873  0.00  0.00    +0.020 A 
ATOM     36  C   UNL     1      -2.116  -6.976  -2.629  0.00  0.00    +0.046 A 
ATOM     37 CL   UNL     1      -3.183  -8.314  -2.338  0.00  0.00    -0.083 Cl
ENDBRANCH  30  31
ENDBRANCH  10  30
TORSDOF 7
