REMARK  Name = ZINC39893527
REMARK  7 active torsions:
REMARK  status: ('A' for Active; 'I' for Inactive)
REMARK    1  A    between atoms: C_1  and  C_2
REMARK    2  A    between atoms: C_3  and  C_29
REMARK    3  A    between atoms: N_6  and  C_20
REMARK    4  A    between atoms: C_10  and  N_11
REMARK    5  A    between atoms: N_11  and  C_12
REMARK    6  A    between atoms: C_20  and  C_22
REMARK    7  A    between atoms: C_20  and  C_23
REMARK                            x       y       z     vdW  Elec       q    Type
REMARK                         _______ _______ _______ _____ _____    ______ ____
ROOT
ATOM      1  C   UNL     1       0.347   1.311  -0.004  0.00  0.00    +0.046 C 
ATOM      2  C   UNL     1       0.249  -0.189   0.106  0.00  0.00    -0.015 C 
ATOM      3  C   UNL     1       0.049  -0.969  -1.024  0.00  0.00    +0.118 C 
ATOM      4  C   UNL     1      -0.043  -2.424  -0.890  0.00  0.00    +0.264 C 
ATOM      5  O   UNL     1      -0.218  -3.109  -1.881  0.00  0.00    -0.269 OA
ATOM      6  N   UNL     1       0.065  -3.013   0.314  0.00  0.00    -0.226 N 
ATOM      7  C   UNL     1       0.259  -2.291   1.432  0.00  0.00    +0.255 C 
ATOM      8  O   UNL     1       0.352  -2.853   2.507  0.00  0.00    -0.269 OA
ATOM      9  C   UNL     1       0.366  -0.828   1.361  0.00  0.00    +0.055 C 
ATOM     10  C   UNL     1       0.573  -0.079   2.516  0.00  0.00    +0.085 C 
ENDROOT
BRANCH  10  11
ATOM     11  N   UNL     1       0.836  -0.699   3.681  0.00  0.00    -0.319 N 
ATOM     12  H   UNL     1       0.970  -1.659   3.700  0.00  0.00    +0.152 HD
BRANCH  11  13
ATOM     13  C   UNL     1       0.915   0.041   4.864  0.00  0.00    +0.050 A 
ATOM     14  C   UNL     1       0.717   1.416   4.839  0.00  0.00    +0.026 A 
ATOM     15  C   UNL     1       0.796   2.145   6.010  0.00  0.00    +0.022 A 
ATOM     16  C   UNL     1       1.071   1.507   7.207  0.00  0.00    +0.042 A 
ATOM     17  C   UNL     1       1.269   0.138   7.236  0.00  0.00    +0.041 A 
ATOM     18  C   UNL     1       1.185  -0.598   6.069  0.00  0.00    +0.063 A 
ATOM     19 CL   UNL     1       1.426  -2.317   6.106  0.00  0.00    -0.082 Cl
ATOM     20 CL   UNL     1       1.170   2.428   8.675  0.00  0.00    -0.083 Cl
ENDBRANCH  11  13
ENDBRANCH  10  11
BRANCH   6  21
ATOM     21  C   UNL     1      -0.032  -4.472   0.410  0.00  0.00    +0.112 C 
ATOM     22  C   UNL     1      -0.012  -5.078  -0.995  0.00  0.00    +0.033 C 
BRANCH  21  23
ATOM     23  C   UNL     1      -1.318  -4.845   1.100  0.00  0.00    -0.027 A 
ATOM     24  C   UNL     1      -2.502  -4.230   0.737  0.00  0.00    +0.005 A 
ATOM     25  C   UNL     1      -3.682  -4.572   1.370  0.00  0.00    +0.000 A 
ATOM     26  C   UNL     1      -3.679  -5.531   2.366  0.00  0.00    +0.000 A 
ATOM     27  C   UNL     1      -2.495  -6.148   2.728  0.00  0.00    +0.000 A 
ATOM     28  C   UNL     1      -1.316  -5.808   2.092  0.00  0.00    +0.005 A 
ENDBRANCH  21  23
ENDBRANCH   6  21
BRANCH   3  29
ATOM     29  C   UNL     1      -0.068  -0.355  -2.312  0.00  0.00    +0.105 C 
ATOM     30  N   UNL     1      -0.161   0.132  -3.334  0.00  0.00    -0.191 NA
ENDBRANCH   3  29
TORSDOF 5
