REMARK  Name = ZINC08769564
REMARK  7 active torsions:
REMARK  status: ('A' for Active; 'I' for Inactive)
REMARK    1  A    between atoms: C_1  and  C_2
REMARK    2  A    between atoms: C_2  and  C_3
REMARK    3  A    between atoms: C_3  and  C_5
REMARK    4  A    between atoms: C_3  and  N_6
REMARK    5  A    between atoms: C_9  and  C_15
REMARK    6  A    between atoms: C_10  and  O_14
REMARK    7  A    between atoms: C_12  and  S_13
REMARK                            x       y       z     vdW  Elec       q    Type
REMARK                         _______ _______ _______ _____ _____    ______ ____
ROOT
ATOM      1  N   UNL     1      -3.562   3.767  -3.367  0.00  0.00    -0.285 N 
ATOM      2  C   UNL     1      -2.840   3.263  -2.344  0.00  0.00    +0.260 A 
ATOM      3  O   UNL     1      -3.380   2.611  -1.464  0.00  0.00    -0.267 OA
ATOM      4  C   UNL     1      -1.461   3.500  -2.309  0.00  0.00    +0.069 A 
ATOM      5  C   UNL     1      -0.888   4.250  -3.324  0.00  0.00    +0.222 A 
ATOM      6  N   UNL     1      -1.651   4.719  -4.315  0.00  0.00    -0.189 NA
ATOM      7  C   UNL     1      -2.949   4.492  -4.343  0.00  0.00    +0.172 A 
ENDROOT
BRANCH   4   8
ATOM      8  C   UNL     1      -0.616   2.956  -1.186  0.00  0.00    +0.001 C 
ATOM      9  C   UNL     1      -1.013   3.627   0.103  0.00  0.00    -0.054 A 
ATOM     10  C   UNL     1      -1.250   4.994   0.091  0.00  0.00    +0.002 A 
ATOM     11  C   UNL     1      -1.612   5.650   1.250  0.00  0.00    +0.000 A 
ATOM     12  C   UNL     1      -1.740   4.942   2.431  0.00  0.00    +0.000 A 
ATOM     13  C   UNL     1      -1.506   3.581   2.444  0.00  0.00    +0.004 A 
ATOM     14  C   UNL     1      -1.144   2.921   1.280  0.00  0.00    -0.047 A 
ATOM     15  C   UNL     1      -0.902   1.434   1.343  0.00  0.00    +0.016 C 
ATOM     16  C   UNL     1      -0.134   0.977   0.102  0.00  0.00    -0.077 C 
ATOM     17  N   UNL     1      -0.815   1.503  -1.096  0.00  0.00    +0.387 N 
ATOM     18  H   UNL     1      -0.426   1.054  -1.933  0.00  0.00    -0.085 HD
ATOM     19  H   UNL     1      -1.819   1.300  -1.033  0.00  0.00    -0.085 HD
ENDBRANCH   4   8
BRANCH   1  20
ATOM     20  C   UNL     1      -5.007   3.532  -3.428  0.00  0.00    +0.089 C 
ATOM     21  C   UNL     1      -5.674   4.133  -2.188  0.00  0.00    +0.031 C 
BRANCH  20  23
ATOM     22  C   UNL     1      -4.710   1.446  -4.770  0.00  0.00    +0.006 C 
ATOM     23  C   UNL     1      -5.278   2.027  -3.474  0.00  0.00    +0.021 C 
ENDBRANCH  20  23
ENDBRANCH   1  20
BRANCH   7  24
ATOM     24  S   UNL     1      -3.910   5.141  -5.669  0.00  0.00    -0.105 S 
ATOM     25  H   UNL     1      -2.901   5.793  -6.407  0.00  0.00    +0.110 HD
ENDBRANCH   7  24
BRANCH   5  26
ATOM     26  O   UNL     1       0.442   4.501  -3.314  0.00  0.00    -0.492 OA
ATOM     27  H   UNL     1       0.747   5.032  -4.062  0.00  0.00    +0.294 HD
ENDBRANCH   5  26
TORSDOF 5
