REMARK  Name = ZINC09470815
REMARK  7 active torsions:
REMARK  status: ('A' for Active; 'I' for Inactive)
REMARK    1  A    between atoms: C_3  and  C_27
REMARK    2  A    between atoms: C_6  and  C_7
REMARK    3  A    between atoms: C_7  and  N_52
REMARK    4  A    between atoms: N_11  and  C_14
REMARK    5  A    between atoms: C_17  and  S_23
REMARK    6  A    between atoms: C_19  and  N_20
REMARK    7  A    between atoms: S_23  and  N_26
REMARK                            x       y       z     vdW  Elec       q    Type
REMARK                         _______ _______ _______ _____ _____    ______ ____
ROOT
ATOM      1  C   UNL     1       2.022   1.785   1.436  0.00  0.00    -0.077 C 
ATOM      2  C   UNL     1       1.381   2.013   0.091  0.00  0.00    +0.000 C 
ATOM      3  C   UNL     1      -0.040   1.405   0.103  0.00  0.00    +0.103 C 
ATOM      4  N   UNL     1      -0.002   0.009  -0.004  0.00  0.00    -0.330 N 
ATOM      5  C   UNL     1       0.703  -0.673   1.100  0.00  0.00    +0.086 C 
ATOM      6  C   UNL     1       2.183  -0.610   0.819  0.00  0.00    -0.059 C 
ATOM      7  N   UNL     1       2.839   0.530   1.535  0.00  0.00    +0.383 N 
ATOM      8  H   UNL     1       2.934   0.281   2.527  0.00  0.00    -0.081 HD
ENDROOT
BRANCH   4   9
ATOM      9  C   UNL     1      -1.286  -0.515  -0.176  0.00  0.00    +0.060 A 
ATOM     10  C   UNL     1      -2.227  -0.399   0.839  0.00  0.00    +0.027 A 
ATOM     11  C   UNL     1      -3.497  -0.912   0.663  0.00  0.00    +0.030 A 
ATOM     12  C   UNL     1      -3.828  -1.552  -0.518  0.00  0.00    +0.107 A 
ATOM     13  C   UNL     1      -2.892  -1.674  -1.528  0.00  0.00    +0.063 A 
ATOM     14  C   UNL     1      -1.622  -1.157  -1.361  0.00  0.00    +0.149 A 
BRANCH  14  15
ATOM     15  N   UNL     1      -0.620  -1.289  -2.442  0.00  0.00    +0.058 N 
ATOM     16  O   UNL     1      -0.942  -1.765  -3.516  0.00  0.00    -0.126 OA
ATOM     17  O   UNL     1       0.526  -0.922  -2.258  0.00  0.00    -0.126 OA
ENDBRANCH  14  15
BRANCH  12  18
ATOM     18  S   UNL     1      -5.447  -2.212  -0.736  0.00  0.00    +0.056 S 
ATOM     19  O   UNL     1      -6.302  -1.488   0.140  0.00  0.00    -0.153 OA
ATOM     20  O   UNL     1      -5.673  -2.280  -2.137  0.00  0.00    -0.153 OA
BRANCH  18  21
ATOM     21  N   UNL     1      -5.418  -3.773  -0.185  0.00  0.00    -0.204 NA
ATOM     22  H   UNL     1      -4.596  -4.146   0.172  0.00  0.00    +0.144 HD
ATOM     23  H   UNL     1      -6.222  -4.315  -0.219  0.00  0.00    +0.144 HD
ENDBRANCH  18  21
ENDBRANCH  12  18
ENDBRANCH   4   9
BRANCH   7  24
ATOM     24  C   UNL     1       4.179   0.765   0.972  0.00  0.00    -0.043 C 
BRANCH  24  30
ATOM     25  C   UNL     1       5.765  -0.383   2.532  0.00  0.00    +0.002 A 
ATOM     26  C   UNL     1       6.568  -1.454   2.875  0.00  0.00    +0.012 A 
ATOM     27  C   UNL     1       6.672  -2.540   2.026  0.00  0.00    +0.055 A 
ATOM     28  C   UNL     1       5.969  -2.556   0.835  0.00  0.00    +0.012 A 
ATOM     29  C   UNL     1       5.163  -1.487   0.494  0.00  0.00    +0.002 A 
ATOM     30  C   UNL     1       5.058  -0.401   1.344  0.00  0.00    -0.064 A 
BRANCH  27  31
ATOM     31  C   UNL     1       7.551  -3.706   2.397  0.00  0.00    +0.417 C 
ATOM     32  F   UNL     1       8.842  -3.493   1.903  0.00  0.00    -0.166 F 
ATOM     33  F   UNL     1       7.599  -3.829   3.790  0.00  0.00    -0.166 F 
ATOM     34  F   UNL     1       7.028  -4.880   1.844  0.00  0.00    -0.166 F 
ENDBRANCH  27  31
ENDBRANCH  24  30
ENDBRANCH   7  24
TORSDOF 7
