REMARK  Name = ZINC35503242
REMARK  5 active torsions:
REMARK  status: ('A' for Active; 'I' for Inactive)
REMARK    1  A    between atoms: C_6  and  N_7
REMARK    2  A    between atoms: C_15  and  C_17
REMARK    3  A    between atoms: N_19  and  C_20
REMARK    4  A    between atoms: C_20  and  C_21
REMARK    5  A    between atoms: C_21  and  C_22
REMARK                            x       y       z     vdW  Elec       q    Type
REMARK                         _______ _______ _______ _____ _____    ______ ____
ROOT
ATOM      1  N   UNL     1      -1.198  -0.721   0.010  0.00  0.00    -0.299 N 
ATOM      2  C   UNL     1      -1.181  -2.104  -0.103  0.00  0.00    +0.135 A 
ATOM      3  C   UNL     1      -2.389  -2.814  -0.207  0.00  0.00    +0.060 A 
ATOM      4  C   UNL     1      -3.805  -2.450  -0.231  0.00  0.00    +0.053 A 
ATOM      5  C   UNL     1      -4.486  -3.601  -0.351  0.00  0.00    +0.196 A 
ATOM      6  O   UNL     1      -3.633  -4.639  -0.403  0.00  0.00    -0.463 OA
ATOM      7  C   UNL     1      -2.360  -4.216  -0.320  0.00  0.00    +0.140 A 
ATOM      8  C   UNL     1      -1.121  -4.849  -0.324  0.00  0.00    +0.080 A 
ATOM      9  C   UNL     1       0.030  -4.079  -0.217  0.00  0.00    +0.131 A 
ATOM     10  N   UNL     1      -0.031  -2.750  -0.117  0.00  0.00    -0.226 NA
ATOM     11  H   UNL     1      -2.043  -0.252   0.098  0.00  0.00    +0.154 HD
ENDROOT
BRANCH   1  17
ATOM     12  C   UNL     1       1.072  -0.454  -0.767  0.00  0.00    +0.025 A 
ATOM     13  C   UNL     1       2.256   0.257  -0.779  0.00  0.00    +0.022 A 
ATOM     14  C   UNL     1       2.377   1.416  -0.033  0.00  0.00    +0.041 A 
ATOM     15  C   UNL     1       1.312   1.867   0.727  0.00  0.00    +0.022 A 
ATOM     16  C   UNL     1       0.126   1.160   0.743  0.00  0.00    +0.025 A 
ATOM     17  C   UNL     1       0.002  -0.004  -0.005  0.00  0.00    +0.032 A 
ATOM     18 CL   UNL     1       3.867   2.307  -0.051  0.00  0.00    -0.084 Cl
ENDBRANCH   1  17
BRANCH   9  19
ATOM     19  C   UNL     1       1.350  -4.745  -0.221  0.00  0.00    +0.263 C 
ATOM     20  O   UNL     1       1.421  -5.954  -0.317  0.00  0.00    -0.269 OA
ATOM     21  N   UNL     1       2.476  -4.010  -0.118  0.00  0.00    -0.310 N 
ATOM     22  H   UNL     1       2.420  -3.045  -0.041  0.00  0.00    +0.149 HD
BRANCH  21  23
ATOM     23  C   UNL     1       3.784  -4.670  -0.122  0.00  0.00    +0.109 C 
BRANCH  23  24
ATOM     24  C   UNL     1       4.886  -3.617   0.006  0.00  0.00    +0.049 C 
BRANCH  24  25
ATOM     25  C   UNL     1       6.232  -4.296   0.002  0.00  0.00    -0.072 C 
ATOM     26  C   UNL     1       6.864  -4.383  -1.124  0.00  0.00    -0.028 C 
ATOM     27  C   UNL     1       8.204  -5.038  -1.287  0.00  0.00    +0.027 C 
ATOM     28  C   UNL     1       8.885  -5.192   0.075  0.00  0.00    +0.004 C 
ATOM     29  C   UNL     1       7.885  -5.828   1.049  0.00  0.00    +0.005 C 
ATOM     30  C   UNL     1       6.758  -4.823   1.305  0.00  0.00    +0.030 C 
ENDBRANCH  24  25
ENDBRANCH  23  24
ENDBRANCH  21  23
ENDBRANCH   9  19
TORSDOF 5
