REMARK  Name = ZINC06979201
REMARK  10 active torsions:
REMARK  status: ('A' for Active; 'I' for Inactive)
REMARK    1  A    between atoms: C_1  and  C_2
REMARK    2  A    between atoms: C_2  and  C_3
REMARK    3  A    between atoms: C_3  and  N_4
REMARK    4  A    between atoms: C_8  and  S_27
REMARK    5  A    between atoms: C_12  and  S_13
REMARK    6  A    between atoms: S_13  and  C_14
REMARK    7  A    between atoms: C_14  and  C_15
REMARK    8  A    between atoms: C_18  and  C_26
REMARK    9  A    between atoms: C_23  and  C_25
REMARK   10  A    between atoms: S_27  and  N_30
REMARK                            x       y       z     vdW  Elec       q    Type
REMARK                         _______ _______ _______ _____ _____    ______ ____
ROOT
ATOM      1  N   UNL     1       0.684  -1.994   1.112  0.00  0.00    -0.319 N 
ATOM      2  C   UNL     1      -0.282  -2.835   1.640  0.00  0.00    +0.070 A 
ATOM      3  C   UNL     1      -1.481  -2.623   2.304  0.00  0.00    +0.030 A 
ATOM      4  C   UNL     1      -2.238  -3.701   2.714  0.00  0.00    +0.030 A 
ATOM      5  C   UNL     1      -1.808  -4.997   2.468  0.00  0.00    +0.107 A 
ATOM      6  C   UNL     1      -0.619  -5.225   1.811  0.00  0.00    +0.058 A 
ATOM      7  C   UNL     1       0.158  -4.144   1.387  0.00  0.00    +0.092 A 
ATOM      8  N   UNL     1       1.345  -4.048   0.733  0.00  0.00    -0.222 NA
ATOM      9  C   UNL     1       1.654  -2.786   0.564  0.00  0.00    +0.170 A 
ENDROOT
BRANCH   5  10
ATOM     10  S   UNL     1      -2.788  -6.360   3.001  0.00  0.00    +0.056 S 
ATOM     11  O   UNL     1      -1.906  -7.466   3.136  0.00  0.00    -0.153 OA
ATOM     12  O   UNL     1      -3.589  -5.889   4.076  0.00  0.00    -0.153 OA
BRANCH  10  13
ATOM     13  N   UNL     1      -3.826  -6.730   1.764  0.00  0.00    -0.204 NA
ATOM     14  H   UNL     1      -3.803  -6.216   0.942  0.00  0.00    +0.144 HD
ATOM     15  H   UNL     1      -4.456  -7.461   1.862  0.00  0.00    +0.144 HD
ENDBRANCH  10  13
ENDBRANCH   5  10
BRANCH   1  16
ATOM     16  C   UNL     1       0.667  -0.529   1.131  0.00  0.00    +0.124 C 
BRANCH  16  18
ATOM     17  C   UNL     1      -0.061   1.519  -0.100  0.00  0.00    +0.005 C 
ATOM     18  C   UNL     1      -0.043  -0.011  -0.121  0.00  0.00    +0.018 C 
ENDBRANCH  16  18
ENDBRANCH   1  16
BRANCH   9  19
ATOM     19  S   UNL     1       3.105  -2.197  -0.244  0.00  0.00    -0.078 S 
BRANCH  19  20
ATOM     20  C   UNL     1       3.974  -3.710  -0.741  0.00  0.00    +0.173 C 
BRANCH  20  21
ATOM     21  C   UNL     1       5.251  -3.345  -1.453  0.00  0.00    +0.226 C 
ATOM     22  O   UNL     1       5.546  -2.179  -1.610  0.00  0.00    -0.275 OA
ATOM     23  N   UNL     1       6.066  -4.314  -1.915  0.00  0.00    -0.295 N 
ATOM     24  C   UNL     1       5.786  -5.727  -1.629  0.00  0.00    +0.073 C 
ATOM     25  C   UNL     1       5.756  -6.501  -2.951  0.00  0.00    +0.022 C 
ATOM     26  C   UNL     1       7.063  -6.261  -3.708  0.00  0.00    +0.004 C 
ATOM     27  C   UNL     1       7.205  -4.770  -4.025  0.00  0.00    +0.022 C 
ATOM     28  C   UNL     1       7.248  -3.977  -2.721  0.00  0.00    +0.073 C 
ATOM     29  C   UNL     1       7.246  -2.479  -3.033  0.00  0.00    +0.028 C 
ATOM     30  C   UNL     1       6.881  -6.294  -0.724  0.00  0.00    +0.028 C 
ENDBRANCH  20  21
ENDBRANCH  19  20
ENDBRANCH   9  19
TORSDOF 7
