REMARK  Name = ZINC67260331
REMARK  9 active torsions:
REMARK  status: ('A' for Active; 'I' for Inactive)
REMARK    1  A    between atoms: C_1  and  C_2
REMARK    2  A    between atoms: N_7  and  C_10
REMARK    3  A    between atoms: C_10  and  C_11
REMARK    4  A    between atoms: C_14  and  C_17
REMARK    5  A    between atoms: C_17  and  C_18
REMARK    6  A    between atoms: C_17  and  C_19
REMARK    7  A    between atoms: C_17  and  C_20
REMARK    8  A    between atoms: C_22  and  C_23
REMARK    9  A    between atoms: C_25  and  C_28
REMARK                            x       y       z     vdW  Elec       q    Type
REMARK                         _______ _______ _______ _____ _____    ______ ____
ROOT
ATOM      1  C   UNL     1      -0.018   1.503   0.010  0.00  0.00    +0.046 C 
ATOM      2  C   UNL     1       0.002  -0.004   0.002  0.00  0.00    -0.017 A 
ATOM      3  C   UNL     1       0.005  -0.699  -1.212  0.00  0.00    +0.076 A 
ATOM      4  C   UNL     1       0.025  -2.108  -1.115  0.00  0.00    +0.116 A 
ATOM      5  N   UNL     1       0.030  -2.884  -2.190  0.00  0.00    -0.230 NA
ATOM      6  C   UNL     1       0.016  -2.384  -3.396  0.00  0.00    +0.203 A 
ATOM      7  N   UNL     1      -0.004  -1.046  -3.615  0.00  0.00    -0.294 N 
ATOM      8  C   UNL     1      -0.010  -0.168  -2.594  0.00  0.00    +0.263 A 
ATOM      9  O   UNL     1      -0.028   1.033  -2.801  0.00  0.00    -0.267 OA
ATOM     10  S   UNL     1       0.039  -2.394   0.637  0.00  0.00    -0.063 S 
ATOM     11  C   UNL     1       0.023  -0.693   1.177  0.00  0.00    +0.082 A 
ENDROOT
BRANCH  11  12
ATOM     12  C   UNL     1       0.029  -0.167   2.548  0.00  0.00    +0.266 A 
ATOM     13  N   UNL     1       0.055  -0.886   3.651  0.00  0.00    -0.187 NA
ATOM     14  C   UNL     1       0.053  -0.078   4.722  0.00  0.00    +0.202 A 
ATOM     15  N   UNL     1       0.025   1.168   4.314  0.00  0.00    -0.056 NA
ATOM     16  O   UNL     1       0.015   1.133   2.895  0.00  0.00    -0.332 OA
BRANCH  14  17
ATOM     17  C   UNL     1       0.077  -0.522   6.138  0.00  0.00    +0.023 A 
ATOM     18  C   UNL     1       0.110  -1.881   6.444  0.00  0.00    +0.013 A 
ATOM     19  C   UNL     1       0.133  -2.289   7.762  0.00  0.00    +0.021 A 
ATOM     20  C   UNL     1       0.122  -1.351   8.780  0.00  0.00    +0.041 A 
ATOM     21  C   UNL     1       0.089   0.000   8.481  0.00  0.00    +0.021 A 
ATOM     22  C   UNL     1       0.072   0.418   7.166  0.00  0.00    +0.013 A 
ATOM     23 CL   UNL     1       0.151  -1.871  10.436  0.00  0.00    -0.084 Cl
ENDBRANCH  14  17
ENDBRANCH  11  12
BRANCH   7  24
ATOM     24  C   UNL     1      -0.018  -0.545  -4.992  0.00  0.00    +0.161 C 
BRANCH  24  25
ATOM     25  C   UNL     1      -1.444  -0.393  -5.456  0.00  0.00    -0.028 A 
ATOM     26  C   UNL     1      -2.087  -1.449  -6.073  0.00  0.00    +0.005 A 
ATOM     27  C   UNL     1      -3.395  -1.310  -6.499  0.00  0.00    +0.004 A 
ATOM     28  C   UNL     1      -4.060  -0.113  -6.307  0.00  0.00    -0.042 A 
ATOM     29  C   UNL     1      -3.417   0.944  -5.689  0.00  0.00    +0.004 A 
ATOM     30  C   UNL     1      -2.111   0.802  -5.259  0.00  0.00    +0.005 A 
BRANCH  28  31
ATOM     31  C   UNL     1      -5.485   0.040  -6.772  0.00  0.00    -0.013 C 
ATOM     32  C   UNL     1      -6.366  -0.991  -6.062  0.00  0.00    +0.015 C 
ATOM     33  C   UNL     1      -5.981   1.449  -6.441  0.00  0.00    +0.015 C 
ATOM     34  C   UNL     1      -5.555  -0.184  -8.284  0.00  0.00    +0.015 C 
ENDBRANCH  28  31
ENDBRANCH  24  25
ENDBRANCH   7  24
TORSDOF 5
