REMARK  Name = ZINC40783549
REMARK  5 active torsions:
REMARK  status: ('A' for Active; 'I' for Inactive)
REMARK    1  A    between atoms: C_1  and  C_2
REMARK    2  A    between atoms: C_13  and  N_30
REMARK    3  A    between atoms: C_14  and  N_18
REMARK    4  A    between atoms: N_18  and  C_19
REMARK    5  A    between atoms: C_27  and  C_29
REMARK                            x       y       z     vdW  Elec       q    Type
REMARK                         _______ _______ _______ _____ _____    ______ ____
ROOT
ATOM      1  C   UNL     1       1.794   1.469   0.148  0.00  0.00    +0.046 C 
ATOM      2  C   UNL     1       1.684  -0.034   0.127  0.00  0.00    -0.024 A 
ATOM      3  C   UNL     1       1.819  -0.707  -1.060  0.00  0.00    +0.005 A 
ATOM      4  C   UNL     1       1.724  -2.089  -1.124  0.00  0.00    +0.001 A 
ATOM      5  C   UNL     1       1.489  -2.806   0.035  0.00  0.00    +0.017 A 
ATOM      6  C   UNL     1       1.353  -2.141   1.228  0.00  0.00    +0.041 A 
ATOM      7  C   UNL     1       1.449  -0.735   1.332  0.00  0.00    +0.083 A 
ATOM      8  N   UNL     1       1.298  -0.228   2.575  0.00  0.00    -0.224 NA
ATOM      9  C   UNL     1       1.082  -0.988   3.625  0.00  0.00    +0.165 A 
ATOM     10  S   UNL     1       1.053  -2.626   2.911  0.00  0.00    -0.052 S 
ATOM     11  N   UNL     1       0.911  -0.615   4.944  0.00  0.00    -0.277 N 
ATOM     12  C   UNL     1       0.690  -1.584   5.918  0.00  0.00    +0.150 A 
ATOM     13  C   UNL     1       0.510  -1.218   7.254  0.00  0.00    +0.106 A 
ATOM     14  C   UNL     1       0.291  -2.231   8.191  0.00  0.00    +0.149 A 
ATOM     15  N   UNL     1       0.263  -3.495   7.778  0.00  0.00    -0.219 NA
ATOM     16  C   UNL     1       0.438  -3.797   6.507  0.00  0.00    +0.225 A 
ATOM     17  N   UNL     1       0.642  -2.872   5.591  0.00  0.00    -0.219 NA
ATOM     18  H   UNL     1       0.945   0.323   5.191  0.00  0.00    +0.156 HD
ENDROOT
BRANCH  13  19
ATOM     19  N   UNL     1       0.548   0.129   7.644  0.00  0.00    -0.353 N 
ATOM     20  H   UNL     1       0.701   0.822   6.982  0.00  0.00    +0.143 HD
ATOM     21  H   UNL     1       0.421   0.368   8.575  0.00  0.00    +0.143 HD
ENDBRANCH  13  19
BRANCH  14  22
ATOM     22  N   UNL     1       0.106  -1.922   9.533  0.00  0.00    -0.297 N 
ATOM     23  H   UNL     1       0.035  -0.996   9.813  0.00  0.00    +0.154 HD
BRANCH  22  24
ATOM     24  C   UNL     1       0.023  -2.942  10.477  0.00  0.00    +0.042 A 
ATOM     25  C   UNL     1       0.626  -4.161  10.242  0.00  0.00    +0.024 A 
ATOM     26  C   UNL     1       0.547  -5.184  11.180  0.00  0.00    +0.004 A 
ATOM     27  C   UNL     1      -0.124  -5.015  12.353  0.00  0.00    +0.026 A 
ATOM     28  C   UNL     1      -0.753  -3.790  12.633  0.00  0.00    +0.048 A 
ATOM     29  C   UNL     1      -0.674  -2.739  11.687  0.00  0.00    +0.020 A 
ATOM     30  C   UNL     1      -1.299  -1.514  11.974  0.00  0.00    +0.013 A 
ATOM     31  C   UNL     1      -1.957  -1.388  13.165  0.00  0.00    +0.021 A 
ATOM     32  C   UNL     1      -1.992  -2.458  14.055  0.00  0.00    +0.013 A 
ATOM     33  N   UNL     1      -1.419  -3.604  13.779  0.00  0.00    -0.358 N 
ATOM     34  C   UNL     1      -2.722  -2.300  15.364  0.00  0.00    +0.063 C 
ATOM     35  H   UNL     1      -1.466  -4.327  14.424  0.00  0.00    +0.166 HD
ENDBRANCH  22  24
ENDBRANCH  14  22
TORSDOF 3
