REMARK  Name = ZINC08641513
REMARK  7 active torsions:
REMARK  status: ('A' for Active; 'I' for Inactive)
REMARK    1  A    between atoms: C_4  and  N_7
REMARK    2  A    between atoms: C_8  and  C_27
REMARK    3  A    between atoms: C_11  and  S_12
REMARK    4  A    between atoms: S_12  and  C_13
REMARK    5  A    between atoms: C_13  and  C_14
REMARK    6  A    between atoms: N_16  and  N_17
REMARK    7  A    between atoms: C_18  and  C_20
REMARK                            x       y       z     vdW  Elec       q    Type
REMARK                         _______ _______ _______ _____ _____    ______ ____
ROOT
ATOM      1  N   UNL     1      -3.764   1.531  -0.159  0.00  0.00    -0.270 N 
ATOM      2  C   UNL     1      -2.500   0.983  -0.132  0.00  0.00    +0.169 A 
ATOM      3  N   UNL     1      -2.643  -0.300   0.108  0.00  0.00    -0.128 NA
ATOM      4  N   UNL     1      -3.889  -0.590   0.226  0.00  0.00    -0.122 NA
ATOM      5  C   UNL     1      -4.622   0.490   0.068  0.00  0.00    +0.197 A 
ENDROOT
BRANCH   2   6
ATOM      6  C   UNL     1      -1.225   1.704  -0.329  0.00  0.00    +0.020 A 
ATOM      7  C   UNL     1      -1.218   2.963  -0.931  0.00  0.00    +0.013 A 
ATOM      8  C   UNL     1      -0.026   3.633  -1.107  0.00  0.00    +0.021 A 
ATOM      9  C   UNL     1       1.163   3.057  -0.693  0.00  0.00    +0.041 A 
ATOM     10  C   UNL     1       1.163   1.806  -0.100  0.00  0.00    +0.021 A 
ATOM     11  C   UNL     1      -0.023   1.126   0.082  0.00  0.00    +0.013 A 
ATOM     12 CL   UNL     1       2.660   3.908  -0.917  0.00  0.00    -0.084 Cl
ENDBRANCH   2   6
BRANCH   1  16
ATOM     13  C   UNL     1      -4.766   5.526  -0.806  0.00  0.00    +0.000 A 
ATOM     14  C   UNL     1      -5.095   4.570  -1.750  0.00  0.00    +0.002 A 
ATOM     15  C   UNL     1      -4.764   3.246  -1.538  0.00  0.00    +0.026 A 
ATOM     16  C   UNL     1      -4.101   2.874  -0.376  0.00  0.00    +0.051 A 
ATOM     17  C   UNL     1      -3.776   3.835   0.572  0.00  0.00    +0.026 A 
ATOM     18  C   UNL     1      -4.104   5.159   0.352  0.00  0.00    +0.002 A 
ENDBRANCH   1  16
BRANCH   5  19
ATOM     19  S   UNL     1      -6.380   0.580   0.143  0.00  0.00    -0.076 S 
BRANCH  19  20
ATOM     20  C   UNL     1      -6.770  -1.155   0.478  0.00  0.00    +0.174 C 
BRANCH  20  21
ATOM     21  C   UNL     1      -8.264  -1.323   0.586  0.00  0.00    +0.239 C 
ATOM     22  O   UNL     1      -8.993  -0.363   0.450  0.00  0.00    -0.273 OA
ATOM     23  N   UNL     1      -8.790  -2.539   0.834  0.00  0.00    -0.233 N 
ATOM     24  H   UNL     1      -8.206  -3.306   0.943  0.00  0.00    +0.173 HD
BRANCH  23  25
ATOM     25  N   UNL     1     -10.178  -2.694   0.934  0.00  0.00    -0.230 N 
ATOM     26  C   UNL     1     -10.704  -3.910   1.182  0.00  0.00    +0.262 C 
ATOM     27  O   UNL     1      -9.973  -4.872   1.318  0.00  0.00    -0.269 OA
ATOM     28  H   UNL     1     -10.761  -1.927   0.826  0.00  0.00    +0.173 HD
BRANCH  26  29
ATOM     29  C   UNL     1     -12.169  -4.074   1.288  0.00  0.00    +0.056 A 
ATOM     30  C   UNL     1     -13.011  -2.971   1.138  0.00  0.00    +0.014 A 
ATOM     31  C   UNL     1     -14.377  -3.132   1.232  0.00  0.00    +0.001 A 
ATOM     32  C   UNL     1     -14.915  -4.382   1.486  0.00  0.00    +0.001 A 
ATOM     33  C   UNL     1     -14.088  -5.479   1.642  0.00  0.00    +0.021 A 
ATOM     34  C   UNL     1     -12.717  -5.333   1.544  0.00  0.00    +0.053 A 
ATOM     35 CL   UNL     1     -11.679  -6.711   1.741  0.00  0.00    -0.083 Cl
ENDBRANCH  26  29
ENDBRANCH  23  25
ENDBRANCH  20  21
ENDBRANCH  19  20
ENDBRANCH   5  19
TORSDOF 7
