REMARK  Name = ZINC15676950
REMARK  8 active torsions:
REMARK  status: ('A' for Active; 'I' for Inactive)
REMARK    1  A    between atoms: C_1  and  C_2
REMARK    2  A    between atoms: C_2  and  C_26
REMARK    3  A    between atoms: C_7  and  O_24
REMARK    4  A    between atoms: N_15  and  C_16
REMARK    5  A    between atoms: C_16  and  C_17
REMARK    6  A    between atoms: C_17  and  N_75
REMARK    7  A    between atoms: O_24  and  C_25
REMARK    8  A    between atoms: N_28  and  C_29
REMARK                            x       y       z     vdW  Elec       q    Type
REMARK                         _______ _______ _______ _____ _____    ______ ____
ROOT
ATOM      1  C   UNL     1      -0.019   1.526   0.010  0.00  0.00    +0.043 C 
ATOM      2  C   UNL     1       0.002  -0.004   0.002  0.00  0.00    +0.128 C 
ATOM      3  C   UNL     1       0.651  -0.482  -1.296  0.00  0.00    +0.157 C 
ATOM      4  N   UNL     1       0.933  -1.918  -1.197  0.00  0.00    -0.334 N 
ATOM      5  C   UNL     1       0.990  -2.868  -2.161  0.00  0.00    +0.053 A 
ATOM      6  C   UNL     1       0.781  -2.816  -3.538  0.00  0.00    +0.072 A 
ATOM      7  C   UNL     1       0.929  -4.002  -4.244  0.00  0.00    +0.122 A 
ATOM      8  C   UNL     1       1.271  -5.198  -3.620  0.00  0.00    +0.046 A 
ATOM      9  C   UNL     1       1.481  -5.278  -2.268  0.00  0.00    +0.013 A 
ATOM     10  C   UNL     1       1.335  -4.095  -1.528  0.00  0.00    +0.001 A 
ATOM     11  C   UNL     1       1.467  -3.833  -0.153  0.00  0.00    +0.041 A 
ATOM     12  C   UNL     1       1.213  -2.521   0.034  0.00  0.00    +0.106 A 
ATOM     13  C   UNL     1       1.200  -1.730   1.277  0.00  0.00    +0.264 C 
ATOM     14  O   UNL     1       1.609  -2.185   2.329  0.00  0.00    -0.268 OA
ATOM     15  N   UNL     1       0.710  -0.472   1.188  0.00  0.00    -0.282 N 
ENDROOT
BRANCH   2  16
ATOM     16  C   UNL     1      -1.417  -0.510   0.050  0.00  0.00    +0.238 C 
ATOM     17  O   UNL     1      -2.323   0.185  -0.358  0.00  0.00    -0.273 OA
ATOM     18  N   UNL     1      -1.679  -1.735   0.547  0.00  0.00    -0.311 N 
ATOM     19  H   UNL     1      -0.954  -2.291   0.874  0.00  0.00    +0.149 HD
BRANCH  18  20
ATOM     20  C   UNL     1      -3.058  -2.227   0.594  0.00  0.00    +0.073 C 
ATOM     21  C   UNL     1      -3.735  -1.725   1.870  0.00  0.00    +0.022 C 
ATOM     22  C   UNL     1      -5.176  -2.239   1.919  0.00  0.00    +0.002 C 
ATOM     23  C   UNL     1      -5.172  -3.769   1.911  0.00  0.00    +0.000 C 
ATOM     24  C   UNL     1      -4.495  -4.271   0.635  0.00  0.00    +0.002 C 
ATOM     25  C   UNL     1      -3.054  -3.757   0.586  0.00  0.00    +0.022 C 
ENDBRANCH  18  20
ENDBRANCH   2  16
BRANCH   7  26
ATOM     26  O   UNL     1       0.734  -3.995  -5.588  0.00  0.00    -0.495 OA
ATOM     27  C   UNL     1       0.896  -5.239  -6.274  0.00  0.00    +0.277 C 
ENDBRANCH   7  26
BRANCH  15  28
ATOM     28  C   UNL     1       0.895   0.446   2.314  0.00  0.00    +0.091 C 
BRANCH  28  29
ATOM     29  C   UNL     1      -0.288   0.319   3.276  0.00  0.00    -0.060 C 
BRANCH  29  36
ATOM     30  C   UNL     1       1.127   0.910   5.161  0.00  0.00    -0.079 C 
ATOM     31  C   UNL     1       1.220   1.641   6.473  0.00  0.00    -0.019 C 
ATOM     32  C   UNL     1       0.633   0.739   7.578  0.00  0.00    -0.002 C 
ATOM     33  C   UNL     1      -0.826   0.751   7.583  0.00  0.00    -0.002 C 
ATOM     34  C   UNL     1      -1.417   0.228   6.257  0.00  0.00    -0.019 C 
ATOM     35  C   UNL     1      -1.329   1.323   5.229  0.00  0.00    -0.079 C 
ATOM     36  N   UNL     1      -0.096   1.283   4.371  0.00  0.00    +0.381 N 
ATOM     37  H   UNL     1       0.050   2.216   3.970  0.00  0.00    -0.082 HD
ENDBRANCH  29  36
ENDBRANCH  28  29
ENDBRANCH  15  28
TORSDOF 6
