REMARK  Name = ZINC64255631
REMARK  6 active torsions:
REMARK  status: ('A' for Active; 'I' for Inactive)
REMARK    1  A    between atoms: C_10  and  C_11
REMARK    2  A    between atoms: C_11  and  C_12
REMARK    3  A    between atoms: N_14  and  N_15
REMARK    4  A    between atoms: N_18  and  C_19
REMARK    5  A    between atoms: N_22  and  C_25
REMARK    6  A    between atoms: C_25  and  C_26
REMARK                            x       y       z     vdW  Elec       q    Type
REMARK                         _______ _______ _______ _____ _____    ______ ____
ROOT
ATOM      1  N   UNL     1       6.756   1.596   2.741  0.00  0.00    -0.218 N 
ATOM      2  C   UNL     1       7.872   2.301   3.015  0.00  0.00    +0.316 C 
ATOM      3  O   UNL     1       8.120   2.626   4.160  0.00  0.00    -0.251 OA
ATOM      4  N   UNL     1       8.711   2.647   2.020  0.00  0.00    -0.296 N 
ATOM      5  H   UNL     1       6.151   1.347   3.458  0.00  0.00    +0.174 HD
ATOM      6  H   UNL     1       8.513   2.389   1.106  0.00  0.00    +0.151 HD
ENDROOT
BRANCH   4   7
ATOM      7  C   UNL     1       9.924   3.414   2.317  0.00  0.00    +0.071 C 
ATOM      8  C   UNL     1       9.591   4.908   2.345  0.00  0.00    +0.004 C 
ATOM      9  C   UNL     1      10.876   5.707   2.577  0.00  0.00    -0.077 C 
ATOM     10  N   UNL     1      11.827   5.436   1.493  0.00  0.00    +0.383 N 
ATOM     11  C   UNL     1      12.206   4.018   1.506  0.00  0.00    -0.077 C 
ATOM     12  C   UNL     1      10.973   3.154   1.232  0.00  0.00    +0.004 C 
ATOM     13  H   UNL     1      11.400   5.661   0.607  0.00  0.00    -0.082 HD
BRANCH  10  14
ATOM     14  C   UNL     1      13.027   6.263   1.678  0.00  0.00    -0.006 C 
BRANCH  14  15
ATOM     15  C   UNL     1      12.667   7.736   1.474  0.00  0.00    +0.325 C 
ATOM     16  F   UNL     1      12.033   7.894   0.237  0.00  0.00    -0.211 F 
ATOM     17  F   UNL     1      11.807   8.152   2.495  0.00  0.00    -0.211 F 
ENDBRANCH  14  15
ENDBRANCH  10  14
ENDBRANCH   4   7
BRANCH   1  20
ATOM     18  C   UNL     1       5.354   0.518   1.148  0.00  0.00    +0.233 C 
ATOM     19  O   UNL     1       4.598   0.207   2.044  0.00  0.00    -0.274 OA
ATOM     20  N   UNL     1       6.470   1.223   1.422  0.00  0.00    -0.233 N 
ATOM     21  H   UNL     1       7.074   1.472   0.705  0.00  0.00    +0.173 HD
BRANCH  18  22
ATOM     22  C   UNL     1       5.046   0.116  -0.271  0.00  0.00    +0.133 C 
BRANCH  22  32
ATOM     23  C   UNL     1       0.076   1.317  -0.512  0.00  0.00    +0.001 A 
ATOM     24  C   UNL     1       1.262   2.050  -0.481  0.00  0.00    +0.001 A 
ATOM     25  C   UNL     1       2.469   1.426  -0.414  0.00  0.00    +0.009 A 
ATOM     26  C   UNL     1       2.525   0.022  -0.375  0.00  0.00    -0.014 A 
ATOM     27  C   UNL     1       1.320  -0.723  -0.406  0.00  0.00    -0.018 A 
ATOM     28  C   UNL     1       0.092  -0.043  -0.476  0.00  0.00    +0.008 A 
ATOM     29  C   UNL     1       1.376  -2.126  -0.367  0.00  0.00    +0.008 A 
ATOM     30  C   UNL     1       2.584  -2.750  -0.299  0.00  0.00    +0.001 A 
ATOM     31  C   UNL     1       3.769  -2.018  -0.268  0.00  0.00    +0.005 A 
ATOM     32  C   UNL     1       3.753  -0.658  -0.305  0.00  0.00    -0.031 A 
ENDBRANCH  22  32
ENDBRANCH  18  22
ENDBRANCH   1  20
TORSDOF 6
