REMARK  Name = ZINC10099919
REMARK  9 active torsions:
REMARK  status: ('A' for Active; 'I' for Inactive)
REMARK    1  A    between atoms: C_1  and  N_2
REMARK    2  A    between atoms: N_2  and  C_3
REMARK    3  A    between atoms: N_2  and  S_6
REMARK    4  A    between atoms: S_6  and  C_9
REMARK    5  A    between atoms: C_12  and  C_15
REMARK    6  A    between atoms: N_17  and  C_18
REMARK    7  A    between atoms: C_19  and  C_28
REMARK    8  A    between atoms: C_31  and  O_33
REMARK    9  A    between atoms: O_33  and  C_34
REMARK                            x       y       z     vdW  Elec       q    Type
REMARK                         _______ _______ _______ _____ _____    ______ ____
ROOT
ATOM      1  C   UNL     1       6.606  -2.401   1.590  0.00  0.00    +0.249 C 
ATOM      2  O   UNL     1       6.903  -1.598   0.727  0.00  0.00    -0.270 OA
ATOM      3  N   UNL     1       5.329  -2.500   2.007  0.00  0.00    -0.275 N 
ATOM      4  H   UNL     1       5.091  -3.141   2.695  0.00  0.00    +0.156 HD
ENDROOT
BRANCH   3   5
ATOM      5  C   UNL     1       4.354  -1.687   1.453  0.00  0.00    +0.085 A 
ATOM      6  C   UNL     1       2.999  -1.642   1.746  0.00  0.00    +0.069 A 
ATOM      7  C   UNL     1       2.179  -0.684   1.016  0.00  0.00    -0.023 A 
ATOM      8  C   UNL     1       2.846   0.061   0.110  0.00  0.00    -0.004 A 
ATOM      9  S   UNL     1       4.530  -0.479   0.224  0.00  0.00    -0.077 S 
ATOM     10  C   UNL     1       2.288   1.104  -0.807  0.00  0.00    +0.043 C 
ATOM     11  C   UNL     1       1.406   2.067  -0.000  0.00  0.00    +0.005 C 
ATOM     12  C   UNL     1      -0.019   1.523   0.010  0.00  0.00    +0.001 C 
ATOM     13  C   UNL     1       0.002  -0.004   0.002  0.00  0.00    +0.005 C 
ATOM     14  C   UNL     1       0.683  -0.535   1.259  0.00  0.00    +0.037 C 
BRANCH   6  15
ATOM     15  C   UNL     1       2.413  -2.526   2.756  0.00  0.00    +0.255 C 
ATOM     16  O   UNL     1       1.984  -3.618   2.434  0.00  0.00    -0.270 OA
ATOM     17  N   UNL     1       2.348  -2.130   4.043  0.00  0.00    -0.217 N 
ATOM     18  C   UNL     1       1.808  -2.944   4.972  0.00  0.00    +0.407 C 
ATOM     19  O   UNL     1       1.381  -4.034   4.650  0.00  0.00    -0.226 OA
ATOM     20  H   UNL     1       2.690  -1.260   4.300  0.00  0.00    +0.161 HD
BRANCH  18  21
ATOM     21  O   UNL     1       1.744  -2.548   6.257  0.00  0.00    -0.453 OA
ATOM     22  C   UNL     1       1.150  -3.476   7.203  0.00  0.00    +0.282 C 
ENDBRANCH  18  21
ENDBRANCH   6  15
ENDBRANCH   3   5
BRANCH   1  26
ATOM     23  C   UNL     1       9.595  -4.895   3.289  0.00  0.00    +0.106 A 
ATOM     24  C   UNL     1       9.936  -3.981   2.308  0.00  0.00    +0.029 A 
ATOM     25  C   UNL     1       8.971  -3.168   1.752  0.00  0.00    +0.015 A 
ATOM     26  C   UNL     1       7.646  -3.269   2.181  0.00  0.00    +0.037 A 
ATOM     27  C   UNL     1       7.309  -4.188   3.176  0.00  0.00    +0.015 A 
ATOM     28  C   UNL     1       8.284  -4.999   3.720  0.00  0.00    +0.029 A 
BRANCH  23  29
ATOM     29  S   UNL     1      10.835  -5.929   3.995  0.00  0.00    +0.061 S 
ATOM     30  O   UNL     1      10.167  -7.075   4.503  0.00  0.00    -0.153 OA
ATOM     31  O   UNL     1      11.881  -6.019   3.038  0.00  0.00    -0.153 OA
BRANCH  29  33
ATOM     32  C   UNL     1      10.858  -5.308   6.627  0.00  0.00    +0.132 C 
ATOM     33  N   UNL     1      11.457  -5.125   5.302  0.00  0.00    -0.177 NA
BRANCH  33  34
ATOM     34  C   UNL     1      12.605  -4.232   5.135  0.00  0.00    +0.080 C 
ATOM     35  C   UNL     1      13.260  -3.677   6.401  0.00  0.00    +0.022 C 
ATOM     36  C   UNL     1      12.417  -2.761   5.512  0.00  0.00    +0.022 C 
ENDBRANCH  33  34
ENDBRANCH  29  33
ENDBRANCH  23  29
ENDBRANCH   1  26
TORSDOF 7
