REMARK  Name = ZINC09672740
REMARK  10 active torsions:
REMARK  status: ('A' for Active; 'I' for Inactive)
REMARK    1  A    between atoms: C_1  and  C_2
REMARK    2  A    between atoms: C_4  and  C_18
REMARK    3  A    between atoms: C_5  and  C_17
REMARK    4  A    between atoms: N_6  and  C_7
REMARK    5  A    between atoms: C_10  and  S_13
REMARK    6  A    between atoms: S_13  and  N_16
REMARK    7  A    between atoms: C_18  and  C_20
REMARK    8  A    between atoms: C_20  and  S_21
REMARK    9  A    between atoms: S_21  and  C_22
REMARK   10  A    between atoms: N_26  and  C_27
REMARK                            x       y       z     vdW  Elec       q    Type
REMARK                         _______ _______ _______ _____ _____    ______ ____
ROOT
ATOM      1  C   UNL     1      -2.072   1.292   6.387  0.00  0.00    +0.064 C 
ATOM      2  C   UNL     1      -2.974   2.451   6.049  0.00  0.00    +0.022 A 
ATOM      3  C   UNL     1      -3.805   3.067   6.907  0.00  0.00    +0.034 A 
ATOM      4  C   UNL     1      -4.477   4.128   6.145  0.00  0.00    +0.039 A 
ATOM      5  C   UNL     1      -3.970   4.053   4.861  0.00  0.00    +0.031 A 
ATOM      6  N   UNL     1      -3.078   3.044   4.822  0.00  0.00    -0.317 N 
ATOM      7  C   UNL     1      -4.350   4.943   3.706  0.00  0.00    +0.064 C 
ENDROOT
BRANCH   6   8
ATOM      8  C   UNL     1      -2.355   2.659   3.684  0.00  0.00    +0.047 A 
ATOM      9  C   UNL     1      -2.560   1.408   3.119  0.00  0.00    +0.028 A 
ATOM     10  C   UNL     1      -1.846   1.032   1.999  0.00  0.00    +0.030 A 
ATOM     11  C   UNL     1      -0.927   1.900   1.439  0.00  0.00    +0.105 A 
ATOM     12  C   UNL     1      -0.716   3.145   2.003  0.00  0.00    +0.030 A 
ATOM     13  C   UNL     1      -1.431   3.529   3.120  0.00  0.00    +0.028 A 
BRANCH  11  14
ATOM     14  S   UNL     1      -0.017   1.417   0.010  0.00  0.00    +0.056 S 
ATOM     15  O   UNL     1       0.002  -0.004   0.002  0.00  0.00    -0.153 OA
ATOM     16  O   UNL     1       1.172   2.195   0.003  0.00  0.00    -0.153 OA
BRANCH  14  17
ATOM     17  N   UNL     1      -0.897   1.885  -1.312  0.00  0.00    -0.204 NA
ATOM     18  H   UNL     1      -1.201   1.223  -1.952  0.00  0.00    +0.144 HD
ATOM     19  H   UNL     1      -1.110   2.822  -1.446  0.00  0.00    +0.144 HD
ENDBRANCH  14  17
ENDBRANCH  11  14
ENDBRANCH   6   8
BRANCH   4  20
ATOM     20  C   UNL     1      -5.477   5.075   6.644  0.00  0.00    +0.175 C 
ATOM     21  O   UNL     1      -5.952   5.905   5.898  0.00  0.00    -0.291 OA
BRANCH  20  22
ATOM     22  C   UNL     1      -5.915   5.018   8.085  0.00  0.00    +0.157 C 
BRANCH  22  23
ATOM     23  S   UNL     1      -7.149   6.306   8.391  0.00  0.00    -0.077 S 
BRANCH  23  24
ATOM     24  C   UNL     1      -7.475   6.018  10.099  0.00  0.00    +0.210 A 
ATOM     25  N   UNL     1      -6.926   5.091  10.853  0.00  0.00    -0.101 NA
ATOM     26  N   UNL     1      -7.383   5.158  12.052  0.00  0.00    -0.022 NA
ATOM     27  N   UNL     1      -8.248   6.108  12.149  0.00  0.00    -0.043 NA
ATOM     28  N   UNL     1      -8.342   6.705  10.879  0.00  0.00    -0.217 N 
BRANCH  28  29
ATOM     29  C   UNL     1      -9.194   7.830  10.486  0.00  0.00    +0.112 C 
ATOM     30  C   UNL     1      -8.885   9.059  11.365  0.00  0.00    +0.027 C 
ATOM     31  C   UNL     1     -10.267   9.725  11.586  0.00  0.00    +0.002 C 
ATOM     32  C   UNL     1     -11.212   8.507  11.739  0.00  0.00    +0.002 C 
ATOM     33  C   UNL     1     -10.673   7.479  10.724  0.00  0.00    +0.027 C 
ENDBRANCH  28  29
ENDBRANCH  23  24
ENDBRANCH  22  23
ENDBRANCH  20  22
ENDBRANCH   4  20
TORSDOF 8
