REMARK  Name = ZINC42377128
REMARK  14 active torsions:
REMARK  status: ('A' for Active; 'I' for Inactive)
REMARK    1  A    between atoms: C_1  and  C_2
REMARK    2  A    between atoms: C_8  and  N_10
REMARK    3  A    between atoms: N_10  and  C_11
REMARK    4  A    between atoms: N_10  and  C_19
REMARK    5  A    between atoms: C_11  and  C_12
REMARK    6  A    between atoms: N_14  and  C_15
REMARK    7  A    between atoms: C_15  and  C_16
REMARK    8  A    between atoms: C_15  and  C_17
REMARK    9  A    between atoms: C_15  and  C_18
REMARK   10  A    between atoms: C_19  and  C_20
REMARK   11  A    between atoms: N_22  and  C_23
REMARK   12  A    between atoms: C_23  and  C_24
REMARK   13  A    between atoms: C_23  and  C_25
REMARK   14  A    between atoms: C_23  and  C_26
REMARK                            x       y       z     vdW  Elec       q    Type
REMARK                         _______ _______ _______ _____ _____    ______ ____
ROOT
ATOM      1  N   UNL     1       0.377  -0.529   2.470  0.00  0.00    +0.393 N 
ATOM      2  H   UNL     1       0.801   0.093   1.798  0.00  0.00    -0.080 HD
ENDROOT
BRANCH   1   9
ATOM      3  C   UNL     1       1.869  -1.129   0.059  0.00  0.00    +0.006 C 
ATOM      4  C   UNL     1       0.666  -1.963   0.506  0.00  0.00    -0.028 C 
ATOM      5  C   UNL     1       0.851  -3.411   0.049  0.00  0.00    +0.002 C 
ATOM      6  C   UNL     1       2.127  -3.983   0.670  0.00  0.00    +0.000 C 
ATOM      7  C   UNL     1       2.015  -3.940   2.195  0.00  0.00    -0.002 C 
ATOM      8  C   UNL     1       1.831  -2.491   2.652  0.00  0.00    -0.015 C 
ATOM      9  C   UNL     1       0.555  -1.920   2.031  0.00  0.00    -0.064 C 
ENDBRANCH   1   9
BRANCH   1  10
ATOM     10  C   UNL     1      -1.057  -0.229   2.579  0.00  0.00    +0.020 C 
BRANCH  10  11
ATOM     11  C   UNL     1      -1.623   0.021   1.205  0.00  0.00    +0.197 C 
ATOM     12  O   UNL     1      -0.879   0.139   0.254  0.00  0.00    -0.278 OA
ATOM     13  N   UNL     1      -2.957   0.114   1.032  0.00  0.00    -0.312 N 
ATOM     14  H   UNL     1      -3.552   0.019   1.792  0.00  0.00    +0.149 HD
BRANCH  13  15
ATOM     15  C   UNL     1      -3.507   0.357  -0.303  0.00  0.00    +0.026 C 
ATOM     16  C   UNL     1      -3.091  -0.778  -1.241  0.00  0.00    +0.031 C 
ATOM     17  C   UNL     1      -5.034   0.418  -0.222  0.00  0.00    +0.031 C 
ATOM     18  C   UNL     1      -2.972   1.685  -0.842  0.00  0.00    +0.031 C 
ENDBRANCH  13  15
ENDBRANCH  10  11
ENDBRANCH   1  10
BRANCH   1  19
ATOM     19  C   UNL     1       1.017  -0.343   3.779  0.00  0.00    +0.020 C 
BRANCH  19  20
ATOM     20  C   UNL     1       2.479  -0.035   3.585  0.00  0.00    +0.197 C 
ATOM     21  O   UNL     1       2.899   0.241   2.481  0.00  0.00    -0.278 OA
ATOM     22  N   UNL     1       3.320  -0.065   4.638  0.00  0.00    -0.312 N 
ATOM     23  H   UNL     1       2.984  -0.285   5.521  0.00  0.00    +0.149 HD
BRANCH  22  24
ATOM     24  C   UNL     1       4.741   0.235   4.448  0.00  0.00    +0.026 C 
ATOM     25  C   UNL     1       4.894   1.653   3.894  0.00  0.00    +0.031 C 
ATOM     26  C   UNL     1       5.468   0.132   5.791  0.00  0.00    +0.031 C 
ATOM     27  C   UNL     1       5.347  -0.766   3.463  0.00  0.00    +0.031 C 
ENDBRANCH  22  24
ENDBRANCH  19  20
ENDBRANCH   1  19
TORSDOF 7
