REMARK  Name = ZINC46560511
REMARK  10 active torsions:
REMARK  status: ('A' for Active; 'I' for Inactive)
REMARK    1  A    between atoms: C_1  and  C_2
REMARK    2  A    between atoms: C_2  and  C_3
REMARK    3  A    between atoms: C_8  and  N_9
REMARK    4  A    between atoms: C_10  and  C_12
REMARK    5  A    between atoms: C_12  and  N_13
REMARK    6  A    between atoms: N_13  and  C_14
REMARK    7  A    between atoms: N_13  and  C_15
REMARK    8  A    between atoms: C_15  and  C_16
REMARK    9  A    between atoms: N_18  and  C_19
REMARK   10  A    between atoms: C_20  and  C_29
REMARK                            x       y       z     vdW  Elec       q    Type
REMARK                         _______ _______ _______ _____ _____    ______ ____
ROOT
ATOM      1  C   UNL     1      -5.407  -0.340   5.120  0.00  0.00    +0.019 C 
ENDROOT
BRANCH   1   2
ATOM      2  C   UNL     1      -5.892  -0.565   6.529  0.00  0.00    +0.201 C 
ATOM      3  O   UNL     1      -5.125  -0.968   7.378  0.00  0.00    -0.278 OA
ATOM      4  N   UNL     1      -7.179  -0.319   6.846  0.00  0.00    -0.281 N 
ATOM      5  H   UNL     1      -7.793   0.003   6.168  0.00  0.00    +0.155 HD
BRANCH   4   6
ATOM      6  C   UNL     1      -7.626  -0.526   8.144  0.00  0.00    +0.090 A 
ATOM      7  C   UNL     1      -8.901  -0.335   8.645  0.00  0.00    +0.084 A 
ATOM      8  C   UNL     1      -9.118  -0.626  10.055  0.00  0.00    -0.018 A 
ATOM      9  C   UNL     1      -8.011  -1.050  10.702  0.00  0.00    -0.004 A 
ATOM     10  S   UNL     1      -6.746  -1.074   9.464  0.00  0.00    -0.077 S 
ATOM     11  C   UNL     1      -7.881  -1.414  12.149  0.00  0.00    +0.043 C 
ATOM     12  C   UNL     1      -9.019  -2.368  12.532  0.00  0.00    +0.005 C 
ATOM     13  C   UNL     1     -10.214  -1.540  12.995  0.00  0.00    +0.001 C 
ATOM     14  C   UNL     1     -10.271  -0.221  12.228  0.00  0.00    +0.005 C 
ATOM     15  C   UNL     1     -10.470  -0.479  10.737  0.00  0.00    +0.037 C 
BRANCH   7  16
ATOM     16  C   UNL     1      -9.966   0.132   7.810  0.00  0.00    +0.102 C 
ATOM     17  N   UNL     1     -10.811   0.503   7.147  0.00  0.00    -0.191 NA
ENDBRANCH   7  16
ENDBRANCH   4   6
ENDBRANCH   1   2
BRANCH   1  18
ATOM     18  N   UNL     1      -3.980  -0.679   5.034  0.00  0.00    +0.389 N 
ATOM     19  C   UNL     1      -3.801  -2.115   5.282  0.00  0.00    -0.095 C 
ATOM     20  H   UNL     1      -3.467  -0.152   5.725  0.00  0.00    -0.081 HD
BRANCH  18  21
ATOM     21  C   UNL     1      -3.478  -0.347   3.694  0.00  0.00    +0.019 C 
BRANCH  21  23
ATOM     22  N   UNL     1      -1.309  -0.339   2.505  0.00  0.00    -0.287 N 
ATOM     23  C   UNL     1      -1.990  -0.578   3.643  0.00  0.00    +0.201 C 
ATOM     24  O   UNL     1      -1.405  -0.980   4.627  0.00  0.00    -0.278 OA
ATOM     25  H   UNL     1      -1.764   0.044   1.739  0.00  0.00    +0.155 HD
BRANCH  22  31
ATOM     26  C   UNL     1       0.600  -1.100   1.236  0.00  0.00    -0.026 A 
ATOM     27  C   UNL     1       1.948  -1.393   1.163  0.00  0.00    +0.005 A 
ATOM     28  C   UNL     1       2.753  -1.237   2.276  0.00  0.00    +0.000 A 
ATOM     29  C   UNL     1       2.212  -0.786   3.466  0.00  0.00    +0.002 A 
ATOM     30  C   UNL     1       0.865  -0.491   3.546  0.00  0.00    +0.023 A 
ATOM     31  C   UNL     1       0.055  -0.642   2.429  0.00  0.00    +0.036 A 
BRANCH  26  33
ATOM     32  C   UNL     1      -0.393   0.066  -0.714  0.00  0.00    +0.009 C 
ATOM     33  C   UNL     1      -0.277  -1.270   0.022  0.00  0.00    +0.033 C 
ENDBRANCH  26  33
ENDBRANCH  22  31
ENDBRANCH  21  23
ENDBRANCH  18  21
ENDBRANCH   1  18
TORSDOF 8
