REMARK  Name = ZINC01591928
REMARK  12 active torsions:
REMARK  status: ('A' for Active; 'I' for Inactive)
REMARK    1  A    between atoms: C_1  and  C_2
REMARK    2  A    between atoms: C_2  and  N_57
REMARK    3  A    between atoms: C_3  and  C_4
REMARK    4  A    between atoms: C_3  and  N_57
REMARK    5  A    between atoms: C_5  and  C_6
REMARK    6  A    between atoms: C_5  and  N_57
REMARK    7  A    between atoms: C_6  and  C_7
REMARK    8  A    between atoms: C_7  and  C_9
REMARK    9  A    between atoms: C_7  and  C_22
REMARK   10  A    between atoms: C_9  and  N_10
REMARK   11  A    between atoms: N_10  and  C_11
REMARK   12  A    between atoms: C_12  and  C_21
REMARK                            x       y       z     vdW  Elec       q    Type
REMARK                         _______ _______ _______ _____ _____    ______ ____
ROOT
ATOM      1  C   UNL     1      -3.187   5.959  -0.125  0.00  0.00    +0.034 C 
ENDROOT
BRANCH   1   2
ATOM      2  C   UNL     1      -1.802   5.451  -0.432  0.00  0.00    -0.041 A 
ATOM      3  C   UNL     1      -0.803   6.340  -0.786  0.00  0.00    +0.005 A 
ATOM      4  C   UNL     1       0.468   5.876  -1.069  0.00  0.00    +0.022 A 
ATOM      5  C   UNL     1       0.741   4.522  -0.997  0.00  0.00    +0.059 A 
ATOM      6  C   UNL     1      -0.259   3.632  -0.642  0.00  0.00    +0.060 A 
ATOM      7  C   UNL     1      -1.531   4.098  -0.365  0.00  0.00    +0.025 A 
ATOM      8 CL   UNL     1       0.083   1.932  -0.552  0.00  0.00    -0.082 Cl
ATOM      9 CL   UNL     1       2.337   3.938  -1.351  0.00  0.00    -0.082 Cl
ENDBRANCH   1   2
BRANCH   1  10
ATOM     10  C   UNL     1      -3.562   5.582   1.310  0.00  0.00    -0.009 C 
BRANCH  10  11
ATOM     11  C   UNL     1      -2.637   6.313   2.286  0.00  0.00    -0.078 C 
BRANCH  11  12
ATOM     12  N   UNL     1      -3.025   5.956   3.667  0.00  0.00    +0.379 N 
ATOM     13  H   UNL     1      -4.033   6.111   3.781  0.00  0.00    -0.082 HD
BRANCH  12  15
ATOM     14  C   UNL     1      -1.229   4.260   3.769  0.00  0.00    -0.017 C 
ATOM     15  C   UNL     1      -2.727   4.531   3.923  0.00  0.00    -0.082 C 
ENDBRANCH  12  15
BRANCH  12  16
ATOM     16  C   UNL     1      -2.296   6.805   4.632  0.00  0.00    -0.082 C 
ATOM     17  C   UNL     1      -2.970   6.685   6.000  0.00  0.00    -0.017 C 
ENDBRANCH  12  16
ENDBRANCH  11  12
ENDBRANCH  10  11
ENDBRANCH   1  10
BRANCH   1  18
ATOM     18  C   UNL     1      -4.188   5.328  -1.095  0.00  0.00    +0.109 C 
BRANCH  18  19
ATOM     19  N   UNL     1      -3.901   5.786  -2.462  0.00  0.00    -0.343 N 
ATOM     20  H   UNL     1      -3.947   6.792  -2.523  0.00  0.00    +0.146 HD
BRANCH  19  21
ATOM     21  C   UNL     1      -4.758   5.192  -3.375  0.00  0.00    +0.041 A 
ATOM     22  C   UNL     1      -4.391   4.044  -4.059  0.00  0.00    -0.013 A 
ATOM     23  C   UNL     1      -5.271   3.473  -4.968  0.00  0.00    +0.088 A 
ATOM     24  C   UNL     1      -6.875   5.097  -4.580  0.00  0.00    +0.050 A 
ATOM     25  C   UNL     1      -6.039   5.736  -3.635  0.00  0.00    +0.019 A 
ATOM     26  C   UNL     1      -6.481   6.899  -2.989  0.00  0.00    +0.013 A 
ATOM     27  C   UNL     1      -7.718   7.396  -3.269  0.00  0.00    +0.021 A 
ATOM     28  C   UNL     1      -8.548   6.766  -4.195  0.00  0.00    +0.043 A 
ATOM     29  C   UNL     1      -8.145   5.638  -4.844  0.00  0.00    +0.046 A 
ATOM     30 CL   UNL     1     -10.118   7.428  -4.526  0.00  0.00    -0.083 Cl
ATOM     31  C   UNL     1      -3.042   3.418  -3.817  0.00  0.00    +0.047 C 
ATOM     32  N   UNL     1      -6.503   3.955  -5.256  0.00  0.00    -0.360 N 
ATOM     33  H   UNL     1      -7.121   3.498  -5.937  0.00  0.00    +0.165 HD
ENDBRANCH  19  21
ENDBRANCH  18  19
ENDBRANCH   1  18
TORSDOF 9
