REMARK  Name = ZINC16638541
REMARK  14 active torsions:
REMARK  status: ('A' for Active; 'I' for Inactive)
REMARK    1  A    between atoms: C_1  and  C_2
REMARK    2  A    between atoms: C_2  and  C_3
REMARK    3  A    between atoms: C_3  and  C_4
REMARK    4  A    between atoms: C_4  and  C_5
REMARK    5  A    between atoms: C_5  and  N_6
REMARK    6  A    between atoms: N_6  and  S_7
REMARK    7  A    between atoms: S_7  and  C_10
REMARK    8  A    between atoms: C_19  and  N_20
REMARK    9  A    between atoms: C_21  and  C_23
REMARK   10  A    between atoms: C_23  and  C_25
REMARK   11  A    between atoms: C_23  and  N_26
REMARK   12  A    between atoms: C_27  and  O_29
REMARK   13  A    between atoms: O_29  and  C_30
REMARK   14  A    between atoms: C_30  and  C_31
REMARK                            x       y       z     vdW  Elec       q    Type
REMARK                         _______ _______ _______ _____ _____    ______ ____
ROOT
ATOM      1  C   UNL     1       3.335   3.785   0.103  0.00  0.00    +0.113 A 
ATOM      2  C   UNL     1       3.409   5.144   0.126  0.00  0.00    +0.029 A 
ATOM      3  C   UNL     1       2.260   5.923   0.247  0.00  0.00    +0.003 A 
ATOM      4  C   UNL     1       1.030   5.346   0.344  0.00  0.00    +0.010 A 
ATOM      5  C   UNL     1       0.915   3.947   0.323  0.00  0.00    +0.005 A 
ATOM      6  C   UNL     1       2.083   3.155   0.201  0.00  0.00    +0.010 A 
ATOM      7  C   UNL     1       1.969   1.754   0.180  0.00  0.00    +0.010 A 
ATOM      8  C   UNL     1       0.743   1.170   0.276  0.00  0.00    +0.002 A 
ATOM      9  C   UNL     1      -0.412   1.938   0.391  0.00  0.00    +0.024 A 
ATOM     10  C   UNL     1      -0.343   3.314   0.422  0.00  0.00    +0.041 A 
ENDROOT
BRANCH  10  11
ATOM     11  N   UNL     1      -1.507   4.075   0.543  0.00  0.00    -0.283 N 
ATOM     12  C   UNL     1      -2.683   3.582   0.107  0.00  0.00    +0.237 C 
ATOM     13  O   UNL     1      -2.746   2.445  -0.312  0.00  0.00    -0.273 OA
ATOM     14  H   UNL     1      -1.469   4.960   0.940  0.00  0.00    +0.155 HD
BRANCH  12  15
ATOM     15  C   UNL     1      -3.920   4.441   0.141  0.00  0.00    +0.159 C 
ATOM     16  C   UNL     1      -4.208   4.864   1.583  0.00  0.00    +0.038 C 
BRANCH  15  17
ATOM     17  N   UNL     1      -5.058   3.681  -0.381  0.00  0.00    -0.270 N 
ATOM     18  C   UNL     1      -6.112   4.327  -0.917  0.00  0.00    +0.401 C 
ATOM     19  O   UNL     1      -6.118   5.542  -0.968  0.00  0.00    -0.226 OA
ATOM     20  H   UNL     1      -5.053   2.712  -0.340  0.00  0.00    +0.153 HD
BRANCH  18  21
ATOM     21  O   UNL     1      -7.158   3.628  -1.397  0.00  0.00    -0.446 OA
BRANCH  21  22
ATOM     22  C   UNL     1      -8.258   4.391  -1.960  0.00  0.00    +0.269 C 
BRANCH  22  23
ATOM     23  C   UNL     1      -9.328   3.446  -2.442  0.00  0.00    -0.010 A 
ATOM     24  C   UNL     1      -9.300   2.975  -3.742  0.00  0.00    +0.007 A 
ATOM     25  C   UNL     1     -10.280   2.106  -4.183  0.00  0.00    +0.000 A 
ATOM     26  C   UNL     1     -11.293   1.714  -3.327  0.00  0.00    +0.000 A 
ATOM     27  C   UNL     1     -11.324   2.190  -2.030  0.00  0.00    +0.000 A 
ATOM     28  C   UNL     1     -10.341   3.056  -1.587  0.00  0.00    +0.007 A 
ENDBRANCH  22  23
ENDBRANCH  21  22
ENDBRANCH  18  21
ENDBRANCH  15  17
ENDBRANCH  12  15
ENDBRANCH  10  11
BRANCH   1  29
ATOM     29  S   UNL     1       4.802   2.821  -0.049  0.00  0.00    +0.059 S 
ATOM     30  O   UNL     1       5.880   3.739  -0.175  0.00  0.00    -0.153 OA
ATOM     31  O   UNL     1       4.752   1.841   0.978  0.00  0.00    -0.153 OA
BRANCH  29  32
ATOM     32  N   UNL     1       4.705   2.006  -1.487  0.00  0.00    -0.190 NA
ATOM     33  H   UNL     1       4.688   1.036  -1.495  0.00  0.00    +0.148 HD
BRANCH  32  34
ATOM     34  C   UNL     1       4.646   2.749  -2.748  0.00  0.00    +0.106 C 
BRANCH  34  35
ATOM     35  C   UNL     1       4.970   1.808  -3.911  0.00  0.00    +0.017 C 
BRANCH  35  36
ATOM     36  C   UNL     1       4.908   2.585  -5.228  0.00  0.00    +0.001 C 
BRANCH  36  38
ATOM     37  C   UNL     1       5.170   2.420  -7.707  0.00  0.00    +0.004 C 
ATOM     38  C   UNL     1       5.232   1.644  -6.390  0.00  0.00    -0.003 C 
ENDBRANCH  36  38
ENDBRANCH  35  36
ENDBRANCH  34  35
ENDBRANCH  32  34
ENDBRANCH  29  32
ENDBRANCH   1  29
TORSDOF 12
