REMARK  Name = ZINC38965568
REMARK  7 active torsions:
REMARK  status: ('A' for Active; 'I' for Inactive)
REMARK    1  A    between atoms: C_1  and  C_2
REMARK    2  A    between atoms: C_4  and  C_8
REMARK    3  A    between atoms: C_16  and  C_19
REMARK    4  A    between atoms: C_21  and  O_27
REMARK    5  A    between atoms: C_24  and  O_25
REMARK    6  A    between atoms: O_25  and  C_26
REMARK    7  A    between atoms: O_27  and  C_28
REMARK                            x       y       z     vdW  Elec       q    Type
REMARK                         _______ _______ _______ _____ _____    ______ ____
ROOT
ATOM      1  C   UNL     1      -0.976  -2.937  -1.266  0.00  0.00    +0.206 C 
ATOM      2  N   UNL     1      -2.460  -2.966  -1.351  0.00  0.00    -0.231 NA
ATOM      3  N   UNL     1      -2.733  -4.210  -2.096  0.00  0.00    -0.225 NA
ATOM      4  C   UNL     1      -1.756  -5.159  -1.529  0.00  0.00    +0.234 C 
ATOM      5  N   UNL     1      -0.561  -4.343  -1.196  0.00  0.00    -0.207 N 
ATOM      6  N   UNL     1       0.704  -4.868  -0.957  0.00  0.00    -0.184 NA
ATOM      7  C   UNL     1       1.079  -6.040  -1.308  0.00  0.00    +0.080 C 
ATOM      8  C   UNL     1       0.257  -7.090  -1.992  0.00  0.00    +0.130 C 
ATOM      9  S   UNL     1      -1.215  -6.356  -2.791  0.00  0.00    -0.114 S 
ATOM     10  H   UNL     1      -2.809  -2.161  -1.849  0.00  0.00    +0.143 HD
ATOM     11  H   UNL     1      -2.579  -4.080  -3.085  0.00  0.00    +0.143 HD
ENDROOT
BRANCH   1  15
ATOM     12  C   UNL     1      -0.018   1.503   0.010  0.00  0.00    +0.067 C 
ATOM     13  C   UNL     1       0.002  -0.004   0.002  0.00  0.00    +0.058 C 
ATOM     14  C   UNL     1      -1.086  -0.777   0.003  0.00  0.00    +0.029 C 
ATOM     15  C   UNL     1      -0.531  -2.190  -0.007  0.00  0.00    +0.190 C 
ATOM     16  N   UNL     1       0.926  -1.973  -0.013  0.00  0.00    -0.177 NA
ATOM     17  N   UNL     1       1.125  -0.756  -0.013  0.00  0.00    -0.159 NA
ENDBRANCH   1  15
BRANCH   7  18
ATOM     18  C   UNL     1       2.477  -6.398  -1.006  0.00  0.00    +0.044 A 
ATOM     19  C   UNL     1       2.972  -7.655  -1.359  0.00  0.00    +0.059 A 
ATOM     20  C   UNL     1       4.285  -7.984  -1.073  0.00  0.00    +0.121 A 
ATOM     21  C   UNL     1       5.111  -7.067  -0.436  0.00  0.00    +0.049 A 
ATOM     22  C   UNL     1       4.628  -5.821  -0.083  0.00  0.00    +0.050 A 
ATOM     23  C   UNL     1       3.317  -5.476  -0.368  0.00  0.00    +0.129 A 
BRANCH  23  24
ATOM     24  O   UNL     1       2.846  -4.248  -0.025  0.00  0.00    -0.494 OA
ATOM     25  C   UNL     1       3.759  -3.360   0.623  0.00  0.00    +0.277 C 
ENDBRANCH  23  24
BRANCH  20  26
ATOM     26  O   UNL     1       4.768  -9.208  -1.416  0.00  0.00    -0.495 OA
ATOM     27  C   UNL     1       6.132  -9.481  -1.091  0.00  0.00    +0.277 C 
ENDBRANCH  20  26
ENDBRANCH   7  18
TORSDOF 4
