REMARK  Name = ZINC04729434
REMARK  9 active torsions:
REMARK  status: ('A' for Active; 'I' for Inactive)
REMARK    1  A    between atoms: C_1  and  C_2
REMARK    2  A    between atoms: C_2  and  C_3
REMARK    3  A    between atoms: C_3  and  C_4
REMARK    4  A    between atoms: C_6  and  C_20
REMARK    5  A    between atoms: C_9  and  C_11
REMARK    6  A    between atoms: C_14  and  O_17
REMARK    7  A    between atoms: O_17  and  C_18
REMARK    8  A    between atoms: C_18  and  C_19
REMARK    9  A    between atoms: C_25  and  O_26
REMARK                            x       y       z     vdW  Elec       q    Type
REMARK                         _______ _______ _______ _____ _____    ______ ____
ROOT
ATOM      1  C   UNL     1       0.013  -4.240  -0.009  0.00  0.00    +0.050 C 
ATOM      2  C   UNL     1       2.397  -4.323   0.347  0.00  0.00    -0.029 C 
ATOM      3  C   UNL     1       2.581  -2.852  -0.044  0.00  0.00    +0.044 C 
ATOM      4  C   UNL     1       1.248  -2.158  -0.021  0.00  0.00    +0.040 C 
ATOM      5  N   UNL     1       0.132  -2.788  -0.013  0.00  0.00    -0.303 NA
ATOM      6  N   UNL     1       1.272  -4.869  -0.437  0.00  0.00    +0.399 N 
ATOM      7  H   UNL     1       1.427  -4.677  -1.434  0.00  0.00    -0.082 HD
ATOM      8  H   UNL     1       1.213  -5.883  -0.289  0.00  0.00    -0.082 HD
ENDROOT
BRANCH   4   9
ATOM      9  C   UNL     1       1.223  -0.684  -0.013  0.00  0.00    -0.004 A 
ATOM     10  C   UNL     1       0.002  -0.004   0.002  0.00  0.00    +0.013 A 
ATOM     11  C   UNL     1      -0.017   1.373   0.010  0.00  0.00    +0.046 A 
ATOM     12  C   UNL     1       1.176   2.086   0.002  0.00  0.00    +0.121 A 
ATOM     13  C   UNL     1       2.392   1.414  -0.013  0.00  0.00    +0.046 A 
ATOM     14  C   UNL     1       2.420   0.037  -0.021  0.00  0.00    +0.013 A 
BRANCH  12  15
ATOM     15  O   UNL     1       1.153   3.444   0.010  0.00  0.00    -0.492 OA
BRANCH  15  16
ATOM     16  C   UNL     1       2.415   4.114   0.001  0.00  0.00    +0.225 C 
ATOM     17  C   UNL     1       2.189   5.627   0.011  0.00  0.00    +0.048 C 
ENDBRANCH  15  16
ENDBRANCH  12  15
ENDBRANCH   4   9
BRANCH   2  18
ATOM     18  C   UNL     1       3.652  -5.094   0.031  0.00  0.00    -0.019 A 
ATOM     19  C   UNL     1       3.774  -5.752  -1.178  0.00  0.00    +0.005 A 
ATOM     20  C   UNL     1       4.928  -6.455  -1.470  0.00  0.00    +0.000 A 
ATOM     21  C   UNL     1       5.958  -6.511  -0.550  0.00  0.00    +0.004 A 
ATOM     22  C   UNL     1       5.840  -5.860   0.662  0.00  0.00    +0.045 A 
ATOM     23  C   UNL     1       4.685  -5.149   0.956  0.00  0.00    +0.118 A 
BRANCH  23  24
ATOM     24  O   UNL     1       4.565  -4.508   2.148  0.00  0.00    -0.507 OA
ATOM     25  H   UNL     1       4.174  -5.048   2.848  0.00  0.00    +0.292 HD
ENDBRANCH  23  24
ENDBRANCH   2  18
BRANCH   1  26
ATOM     26  C   UNL     1      -0.334  -4.713   1.404  0.00  0.00    +0.007 C 
BRANCH  26  28
ATOM     27  C   UNL     1      -2.064  -4.662   3.205  0.00  0.00    +0.004 C 
ATOM     28  C   UNL     1      -1.718  -4.189   1.792  0.00  0.00    -0.003 C 
ENDBRANCH  26  28
ENDBRANCH   1  26
TORSDOF 7
