REMARK  Name = ZINC39910443
REMARK  6 active torsions:
REMARK  status: ('A' for Active; 'I' for Inactive)
REMARK    1  A    between atoms: C_1  and  C_2
REMARK    2  A    between atoms: C_2  and  C_3
REMARK    3  A    between atoms: C_3  and  N_4
REMARK    4  A    between atoms: C_5  and  C_22
REMARK    5  A    between atoms: C_12  and  C_21
REMARK    6  A    between atoms: C_14  and  C_20
REMARK                            x       y       z     vdW  Elec       q    Type
REMARK                         _______ _______ _______ _____ _____    ______ ____
ROOT
ATOM      1  N   UNL     1       0.762  -1.976   1.234  0.00  0.00    -0.284 N 
ATOM      2  C   UNL     1      -0.255  -2.858   1.829  0.00  0.00    +0.144 C 
ATOM      3  C   UNL     1       0.209  -4.252   1.564  0.00  0.00    +0.072 A 
ATOM      4  C   UNL     1      -0.375  -5.550   1.920  0.00  0.00    +0.199 A 
ATOM      5  O   UNL     1      -1.496  -5.673   2.380  0.00  0.00    -0.287 OA
ATOM      6  C   UNL     1       0.530  -6.699   1.665  0.00  0.00    +0.065 A 
ATOM      7  C   UNL     1       0.203  -7.972   2.131  0.00  0.00    +0.018 A 
ATOM      8  C   UNL     1       1.050  -9.019   1.893  0.00  0.00    -0.049 A 
ATOM      9  C   UNL     1       2.230  -8.818   1.191  0.00  0.00    +0.010 A 
ATOM     10  C   UNL     1       2.567  -7.568   0.722  0.00  0.00    -0.007 A 
ATOM     11  C   UNL     1       1.719  -6.484   0.950  0.00  0.00    +0.142 A 
ATOM     12  O   UNL     1       2.066  -5.267   0.472  0.00  0.00    -0.449 OA
ATOM     13  C   UNL     1       1.385  -4.175   0.873  0.00  0.00    +0.199 A 
ATOM     14  C   UNL     1       1.712  -2.752   0.674  0.00  0.00    +0.283 C 
ATOM     15  O   UNL     1       2.696  -2.339   0.093  0.00  0.00    -0.267 OA
ATOM     16  C   UNL     1       3.853  -7.371  -0.039  0.00  0.00    +0.047 C 
ATOM     17  C   UNL     1       0.700 -10.396   2.395  0.00  0.00    +0.044 C 
ENDROOT
BRANCH   2  18
ATOM     18  C   UNL     1      -1.594  -2.622   1.178  0.00  0.00    -0.022 A 
ATOM     19  C   UNL     1      -1.672  -2.420  -0.187  0.00  0.00    +0.006 A 
ATOM     20  C   UNL     1      -2.900  -2.203  -0.784  0.00  0.00    +0.000 A 
ATOM     21  C   UNL     1      -4.049  -2.189  -0.016  0.00  0.00    +0.000 A 
ATOM     22  C   UNL     1      -3.971  -2.391   1.349  0.00  0.00    +0.000 A 
ATOM     23  C   UNL     1      -2.743  -2.612   1.945  0.00  0.00    +0.006 A 
ENDBRANCH   2  18
BRANCH   1  24
ATOM     24  C   UNL     1       0.742  -0.511   1.242  0.00  0.00    +0.109 C 
BRANCH  24  26
ATOM     25  C   UNL     1      -0.019   1.526   0.010  0.00  0.00    +0.005 C 
ATOM     26  C   UNL     1       0.002  -0.004   0.002  0.00  0.00    +0.016 C 
ENDBRANCH  24  26
ENDBRANCH   1  24
TORSDOF 3
