REMARK  Name = ZINC23410334
REMARK  5 active torsions:
REMARK  status: ('A' for Active; 'I' for Inactive)
REMARK    1  A    between atoms: C_4  and  O_23
REMARK    2  A    between atoms: C_5  and  C_7
REMARK    3  A    between atoms: O_23  and  C_24
REMARK    4  A    between atoms: C_24  and  C_25
REMARK    5  A    between atoms: C_28  and  N_31
REMARK                            x       y       z     vdW  Elec       q    Type
REMARK                         _______ _______ _______ _____ _____    ______ ____
ROOT
ATOM      1  C   UNL     1       2.798   0.772  -3.746  0.00  0.00    +0.001 A 
ATOM      2  C   UNL     1       4.000   1.398  -4.017  0.00  0.00    +0.004 A 
ATOM      3  C   UNL     1       4.709   2.007  -2.999  0.00  0.00    +0.046 A 
ATOM      4  C   UNL     1       4.210   1.993  -1.705  0.00  0.00    +0.125 A 
ATOM      5  C   UNL     1       3.006   1.359  -1.434  0.00  0.00    +0.006 A 
ATOM      6  C   UNL     1       2.302   0.752  -2.456  0.00  0.00    +0.008 A 
ENDROOT
BRANCH   5   7
ATOM      7  C   UNL     1       2.464   1.338  -0.028  0.00  0.00    +0.092 C 
ATOM      8  C   UNL     1       1.141   2.058   0.002  0.00  0.00    +0.024 C 
ATOM      9  C   UNL     1      -0.017   1.364   0.009  0.00  0.00    +0.015 C 
ATOM     10  C   UNL     1      -1.348   2.072   0.020  0.00  0.00    +0.051 C 
ATOM     11  C   UNL     1      -1.214   3.403   0.767  0.00  0.00    +0.014 C 
ATOM     12  C   UNL     1      -0.141   4.245   0.069  0.00  0.00    +0.080 C 
ATOM     13  C   UNL     1       1.144   3.464   0.025  0.00  0.00    +0.162 C 
ATOM     14  O   UNL     1       2.204   4.058   0.010  0.00  0.00    -0.292 OA
ATOM     15  N   UNL     1       0.002  -0.004   0.002  0.00  0.00    -0.320 N 
ATOM     16  C   UNL     1       1.110  -0.693   0.413  0.00  0.00    +0.015 C 
ATOM     17  C   UNL     1       2.318  -0.091   0.423  0.00  0.00    +0.024 C 
ATOM     18  C   UNL     1       3.468  -0.778   0.852  0.00  0.00    +0.162 C 
ATOM     19  O   UNL     1       4.542  -0.211   0.838  0.00  0.00    -0.292 OA
ATOM     20  C   UNL     1       3.391  -2.203   1.327  0.00  0.00    +0.080 C 
ATOM     21  C   UNL     1       1.999  -2.458   1.916  0.00  0.00    +0.014 C 
ATOM     22  C   UNL     1       0.952  -2.128   0.850  0.00  0.00    +0.051 C 
ATOM     23  H   UNL     1      -0.881  -0.564  -0.338  0.00  0.00    +0.152 HD
ENDBRANCH   5   7
BRANCH   4  24
ATOM     24  O   UNL     1       4.903   2.595  -0.702  0.00  0.00    -0.487 OA
BRANCH  24  25
ATOM     25  C   UNL     1       6.135   3.228  -1.054  0.00  0.00    +0.264 C 
BRANCH  25  26
ATOM     26  C   UNL     1       6.756   3.837   0.176  0.00  0.00    -0.010 A 
ATOM     27  C   UNL     1       6.460   5.141   0.527  0.00  0.00    +0.009 A 
ATOM     28  C   UNL     1       7.026   5.698   1.658  0.00  0.00    +0.033 A 
ATOM     29  C   UNL     1       7.896   4.955   2.434  0.00  0.00    +0.126 A 
ATOM     30  C   UNL     1       8.196   3.652   2.080  0.00  0.00    +0.033 A 
ATOM     31  C   UNL     1       7.626   3.094   0.951  0.00  0.00    +0.009 A 
BRANCH  29  32
ATOM     32  N   UNL     1       8.506   5.553   3.642  0.00  0.00    +0.056 N 
ATOM     33  O   UNL     1       9.273   4.897   4.325  0.00  0.00    -0.126 OA
ATOM     34  O   UNL     1       8.242   6.700   3.954  0.00  0.00    -0.126 OA
ENDBRANCH  29  32
ENDBRANCH  25  26
ENDBRANCH  24  25
ENDBRANCH   4  24
TORSDOF 5
