REMARK  Name = ZINC20238631
REMARK  5 active torsions:
REMARK  status: ('A' for Active; 'I' for Inactive)
REMARK    1  A    between atoms: C_1  and  C_2
REMARK    2  A    between atoms: C_5  and  N_22
REMARK    3  A    between atoms: C_7  and  C_8
REMARK    4  A    between atoms: C_11  and  C_13
REMARK    5  A    between atoms: N_17  and  C_21
REMARK                            x       y       z     vdW  Elec       q    Type
REMARK                         _______ _______ _______ _____ _____    ______ ____
ROOT
ATOM      1  C   UNL     1       0.002  -0.004   0.002  0.00  0.00    +0.136 A 
ATOM      2  C   UNL     1       0.745  -0.803  -0.892  0.00  0.00    +0.050 A 
ATOM      3  C   UNL     1       0.500  -2.105  -0.580  0.00  0.00    +0.050 A 
ATOM      4  C   UNL     1      -0.431  -2.088   0.553  0.00  0.00    +0.130 A 
ATOM      5  O   UNL     1      -0.680  -0.793   0.849  0.00  0.00    -0.455 OA
ENDROOT
BRANCH   4   6
ATOM      6  C   UNL     1      -0.955  -3.195   1.202  0.00  0.00    +0.066 C 
ATOM      7  C   UNL     1      -1.841  -3.023   2.279  0.00  0.00    +0.080 C 
ATOM      8  C   UNL     1      -2.521  -4.055   3.117  0.00  0.00    +0.258 C 
ATOM      9  O   UNL     1      -2.356  -5.244   2.931  0.00  0.00    -0.269 OA
ATOM     10  N   UNL     1      -3.312  -3.599   4.075  0.00  0.00    -0.258 N 
ATOM     11  C   UNL     1      -3.470  -2.273   4.251  0.00  0.00    +0.120 C 
ATOM     12  S   UNL     1      -4.435  -1.467   5.414  0.00  0.00    -0.027 S 
ATOM     13  S   UNL     1      -2.433  -1.554   2.991  0.00  0.00    -0.061 S 
ATOM     14  C   UNL     1      -4.020  -4.541   4.946  0.00  0.00    +0.139 C 
ENDBRANCH   4   6
BRANCH   1  21
ATOM     15  C   UNL     1      -2.541   1.387   0.021  0.00  0.00    +0.044 C 
ATOM     16  C   UNL     1      -1.242   2.150   0.020  0.00  0.00    -0.040 A 
ATOM     17  C   UNL     1      -1.249   3.527   0.033  0.00  0.00    +0.006 A 
ATOM     18  C   UNL     1      -0.055   4.231   0.025  0.00  0.00    +0.033 A 
ATOM     19  C   UNL     1       1.158   3.559   0.010  0.00  0.00    +0.127 A 
ATOM     20  C   UNL     1       1.187   2.183   0.002  0.00  0.00    +0.044 A 
ATOM     21  C   UNL     1      -0.018   1.459   0.010  0.00  0.00    +0.022 A 
BRANCH  19  22
ATOM     22  N   UNL     1       2.425   4.324   0.002  0.00  0.00    +0.056 N 
ATOM     23  O   UNL     1       3.578   3.688  -0.012  0.00  0.00    -0.126 OA
ATOM     24  O   UNL     1       2.399   5.641   0.009  0.00  0.00    -0.126 OA
ENDBRANCH  19  22
ENDBRANCH   1  21
TORSDOF 3
