REMARK  Name = ZINC20837116
REMARK  6 active torsions:
REMARK  status: ('A' for Active; 'I' for Inactive)
REMARK    1  A    between atoms: C_9  and  C_17
REMARK    2  A    between atoms: N_18  and  N_19
REMARK    3  A    between atoms: C_22  and  S_25
REMARK    4  A    between atoms: S_25  and  C_26
REMARK    5  A    between atoms: C_26  and  C_27
REMARK    6  A    between atoms: N_29  and  C_30
REMARK                            x       y       z     vdW  Elec       q    Type
REMARK                         _______ _______ _______ _____ _____    ______ ____
ROOT
ATOM      1  N   UNL     1       6.025  -0.687  -0.156  0.00  0.00    -0.205 N 
ATOM      2  C   UNL     1       7.220   0.011  -0.268  0.00  0.00    +0.232 A 
ATOM      3  N   UNL     1       8.472  -0.538  -0.295  0.00  0.00    -0.186 NA
ATOM      4  C   UNL     1       9.376   0.479  -0.415  0.00  0.00    +0.211 A 
ATOM      5  N   UNL     1       8.711   1.609  -0.460  0.00  0.00    -0.144 NA
ATOM      6  N   UNL     1       7.345   1.312  -0.372  0.00  0.00    -0.245 N 
ATOM      7  H   UNL     1       6.034  -1.785  -0.079  0.00  0.00    +0.177 HD
ATOM      8  H   UNL     1       6.450   1.952  -0.378  0.00  0.00    +0.192 HD
ENDROOT
BRANCH   1  10
ATOM      9  C   UNL     1       3.706  -0.638  -0.037  0.00  0.00    +0.139 C 
ATOM     10  N   UNL     1       4.807   0.006  -0.141  0.00  0.00    -0.188 NA
BRANCH   9  19
ATOM     11  C   UNL     1       1.126   6.359   0.072  0.00  0.00    +0.001 A 
ATOM     12  C   UNL     1      -0.151   5.620   0.069  0.00  0.00    +0.008 A 
ATOM     13  C   UNL     1      -0.136   4.309   0.051  0.00  0.00    -0.017 A 
ATOM     14  C   UNL     1      -1.371   3.506   0.046  0.00  0.00    +0.009 A 
ATOM     15  C   UNL     1      -1.300   2.192   0.032  0.00  0.00    +0.009 A 
ATOM     16  C   UNL     1      -0.018   1.472   0.010  0.00  0.00    -0.017 A 
ATOM     17  C   UNL     1       0.002  -0.004  -0.011  0.00  0.00    +0.009 A 
ATOM     18  C   UNL     1       1.149  -0.649  -0.025  0.00  0.00    +0.010 A 
ATOM     19  C   UNL     1       2.426   0.090  -0.021  0.00  0.00    +0.002 A 
ATOM     20  C   UNL     1       2.411   1.401  -0.002  0.00  0.00    -0.008 A 
ATOM     21  C   UNL     1       1.123   2.119   0.014  0.00  0.00    -0.002 A 
ATOM     22  C   UNL     1       1.152   3.591   0.034  0.00  0.00    -0.002 A 
ATOM     23  C   UNL     1       2.293   4.238   0.037  0.00  0.00    -0.017 A 
ATOM     24  C   UNL     1       2.273   5.714   0.057  0.00  0.00    +0.008 A 
ATOM     25  C   UNL     1       3.575   3.518   0.019  0.00  0.00    +0.009 A 
ATOM     26  C   UNL     1       3.647   2.204   0.003  0.00  0.00    +0.010 A 
ENDBRANCH   9  19
ENDBRANCH   1  10
BRANCH   4  27
ATOM     27  S   UNL     1      11.127   0.304  -0.496  0.00  0.00    -0.075 S 
BRANCH  27  28
ATOM     28  C   UNL     1      11.732   2.007  -0.648  0.00  0.00    +0.173 C 
BRANCH  28  29
ATOM     29  C   UNL     1      13.237   2.000  -0.727  0.00  0.00    +0.224 C 
ATOM     30  O   UNL     1      13.842   0.950  -0.686  0.00  0.00    -0.275 OA
ATOM     31  N   UNL     1      13.911   3.162  -0.845  0.00  0.00    -0.312 N 
ATOM     32  H   UNL     1      13.363   4.114  -0.882  0.00  0.00    +0.149 HD
BRANCH  31  33
ATOM     33  C   UNL     1      15.374   3.155  -0.922  0.00  0.00    +0.073 C 
ATOM     34  C   UNL     1      15.959   3.128   0.491  0.00  0.00    +0.022 C 
ATOM     35  C   UNL     1      17.487   3.121   0.410  0.00  0.00    +0.002 C 
ATOM     36  C   UNL     1      17.965   4.380  -0.316  0.00  0.00    +0.000 C 
ATOM     37  C   UNL     1      17.380   4.407  -1.729  0.00  0.00    +0.002 C 
ATOM     38  C   UNL     1      15.852   4.414  -1.648  0.00  0.00    +0.022 C 
ENDBRANCH  31  33
ENDBRANCH  28  29
ENDBRANCH  27  28
ENDBRANCH   4  27
TORSDOF 6
