REMARK  Name = ZINC57415851
REMARK  10 active torsions:
REMARK  status: ('A' for Active; 'I' for Inactive)
REMARK    1  A    between atoms: C_1  and  C_2
REMARK    2  A    between atoms: C_2  and  O_3
REMARK    3  A    between atoms: O_3  and  C_4
REMARK    4  A    between atoms: C_9  and  C_10
REMARK    5  A    between atoms: C_12  and  C_31
REMARK    6  A    between atoms: C_13  and  C_18
REMARK    7  A    between atoms: C_18  and  N_19
REMARK    8  A    between atoms: C_31  and  O_33
REMARK    9  A    between atoms: O_33  and  C_34
REMARK   10  A    between atoms: C_34  and  C_35
REMARK                            x       y       z     vdW  Elec       q    Type
REMARK                         _______ _______ _______ _____ _____    ______ ____
ROOT
ATOM      1  C   UNL     1       1.836  -1.237  -3.557  0.00  0.00    +0.147 C 
ATOM      2  C   UNL     1       0.765  -0.809  -4.539  0.00  0.00    +0.079 C 
ATOM      3  C   UNL     1       0.887  -1.218  -5.820  0.00  0.00    +0.038 C 
ATOM      4  N   UNL     1       1.940  -1.993  -6.215  0.00  0.00    -0.271 N 
ATOM      5  C   UNL     1       2.913  -2.400  -5.391  0.00  0.00    +0.304 C 
ATOM      6  O   UNL     1       3.811  -3.087  -5.835  0.00  0.00    -0.252 OA
ATOM      7  N   UNL     1       2.929  -2.071  -4.084  0.00  0.00    -0.288 N 
ATOM      8  H   UNL     1       1.985  -2.263  -7.146  0.00  0.00    +0.156 HD
ATOM      9  H   UNL     1       3.644  -2.377  -3.505  0.00  0.00    +0.151 HD
ENDROOT
BRANCH   1  15
ATOM     10  C   UNL     1       0.540  -1.314  -1.412  0.00  0.00    +0.126 A 
ATOM     11  C   UNL     1      -0.081  -2.018  -0.390  0.00  0.00    +0.046 A 
ATOM     12  C   UNL     1      -0.068  -3.399  -0.398  0.00  0.00    +0.004 A 
ATOM     13  C   UNL     1       0.562  -4.080  -1.424  0.00  0.00    +0.001 A 
ATOM     14  C   UNL     1       1.181  -3.381  -2.443  0.00  0.00    +0.009 A 
ATOM     15  C   UNL     1       1.166  -1.999  -2.442  0.00  0.00    +0.019 A 
BRANCH  10  16
ATOM     16  O   UNL     1       0.529   0.045  -1.406  0.00  0.00    -0.492 OA
BRANCH  16  18
ATOM     17  C   UNL     1      -0.045   2.200  -0.474  0.00  0.00    +0.048 C 
ATOM     18  C   UNL     1      -0.042   0.684  -0.263  0.00  0.00    +0.225 C 
ENDBRANCH  16  18
ENDBRANCH  10  16
ENDBRANCH   1  15
BRANCH   2  19
ATOM     19  C   UNL     1      -0.326  -0.007  -4.128  0.00  0.00    +0.339 C 
ATOM     20  O   UNL     1      -0.181   1.194  -3.994  0.00  0.00    -0.245 OA
BRANCH  19  21
ATOM     21  O   UNL     1      -1.526  -0.574  -3.886  0.00  0.00    -0.462 OA
BRANCH  21  22
ATOM     22  C   UNL     1      -2.609   0.306  -3.578  0.00  0.00    +0.229 C 
ATOM     23  C   UNL     1      -3.849  -0.516  -3.220  0.00  0.00    +0.048 C 
ENDBRANCH  21  22
ENDBRANCH  19  21
ENDBRANCH   2  19
BRANCH   3  24
ATOM     24  C   UNL     1      -0.157  -0.815  -6.830  0.00  0.00    +0.136 C 
BRANCH  24  25
ATOM     25  N   UNL     1       0.456   0.048  -7.849  0.00  0.00    -0.294 NA
ATOM     26  C   UNL     1       0.897   1.321  -7.265  0.00  0.00    +0.103 C 
ATOM     27  C   UNL     1       1.688   2.112  -8.312  0.00  0.00    +0.122 C 
ATOM     28  N   UNL     1       0.864   2.237  -9.524  0.00  0.00    -0.314 N 
ATOM     29  C   UNL     1       0.271   1.016 -10.091  0.00  0.00    +0.122 C 
ATOM     30  C   UNL     1      -0.464   0.268  -8.974  0.00  0.00    +0.103 C 
ATOM     31  C   UNL     1       0.652   3.475 -10.118  0.00  0.00    +0.099 A 
ATOM     32  C   UNL     1       1.331   4.593  -9.644  0.00  0.00    +0.042 A 
ATOM     33  C   UNL     1       1.110   5.819 -10.244  0.00  0.00    +0.005 A 
ATOM     34  C   UNL     1       0.213   5.887 -11.303  0.00  0.00    +0.018 A 
ATOM     35  C   UNL     1      -0.425   4.738 -11.722  0.00  0.00    +0.084 A 
ATOM     36  N   UNL     1      -0.191   3.580 -11.134  0.00  0.00    -0.350 N 
ATOM     37  H   UNL     1      -0.651   2.787 -11.451  0.00  0.00    +0.166 HD
ENDBRANCH  24  25
ENDBRANCH   3  24
TORSDOF 8
