REMARK  Name = ZINC39854323
REMARK  6 active torsions:
REMARK  status: ('A' for Active; 'I' for Inactive)
REMARK    1  A    between atoms: C_1  and  C_2
REMARK    2  A    between atoms: C_2  and  C_27
REMARK    3  A    between atoms: C_7  and  C_11
REMARK    4  A    between atoms: N_13  and  N_14
REMARK    5  A    between atoms: N_14  and  C_15
REMARK    6  A    between atoms: N_14  and  C_21
REMARK                            x       y       z     vdW  Elec       q    Type
REMARK                         _______ _______ _______ _____ _____    ______ ____
ROOT
ATOM      1  C   UNL     1       2.609  -0.562   0.835  0.00  0.00    +0.243 C 
ATOM      2  O   UNL     1       3.372  -0.054   0.042  0.00  0.00    -0.273 OA
ATOM      3  N   UNL     1       3.004  -0.781   2.105  0.00  0.00    -0.229 N 
ATOM      4  H   UNL     1       2.393  -1.187   2.740  0.00  0.00    +0.173 HD
ENDROOT
BRANCH   1  10
ATOM      5  C   UNL     1       0.875   0.845  -1.409  0.00  0.00    +0.012 C 
ATOM      6  C   UNL     1       0.854  -0.652  -1.096  0.00  0.00    -0.011 C 
ATOM      7  C   UNL     1      -0.609  -1.218  -1.017  0.00  0.00    +0.003 C 
ATOM      8  C   UNL     1      -0.332  -2.655  -0.478  0.00  0.00    +0.006 C 
ATOM      9  C   UNL     1       0.883  -2.487   0.464  0.00  0.00    +0.025 C 
ATOM     10  C   UNL     1       1.218  -0.948   0.401  0.00  0.00    +0.111 C 
ATOM     11  C   UNL     1       0.058  -0.249   1.124  0.00  0.00    +0.149 C 
ATOM     12  O   UNL     1       0.094   0.317   2.190  0.00  0.00    -0.296 OA
ATOM     13  C   UNL     1      -1.147  -0.422   0.211  0.00  0.00    +0.079 C 
ATOM     14  C   UNL     1       1.728  -1.447  -2.069  0.00  0.00    +0.012 C 
ENDBRANCH   1  10
BRANCH   3  15
ATOM     15  N   UNL     1       4.296  -0.422   2.508  0.00  0.00    -0.220 N 
BRANCH  15  16
ATOM     16  C   UNL     1       4.613   0.921   2.724  0.00  0.00    +0.053 A 
ATOM     17  C   UNL     1       3.760   1.726   3.470  0.00  0.00    +0.025 A 
ATOM     18  C   UNL     1       4.077   3.054   3.682  0.00  0.00    +0.002 A 
ATOM     19  C   UNL     1       5.240   3.582   3.153  0.00  0.00    +0.000 A 
ATOM     20  C   UNL     1       6.090   2.784   2.410  0.00  0.00    +0.002 A 
ATOM     21  C   UNL     1       5.783   1.454   2.199  0.00  0.00    +0.025 A 
ENDBRANCH  15  16
BRANCH  15  22
ATOM     22  C   UNL     1       5.269  -1.407   2.694  0.00  0.00    +0.053 A 
ATOM     23  C   UNL     1       6.122  -1.346   3.789  0.00  0.00    +0.025 A 
ATOM     24  C   UNL     1       7.082  -2.322   3.970  0.00  0.00    +0.002 A 
ATOM     25  C   UNL     1       7.195  -3.360   3.063  0.00  0.00    +0.000 A 
ATOM     26  C   UNL     1       6.348  -3.424   1.972  0.00  0.00    +0.002 A 
ATOM     27  C   UNL     1       5.382  -2.454   1.788  0.00  0.00    +0.025 A 
ENDBRANCH  15  22
ENDBRANCH   3  15
TORSDOF 4
