REMARK  Name = ZINC03087046
REMARK  7 active torsions:
REMARK  status: ('A' for Active; 'I' for Inactive)
REMARK    1  A    between atoms: C_1  and  C_2
REMARK    2  A    between atoms: C_5  and  C_9
REMARK    3  A    between atoms: C_6  and  O_8
REMARK    4  A    between atoms: N_10  and  N_11
REMARK    5  A    between atoms: C_12  and  C_14
REMARK    6  A    between atoms: C_14  and  N_15
REMARK    7  A    between atoms: C_16  and  C_18
REMARK                            x       y       z     vdW  Elec       q    Type
REMARK                         _______ _______ _______ _____ _____    ______ ____
ROOT
ATOM      1  N   UNL     1       3.820   1.177  -0.992  0.00  0.00    -0.206 N 
ATOM      2  C   UNL     1       2.562   0.739  -1.196  0.00  0.00    +0.249 C 
ATOM      3  O   UNL     1       2.262  -0.400  -0.905  0.00  0.00    -0.272 OA
ATOM      4  H   UNL     1       4.060   2.088  -1.224  0.00  0.00    +0.177 HD
ENDROOT
BRANCH   1   6
ATOM      5  C   UNL     1       5.962   0.769  -0.147  0.00  0.00    +0.142 C 
ATOM      6  N   UNL     1       4.782   0.318  -0.444  0.00  0.00    -0.188 NA
BRANCH   5  11
ATOM      7  C   UNL     1       6.949   6.438  -0.128  0.00  0.00    +0.044 C 
ATOM      8  C   UNL     1       6.694   4.953  -0.134  0.00  0.00    -0.047 A 
ATOM      9  C   UNL     1       5.413   4.474   0.085  0.00  0.00    +0.004 A 
ATOM     10  C   UNL     1       5.168   3.117   0.081  0.00  0.00    +0.013 A 
ATOM     11  C   UNL     1       6.216   2.221  -0.143  0.00  0.00    +0.036 A 
ATOM     12  C   UNL     1       7.512   2.710  -0.358  0.00  0.00    +0.126 A 
ATOM     13  C   UNL     1       7.739   4.077  -0.357  0.00  0.00    +0.049 A 
BRANCH  12  14
ATOM     14  O   UNL     1       8.539   1.848  -0.572  0.00  0.00    -0.506 OA
ATOM     15  H   UNL     1       8.634   1.569  -1.493  0.00  0.00    +0.292 HD
ENDBRANCH  12  14
ENDBRANCH   5  11
ENDBRANCH   1   6
BRANCH   2  16
ATOM     16  C   UNL     1       1.528   1.663  -1.785  0.00  0.00    +0.202 C 
BRANCH  16  17
ATOM     17  N   UNL     1       0.252   0.955  -1.906  0.00  0.00    -0.303 N 
ATOM     18  C   UNL     1      -0.824   1.586  -2.417  0.00  0.00    +0.246 C 
ATOM     19  O   UNL     1      -0.736   2.745  -2.773  0.00  0.00    -0.270 OA
ATOM     20  H   UNL     1       0.182   0.030  -1.621  0.00  0.00    +0.150 HD
BRANCH  18  21
ATOM     21  C   UNL     1      -2.110   0.869  -2.544  0.00  0.00    +0.051 A 
ATOM     22  C   UNL     1      -2.213  -0.464  -2.141  0.00  0.00    +0.014 A 
ATOM     23  C   UNL     1      -3.417  -1.125  -2.259  0.00  0.00    +0.001 A 
ATOM     24  C   UNL     1      -4.520  -0.474  -2.783  0.00  0.00    +0.001 A 
ATOM     25  C   UNL     1      -4.425   0.844  -3.189  0.00  0.00    +0.016 A 
ATOM     26  C   UNL     1      -3.227   1.520  -3.073  0.00  0.00    +0.030 A 
ATOM     27 BR   UNL     1      -3.098   3.323  -3.629  0.00  0.00    -0.050 Br
ENDBRANCH  18  21
ENDBRANCH  16  17
ENDBRANCH   2  16
TORSDOF 6
