REMARK  Name = ZINC32126390
REMARK  6 active torsions:
REMARK  status: ('A' for Active; 'I' for Inactive)
REMARK    1  A    between atoms: C_4  and  C_7
REMARK    2  A    between atoms: C_8  and  C_9
REMARK    3  A    between atoms: N_11  and  C_12
REMARK    4  A    between atoms: C_12  and  N_14
REMARK    5  A    between atoms: N_14  and  C_15
REMARK    6  A    between atoms: C_19  and  C_21
REMARK                            x       y       z     vdW  Elec       q    Type
REMARK                         _______ _______ _______ _____ _____    ______ ____
ROOT
ATOM      1  C   UNL     1       0.930  11.140   0.046  0.00  0.00    +0.033 A 
ATOM      2  C   UNL     1       2.291  11.153  -0.240  0.00  0.00    +0.023 A 
ATOM      3  C   UNL     1       3.009   9.973  -0.260  0.00  0.00    +0.003 A 
ATOM      4  C   UNL     1       2.381   8.773   0.003  0.00  0.00    +0.013 A 
ATOM      5  C   UNL     1       1.015   8.748   0.292  0.00  0.00    +0.039 A 
ATOM      6  C   UNL     1       0.289   9.940   0.306  0.00  0.00    +0.036 A 
ENDROOT
BRANCH   5   7
ATOM      7  C   UNL     1       0.339   7.465   0.575  0.00  0.00    +0.228 A 
ATOM      8  N   UNL     1       0.923   6.291   0.581  0.00  0.00    -0.208 NA
ATOM      9  C   UNL     1       0.006   5.352   0.877  0.00  0.00    +0.118 A 
ATOM     10  C   UNL     1       0.051   3.900   1.028  0.00  0.00    +0.011 A 
ATOM     11  C   UNL     1       1.238   3.180   0.858  0.00  0.00    +0.011 A 
ATOM     12  C   UNL     1       1.233   1.824   1.008  0.00  0.00    +0.001 A 
ATOM     13  C   UNL     1       0.061   1.146   1.329  0.00  0.00    +0.001 A 
ATOM     14  C   UNL     1      -1.113   1.815   1.495  0.00  0.00    +0.008 A 
ATOM     15  C   UNL     1      -1.143   3.212   1.354  0.00  0.00    -0.016 A 
ATOM     16  C   UNL     1      -2.339   3.937   1.523  0.00  0.00    +0.012 A 
ATOM     17  C   UNL     1      -2.364   5.286   1.380  0.00  0.00    +0.049 A 
ATOM     18  C   UNL     1      -1.214   6.010   1.060  0.00  0.00    +0.156 A 
ATOM     19  O   UNL     1      -0.968   7.325   0.864  0.00  0.00    -0.435 OA
ENDBRANCH   5   7
BRANCH   1  20
ATOM     20  N   UNL     1       0.208  12.338   0.065  0.00  0.00    -0.297 N 
ATOM     21  H   UNL     1       0.386  13.100  -0.708  0.00  0.00    +0.154 HD
BRANCH  20  22
ATOM     22  C   UNL     1      -0.706  12.558   1.030  0.00  0.00    +0.141 C 
ATOM     23  S   UNL     1      -0.884  11.438   2.312  0.00  0.00    -0.018 S 
BRANCH  22  26
ATOM     24  C   UNL     1      -2.395  13.881   1.952  0.00  0.00    +0.242 C 
ATOM     25  O   UNL     1      -2.521  13.085   2.863  0.00  0.00    -0.270 OA
ATOM     26  N   UNL     1      -1.480  13.661   0.986  0.00  0.00    -0.264 N 
ATOM     27  H   UNL     1      -1.366  14.381   0.162  0.00  0.00    +0.157 HD
BRANCH  24  29
ATOM     28  C   UNL     1      -4.150  15.298   2.870  0.00  0.00    +0.013 C 
ATOM     29  C   UNL     1      -3.235  15.078   1.904  0.00  0.00    +0.068 C 
BRANCH  28  33
ATOM     30  C   UNL     1      -6.586  18.768   2.732  0.00  0.00    +0.000 A 
ATOM     31  C   UNL     1      -6.734  17.864   3.770  0.00  0.00    +0.001 A 
ATOM     32  C   UNL     1      -5.946  16.734   3.822  0.00  0.00    +0.008 A 
ATOM     33  C   UNL     1      -4.996  16.502   2.822  0.00  0.00    -0.025 A 
ATOM     34  C   UNL     1      -4.850  17.422   1.779  0.00  0.00    +0.008 A 
ATOM     35  C   UNL     1      -5.649  18.545   1.739  0.00  0.00    +0.001 A 
ENDBRANCH  28  33
ENDBRANCH  24  29
ENDBRANCH  22  26
ENDBRANCH  20  22
ENDBRANCH   1  20
TORSDOF 6
