REMARK  Name = ZINC33732194
REMARK  9 active torsions:
REMARK  status: ('A' for Active; 'I' for Inactive)
REMARK    1  A    between atoms: C_1  and  C_2
REMARK    2  A    between atoms: C_5  and  S_8
REMARK    3  A    between atoms: S_8  and  C_9
REMARK    4  A    between atoms: C_9  and  C_10
REMARK    5  A    between atoms: C_10  and  O_11
REMARK    6  A    between atoms: O_11  and  C_12
REMARK    7  A    between atoms: C_15  and  C_18
REMARK    8  A    between atoms: C_28  and  C_30
REMARK    9  A    between atoms: C_34  and  C_36
REMARK                            x       y       z     vdW  Elec       q    Type
REMARK                         _______ _______ _______ _____ _____    ______ ____
ROOT
ATOM      1  C   UNL     1       5.919 -10.115  -0.106  0.00  0.00    +0.024 C 
ATOM      2  C   UNL     1       7.027 -10.545  -0.802  0.00  0.00    +0.081 C 
ATOM      3  C   UNL     1       7.364 -11.991  -0.926  0.00  0.00    +0.153 C 
ATOM      4  N   UNL     1       6.464 -12.936  -0.982  0.00  0.00    -0.283 NA
ATOM      5  N   UNL     1       8.749 -12.244  -0.979  0.00  0.00    -0.152 N 
ATOM      6  C   UNL     1       9.571 -11.214  -1.386  0.00  0.00    +0.181 C 
ATOM      7  N   UNL     1       9.227  -9.980  -1.660  0.00  0.00    -0.152 NA
ATOM      8  C   UNL     1       7.952  -9.592  -1.465  0.00  0.00    +0.273 C 
ATOM      9  O   UNL     1       7.569  -8.490  -1.823  0.00  0.00    -0.268 OA
ATOM     10  S   UNL     1      11.163 -11.994  -1.420  0.00  0.00    -0.033 S 
ATOM     11  C   UNL     1      10.650 -13.605  -0.841  0.00  0.00    +0.130 C 
ATOM     12  N   UNL     1       9.358 -13.446  -0.684  0.00  0.00    -0.164 NA
ATOM     13  H   UNL     1       5.395 -12.680  -0.939  0.00  0.00    +0.188 HD
ENDROOT
BRANCH  11  14
ATOM     14  C   UNL     1      11.473 -14.811  -0.599  0.00  0.00    +0.009 A 
ATOM     15  C   UNL     1      10.877 -15.984  -0.135  0.00  0.00    +0.010 A 
ATOM     16  C   UNL     1      11.649 -17.106   0.083  0.00  0.00    +0.001 A 
ATOM     17  C   UNL     1      13.013 -17.067  -0.147  0.00  0.00    +0.003 A 
ATOM     18  C   UNL     1      13.610 -15.905  -0.601  0.00  0.00    -0.050 A 
ATOM     19  C   UNL     1      12.848 -14.777  -0.829  0.00  0.00    +0.014 A 
ATOM     20  C   UNL     1      15.096 -15.871  -0.849  0.00  0.00    +0.044 C 
ENDBRANCH  11  14
BRANCH   1  24
ATOM     21  C   UNL     1       5.368  -5.994   0.655  0.00  0.00    +0.121 A 
ATOM     22  C   UNL     1       4.268  -6.802   0.386  0.00  0.00    +0.046 A 
ATOM     23  C   UNL     1       4.440  -8.133   0.133  0.00  0.00    +0.011 A 
ATOM     24  C   UNL     1       5.728  -8.687   0.157  0.00  0.00    -0.024 A 
ATOM     25  C   UNL     1       6.833  -7.869   0.435  0.00  0.00    +0.011 A 
ATOM     26  C   UNL     1       6.648  -6.538   0.680  0.00  0.00    +0.046 A 
BRANCH  21  27
ATOM     27  O   UNL     1       5.191  -4.671   0.899  0.00  0.00    -0.491 OA
BRANCH  27  28
ATOM     28  C   UNL     1       3.851  -4.177   0.857  0.00  0.00    +0.240 C 
BRANCH  28  29
ATOM     29  C   UNL     1       3.850  -2.676   1.155  0.00  0.00    +0.115 C 
BRANCH  29  30
ATOM     30  S   UNL     1       2.149  -2.050   1.103  0.00  0.00    -0.122 S 
BRANCH  30  35
ATOM     31  C   UNL     1       2.721   3.832   2.332  0.00  0.00    +0.044 C 
ATOM     32  C   UNL     1       2.578   2.364   2.025  0.00  0.00    -0.050 A 
ATOM     33  C   UNL     1       1.326   1.827   1.787  0.00  0.00    +0.004 A 
ATOM     34  C   UNL     1       1.191   0.482   1.506  0.00  0.00    +0.015 A 
ATOM     35  C   UNL     1       2.316  -0.333   1.461  0.00  0.00    +0.008 A 
ATOM     36  C   UNL     1       3.573   0.210   1.700  0.00  0.00    +0.015 A 
ATOM     37  C   UNL     1       3.700   1.556   1.981  0.00  0.00    +0.004 A 
ENDBRANCH  30  35
ENDBRANCH  29  30
ENDBRANCH  28  29
ENDBRANCH  27  28
ENDBRANCH  21  27
ENDBRANCH   1  24
TORSDOF 7
