REMARK  Name = ZINC67405243
REMARK  5 active torsions:
REMARK  status: ('A' for Active; 'I' for Inactive)
REMARK    1  A    between atoms: C_4  and  C_7
REMARK    2  A    between atoms: C_7  and  C_14
REMARK    3  A    between atoms: C_14  and  N_15
REMARK    4  A    between atoms: N_18  and  C_19
REMARK    5  A    between atoms: C_19  and  C_20
REMARK                            x       y       z     vdW  Elec       q    Type
REMARK                         _______ _______ _______ _____ _____    ______ ____
ROOT
ATOM      1  N   UNL     1       3.580  -0.743  -2.479  0.00  0.00    -0.299 N 
ATOM      2  C   UNL     1       4.056  -0.659  -3.738  0.00  0.00    +0.300 C 
ATOM      3  O   UNL     1       5.204  -0.310  -3.933  0.00  0.00    -0.253 OA
ATOM      4  N   UNL     1       3.258  -0.963  -4.781  0.00  0.00    -0.292 N 
ATOM      5  H   UNL     1       2.665  -1.022  -2.324  0.00  0.00    +0.150 HD
ATOM      6  H   UNL     1       2.342  -1.242  -4.626  0.00  0.00    +0.151 HD
ENDROOT
BRANCH   1   7
ATOM      7  C   UNL     1       4.448  -0.412  -1.346  0.00  0.00    +0.117 C 
BRANCH   7   8
ATOM      8  C   UNL     1       3.632  -0.449  -0.052  0.00  0.00    +0.011 C 
ATOM      9  C   UNL     1       4.121   0.618   0.889  0.00  0.00    +0.013 C 
ATOM     10  C   UNL     1       5.593   0.998   0.636  0.00  0.00    +0.001 C 
ATOM     11  C   UNL     1       6.486  -0.226   0.359  0.00  0.00    +0.000 C 
ATOM     12  C   UNL     1       6.174  -1.385   1.267  0.00  0.00    +0.000 C 
ATOM     13  C   UNL     1       5.172  -2.313   0.549  0.00  0.00    +0.001 C 
ATOM     14  C   UNL     1       3.805  -1.822   0.630  0.00  0.00    +0.013 C 
BRANCH   8  18
ATOM     15  C   UNL     1      -0.495   0.201  -0.941  0.00  0.00    +0.000 A 
ATOM     16  C   UNL     1       0.458   1.093  -1.394  0.00  0.00    +0.000 A 
ATOM     17  C   UNL     1       1.794   0.883  -1.106  0.00  0.00    +0.004 A 
ATOM     18  C   UNL     1       2.176  -0.220  -0.365  0.00  0.00    -0.040 A 
ATOM     19  C   UNL     1       1.222  -1.112   0.088  0.00  0.00    +0.004 A 
ATOM     20  C   UNL     1      -0.113  -0.902  -0.201  0.00  0.00    +0.000 A 
ENDBRANCH   8  18
ENDBRANCH   7   8
ENDBRANCH   1   7
BRANCH   4  21
ATOM     21  C   UNL     1       3.774  -0.873  -6.149  0.00  0.00    +0.182 C 
BRANCH  21  22
ATOM     22  C   UNL     1       2.691  -1.262  -7.122  0.00  0.00    +0.151 A 
ATOM     23  N   UNL     1       2.443  -2.467  -7.567  0.00  0.00    -0.133 NA
ATOM     24  N   UNL     1       1.446  -2.433  -8.383  0.00  0.00    -0.134 NA
ATOM     25  C   UNL     1       1.017  -1.212  -8.492  0.00  0.00    +0.134 A 
ATOM     26  N   UNL     1       1.792  -0.437  -7.692  0.00  0.00    -0.314 N 
ATOM     27  C   UNL     1       1.638   1.008  -7.524  0.00  0.00    +0.125 C 
ATOM     28  C   UNL     1       0.782   1.548  -8.676  0.00  0.00    +0.022 C 
ATOM     29  C   UNL     1      -0.493   0.710  -8.806  0.00  0.00    +0.009 C 
ATOM     30  C   UNL     1      -0.124  -0.688  -9.327  0.00  0.00    +0.076 C 
ENDBRANCH  21  22
ENDBRANCH   4  21
TORSDOF 5
