REMARK  Name = ZINC40309204
REMARK  7 active torsions:
REMARK  status: ('A' for Active; 'I' for Inactive)
REMARK    1  A    between atoms: C_1  and  C_2
REMARK    2  A    between atoms: C_7  and  C_8
REMARK    3  A    between atoms: N_9  and  C_16
REMARK    4  A    between atoms: C_10  and  C_12
REMARK    5  A    between atoms: C_12  and  C_14
REMARK    6  A    between atoms: C_12  and  O_15
REMARK    7  A    between atoms: C_16  and  C_17
REMARK                            x       y       z     vdW  Elec       q    Type
REMARK                         _______ _______ _______ _____ _____    ______ ____
ROOT
ATOM      1  C   UNL     1      -0.018   1.503   0.010  0.00  0.00    +0.044 C 
ATOM      2  C   UNL     1       0.002  -0.004   0.002  0.00  0.00    -0.045 A 
ATOM      3  C   UNL     1       0.006  -0.674  -1.189  0.00  0.00    +0.033 A 
ATOM      4  C   UNL     1       0.025  -2.071  -1.202  0.00  0.00    +0.090 A 
ATOM      5  C   UNL     1       0.041  -2.773   0.015  0.00  0.00    +0.069 A 
ATOM      6  C   UNL     1       0.037  -2.076   1.215  0.00  0.00    +0.031 A 
ATOM      7  C   UNL     1       0.023  -0.697   1.204  0.00  0.00    -0.045 A 
ATOM      8  C   UNL     1       0.024   0.062   2.506  0.00  0.00    +0.044 C 
ATOM      9  N   UNL     1       0.058  -4.113  -0.319  0.00  0.00    -0.325 N 
ATOM     10  C   UNL     1       0.052  -4.192  -1.677  0.00  0.00    +0.139 A 
ATOM     11  N   UNL     1       0.033  -2.998  -2.194  0.00  0.00    -0.230 NA
ENDROOT
BRANCH  10  12
ATOM     12  C   UNL     1       0.066  -5.475  -2.467  0.00  0.00    +0.177 C 
ATOM     13  C   UNL     1      -1.327  -5.732  -3.046  0.00  0.00    +0.046 C 
BRANCH  12  14
ATOM     14  O   UNL     1       1.012  -5.367  -3.533  0.00  0.00    -0.384 OA
ATOM     15  H   UNL     1       0.825  -4.651  -4.155  0.00  0.00    +0.210 HD
ENDBRANCH  12  14
ENDBRANCH  10  12
BRANCH   9  16
ATOM     16  C   UNL     1       0.078  -5.240   0.616  0.00  0.00    +0.130 C 
BRANCH  16  17
ATOM     17  C   UNL     1      -1.357  -5.653   0.949  0.00  0.00    +0.047 C 
ATOM     18  C   UNL     1      -1.805  -7.053   0.526  0.00  0.00    +0.047 C 
ATOM     19  C   UNL     1      -1.551  -6.744   2.004  0.00  0.00    +0.123 C 
ATOM     20 CL   UNL     1      -0.072  -7.446   2.759  0.00  0.00    -0.101 Cl
ATOM     21 CL   UNL     1      -2.988  -6.611   3.085  0.00  0.00    -0.101 Cl
ENDBRANCH  16  17
ENDBRANCH   9  16
TORSDOF 4
