REMARK  Name = ZINC40018205
REMARK  6 active torsions:
REMARK  status: ('A' for Active; 'I' for Inactive)
REMARK    1  A    between atoms: C_1  and  C_2
REMARK    2  A    between atoms: C_5  and  C_9
REMARK    3  A    between atoms: C_6  and  C_8
REMARK    4  A    between atoms: C_9  and  O_11
REMARK    5  A    between atoms: O_11  and  C_12
REMARK    6  A    between atoms: C_12  and  C_13
REMARK                            x       y       z     vdW  Elec       q    Type
REMARK                         _______ _______ _______ _____ _____    ______ ____
ROOT
ATOM      1  C   UNL     1       2.639  -3.691  -4.856  0.00  0.00    +0.161 C 
ATOM      2  N   UNL     1       2.018  -2.628  -5.309  0.00  0.00    -0.158 NA
ATOM      3  C   UNL     1       1.866  -2.379  -6.614  0.00  0.00    +0.271 C 
ATOM      4  O   UNL     1       1.286  -1.378  -7.000  0.00  0.00    -0.268 OA
ATOM      5  C   UNL     1       2.432  -3.368  -7.586  0.00  0.00    +0.071 C 
ATOM      6  C   UNL     1       2.341  -3.352  -8.928  0.00  0.00    -0.042 C 
ATOM      7  C   UNL     1       1.474  -2.371  -9.712  0.00  0.00    +0.033 C 
ATOM      8  C   UNL     1       0.551  -3.213 -10.605  0.00  0.00    +0.004 C 
ATOM      9  C   UNL     1       1.373  -4.196 -11.436  0.00  0.00    +0.002 C 
ATOM     10  C   UNL     1       2.099  -5.197 -10.533  0.00  0.00    +0.019 C 
ATOM     11  C   UNL     1       3.113  -4.435  -9.675  0.00  0.00    +0.079 C 
ATOM     12  S   UNL     1       3.700  -5.500  -8.304  0.00  0.00    -0.097 S 
ATOM     13  C   UNL     1       3.114  -4.513  -6.949  0.00  0.00    +0.112 C 
ATOM     14  N   UNL     1       3.180  -4.609  -5.642  0.00  0.00    -0.224 NA
ENDROOT
BRANCH   1  15
ATOM     15  C   UNL     1       2.748  -3.873  -3.365  0.00  0.00    +0.305 C 
BRANCH  15  16
ATOM     16  O   UNL     1       2.105  -2.783  -2.703  0.00  0.00    -0.454 OA
BRANCH  16  17
ATOM     17  C   UNL     1       2.113  -2.794  -1.354  0.00  0.00    +0.339 C 
ATOM     18  O   UNL     1       2.652  -3.706  -0.756  0.00  0.00    -0.245 OA
BRANCH  17  22
ATOM     19  C   UNL     1      -0.019   1.526   0.010  0.00  0.00    +0.052 C 
ATOM     20  C   UNL     1       0.002  -0.004   0.002  0.00  0.00    +0.175 C 
ATOM     21  C   UNL     1       0.782  -0.538  -1.224  0.00  0.00    +0.090 C 
ATOM     22  C   UNL     1       1.494  -1.744  -0.633  0.00  0.00    +0.077 C 
ATOM     23  C   UNL     1       1.424  -1.623   0.705  0.00  0.00    +0.105 C 
ATOM     24  O   UNL     1       0.776  -0.513   1.104  0.00  0.00    -0.493 OA
ATOM     25  C   UNL     1       2.007  -2.632   1.661  0.00  0.00    +0.086 C 
ENDBRANCH  17  22
ENDBRANCH  16  17
ENDBRANCH  15  16
ENDBRANCH   1  15
TORSDOF 4
