REMARK  Name = ZINC60358780
REMARK  6 active torsions:
REMARK  status: ('A' for Active; 'I' for Inactive)
REMARK    1  A    between atoms: C_3  and  C_8
REMARK    2  A    between atoms: C_5  and  O_7
REMARK    3  A    between atoms: C_8  and  C_9
REMARK    4  A    between atoms: N_11  and  C_12
REMARK    5  A    between atoms: C_12  and  C_13
REMARK    6  A    between atoms: C_13  and  C_19
REMARK                            x       y       z     vdW  Elec       q    Type
REMARK                         _______ _______ _______ _____ _____    ______ ____
ROOT
ATOM      1  C   UNL     1       5.670   3.410   3.110  0.00  0.00    +0.115 C 
ENDROOT
BRANCH   1   2
ATOM      2  C   UNL     1       6.960   4.204   2.897  0.00  0.00    +0.015 C 
ATOM      3  C   UNL     1       7.917   3.399   2.011  0.00  0.00    +0.041 C 
ATOM      4  C   UNL     1       8.296   2.102   2.729  0.00  0.00    +0.160 C 
ATOM      5  O   UNL     1       8.886   2.413   3.993  0.00  0.00    -0.380 OA
ATOM      6  C   UNL     1       8.022   3.124   4.881  0.00  0.00    +0.160 C 
ATOM      7  C   UNL     1       7.631   4.463   4.249  0.00  0.00    +0.041 C 
BRANCH   2   8
ATOM      8  C   UNL     1       6.640   5.518   2.233  0.00  0.00    -0.038 A 
ATOM      9  C   UNL     1       6.976   6.706   2.855  0.00  0.00    +0.004 A 
ATOM     10  C   UNL     1       6.683   7.912   2.246  0.00  0.00    +0.002 A 
ATOM     11  C   UNL     1       6.053   7.931   1.016  0.00  0.00    +0.020 A 
ATOM     12  C   UNL     1       5.717   6.742   0.393  0.00  0.00    +0.041 A 
ATOM     13  C   UNL     1       6.016   5.535   1.000  0.00  0.00    +0.024 A 
ATOM     14 CL   UNL     1       4.926   6.765  -1.152  0.00  0.00    -0.084 Cl
ENDBRANCH   2   8
ENDBRANCH   1   2
BRANCH   1  17
ATOM     15  C   UNL     1       3.497   3.736   4.163  0.00  0.00    +0.217 C 
ATOM     16  O   UNL     1       3.147   2.670   3.704  0.00  0.00    -0.275 OA
ATOM     17  N   UNL     1       4.741   4.197   3.924  0.00  0.00    -0.314 N 
ATOM     18  H   UNL     1       5.021   5.050   4.292  0.00  0.00    +0.149 HD
BRANCH  15  19
ATOM     19  C   UNL     1       2.542   4.546   5.002  0.00  0.00    +0.131 C 
BRANCH  19  22
ATOM     20  C   UNL     1      -0.180   2.252   6.261  0.00  0.00    +0.004 A 
ATOM     21  C   UNL     1       1.023   2.925   6.154  0.00  0.00    +0.004 A 
ATOM     22  C   UNL     1       1.230   3.814   5.116  0.00  0.00    -0.035 A 
ATOM     23  C   UNL     1       0.234   4.033   4.184  0.00  0.00    +0.049 A 
ATOM     24  C   UNL     1      -0.974   3.359   4.289  0.00  0.00    +0.117 A 
ATOM     25  C   UNL     1      -1.179   2.467   5.332  0.00  0.00    +0.045 A 
BRANCH  24  26
ATOM     26  O   UNL     1      -1.955   3.573   3.373  0.00  0.00    -0.507 OA
ATOM     27  H   UNL     1      -1.917   2.980   2.611  0.00  0.00    +0.292 HD
ENDBRANCH  24  26
ENDBRANCH  19  22
ENDBRANCH  15  19
ENDBRANCH   1  17
TORSDOF 6
