REMARK  Name = ZINC04150015
REMARK  8 active torsions:
REMARK  status: ('A' for Active; 'I' for Inactive)
REMARK    1  A    between atoms: C_1  and  C_2
REMARK    2  A    between atoms: N_9  and  S_10
REMARK    3  A    between atoms: S_10  and  C_13
REMARK    4  A    between atoms: C_21  and  C_41
REMARK    5  A    between atoms: C_24  and  O_40
REMARK    6  A    between atoms: C_26  and  C_30
REMARK    7  A    between atoms: C_30  and  C_32
REMARK    8  A    between atoms: C_30  and  C_33
REMARK                            x       y       z     vdW  Elec       q    Type
REMARK                         _______ _______ _______ _____ _____    ______ ____
ROOT
ATOM      1  C   UNL     1       5.016   5.203  -0.395  0.00  0.00    +0.014 C 
ATOM      2  C   UNL     1       5.151   4.164  -1.510  0.00  0.00    +0.042 C 
ATOM      3  C   UNL     1       5.316   4.872  -2.846  0.00  0.00    +0.057 A 
ATOM      4  C   UNL     1       4.670   4.411  -3.946  0.00  0.00    +0.015 A 
ATOM      5  S   UNL     1       5.184   5.548  -5.205  0.00  0.00    -0.056 S 
ATOM      6  C   UNL     1       6.198   6.537  -4.198  0.00  0.00    +0.178 A 
ATOM      7  N   UNL     1       6.077   5.952  -3.025  0.00  0.00    -0.228 NA
ATOM      8  N   UNL     1       6.943   7.654  -4.542  0.00  0.00    -0.194 N 
ATOM      9  C   UNL     1       3.772   3.238  -4.042  0.00  0.00    +0.051 C 
ATOM     10  C   UNL     1       3.921   2.374  -2.774  0.00  0.00    -0.022 C 
ATOM     11  C   UNL     1       3.893   3.286  -1.546  0.00  0.00    +0.033 C 
ATOM     12  C   UNL     1       3.874   2.444  -0.265  0.00  0.00    +0.123 C 
ATOM     13  C   UNL     1       2.664   1.512  -0.260  0.00  0.00    +0.029 C 
ATOM     14  C   UNL     1       2.761   0.572  -1.465  0.00  0.00    +0.007 C 
ATOM     15  C   UNL     1       2.733   1.407  -2.743  0.00  0.00    +0.008 C 
ATOM     16  C   UNL     1       5.233   1.588  -2.812  0.00  0.00    +0.012 C 
ATOM     17  H   UNL     1       7.469   8.113  -3.868  0.00  0.00    +0.176 HD
ENDROOT
BRANCH   8  18
ATOM     18  S   UNL     1       6.935   8.207  -6.103  0.00  0.00    +0.074 S 
ATOM     19  O   UNL     1       7.761   9.363  -6.129  0.00  0.00    -0.150 OA
ATOM     20  O   UNL     1       7.176   7.080  -6.934  0.00  0.00    -0.150 OA
BRANCH  18  21
ATOM     21  C   UNL     1       5.296   8.750  -6.455  0.00  0.00    +0.109 A 
ATOM     22  C   UNL     1       4.375   7.867  -6.985  0.00  0.00    +0.030 A 
ATOM     23  C   UNL     1       3.087   8.291  -7.256  0.00  0.00    +0.022 A 
ATOM     24  C   UNL     1       2.724   9.602  -7.007  0.00  0.00    +0.041 A 
ATOM     25  C   UNL     1       3.649  10.488  -6.482  0.00  0.00    +0.022 A 
ATOM     26  C   UNL     1       4.934  10.061  -6.206  0.00  0.00    +0.030 A 
ATOM     27 CL   UNL     1       1.110  10.138  -7.354  0.00  0.00    -0.084 Cl
ENDBRANCH  18  21
ENDBRANCH   8  18
BRANCH  13  28
ATOM     28  C   UNL     1       1.380   2.338  -0.356  0.00  0.00    +0.078 C 
ATOM     29  C   UNL     1       1.271   3.255   0.863  0.00  0.00    +0.017 C 
BRANCH  28  30
ATOM     30  C   UNL     1       0.190   1.414  -0.397  0.00  0.00    +0.219 C 
ATOM     31  O   UNL     1       0.334   0.229  -0.179  0.00  0.00    -0.275 OA
ATOM     32  N   UNL     1      -1.033   1.902  -0.682  0.00  0.00    -0.301 N 
ATOM     33  C   UNL     1      -1.339   3.298  -1.030  0.00  0.00    +0.108 C 
ATOM     34  C   UNL     1      -2.864   3.392  -1.247  0.00  0.00    +0.020 C 
ATOM     35  C   UNL     1      -3.403   2.175  -0.449  0.00  0.00    +0.020 C 
ATOM     36  C   UNL     1      -2.288   1.127  -0.690  0.00  0.00    +0.108 C 
ENDBRANCH  28  30
ENDBRANCH  13  28
BRANCH  12  37
ATOM     37  O   UNL     1       3.808   3.311   0.869  0.00  0.00    -0.391 OA
ATOM     38  H   UNL     1       3.806   2.848   1.718  0.00  0.00    +0.210 HD
ENDBRANCH  12  37
TORSDOF 5
