REMARK  Name = ZINC21969646
REMARK  10 active torsions:
REMARK  status: ('A' for Active; 'I' for Inactive)
REMARK    1  A    between atoms: C_1  and  C_2
REMARK    2  A    between atoms: C_2  and  C_3
REMARK    3  A    between atoms: C_2  and  C_4
REMARK    4  A    between atoms: C_2  and  C_5
REMARK    5  A    between atoms: C_8  and  C_11
REMARK    6  A    between atoms: C_11  and  C_12
REMARK    7  A    between atoms: C_12  and  C_13
REMARK    8  A    between atoms: N_15  and  N_16
REMARK    9  A    between atoms: C_17  and  C_19
REMARK   10  A    between atoms: C_19  and  C_20
REMARK                            x       y       z     vdW  Elec       q    Type
REMARK                         _______ _______ _______ _____ _____    ______ ____
ROOT
ATOM      1  C   UNL     1       1.242  -4.196  -1.473  0.00  0.00    +0.229 C 
ATOM      2  O   UNL     1       1.261  -4.807  -0.425  0.00  0.00    -0.274 OA
ATOM      3  N   UNL     1       1.239  -4.864  -2.643  0.00  0.00    -0.234 N 
ATOM      4  H   UNL     1       1.222  -4.310  -3.593  0.00  0.00    +0.173 HD
ENDROOT
BRANCH   3   5
ATOM      5  N   UNL     1       1.258  -6.265  -2.650  0.00  0.00    -0.234 N 
ATOM      6  C   UNL     1       1.256  -6.933  -3.820  0.00  0.00    +0.233 C 
ATOM      7  O   UNL     1       1.237  -6.322  -4.867  0.00  0.00    -0.274 OA
ATOM      8  H   UNL     1       1.275  -6.819  -1.700  0.00  0.00    +0.173 HD
BRANCH   6   9
ATOM      9  C   UNL     1       1.276  -8.440  -3.828  0.00  0.00    +0.134 C 
BRANCH   9  10
ATOM     10  C   UNL     1       1.269  -8.936  -5.251  0.00  0.00    -0.014 A 
ATOM     11  C   UNL     1       0.193  -9.307  -5.961  0.00  0.00    +0.087 A 
ATOM     12  N   UNL     1       0.574  -9.697  -7.216  0.00  0.00    -0.360 N 
ATOM     13  H   UNL     1      -0.183 -10.030  -7.942  0.00  0.00    +0.165 HD
ATOM     14  C   UNL     1       1.940  -9.591  -7.345  0.00  0.00    +0.047 A 
ATOM     15  C   UNL     1       2.436  -9.109  -6.119  0.00  0.00    +0.003 A 
ATOM     16  C   UNL     1       3.807  -8.901  -5.955  0.00  0.00    +0.010 A 
ATOM     17  C   UNL     1       4.661  -9.165  -6.989  0.00  0.00    +0.001 A 
ATOM     18  C   UNL     1       4.177  -9.641  -8.199  0.00  0.00    +0.002 A 
ATOM     19  C   UNL     1       2.828  -9.854  -8.382  0.00  0.00    +0.026 A 
ENDBRANCH   9  10
ENDBRANCH   6   9
ENDBRANCH   3   5
BRANCH   1  20
ATOM     20  C   UNL     1       1.221  -2.689  -1.465  0.00  0.00    +0.102 C 
BRANCH  20  21
ATOM     21  C   UNL     1       1.229  -2.186  -0.021  0.00  0.00    +0.044 C 
BRANCH  21  25
ATOM     22  C   UNL     1       1.171   2.086   0.002  0.00  0.00    -0.042 A 
ATOM     23  C   UNL     1      -0.017   1.378   0.010  0.00  0.00    +0.004 A 
ATOM     24  C   UNL     1       0.002  -0.004   0.002  0.00  0.00    +0.004 A 
ATOM     25  C   UNL     1       1.208  -0.679  -0.013  0.00  0.00    -0.047 A 
ATOM     26  C   UNL     1       2.396   0.029  -0.021  0.00  0.00    +0.004 A 
ATOM     27  C   UNL     1       2.377   1.411  -0.015  0.00  0.00    +0.004 A 
BRANCH  22  29
ATOM     28  C   UNL     1       0.434   4.086   1.268  0.00  0.00    +0.015 C 
ATOM     29  C   UNL     1       1.151   3.592   0.010  0.00  0.00    -0.013 C 
ATOM     30  C   UNL     1       2.586   4.122  -0.001  0.00  0.00    +0.015 C 
ATOM     31  C   UNL     1       0.411   4.099  -1.230  0.00  0.00    +0.015 C 
ENDBRANCH  22  29
ENDBRANCH  21  25
ENDBRANCH  20  21
ENDBRANCH   1  20
TORSDOF 7
