REMARK  Name = ZINC36500690
REMARK  9 active torsions:
REMARK  status: ('A' for Active; 'I' for Inactive)
REMARK    1  A    between atoms: C_3  and  C_9
REMARK    2  A    between atoms: C_4  and  O_8
REMARK    3  A    between atoms: C_5  and  O_7
REMARK    4  A    between atoms: N_11  and  C_12
REMARK    5  A    between atoms: N_11  and  C_18
REMARK    6  A    between atoms: C_12  and  C_13
REMARK    7  A    between atoms: C_18  and  C_20
REMARK    8  A    between atoms: C_18  and  C_26
REMARK    9  A    between atoms: N_28  and  C_29
REMARK                            x       y       z     vdW  Elec       q    Type
REMARK                         _______ _______ _______ _____ _____    ______ ____
ROOT
ATOM      1  C   UNL     1       3.984   2.364  -0.138  0.00  0.00    +0.251 C 
ATOM      2  O   UNL     1       3.220   1.682  -0.794  0.00  0.00    -0.270 OA
ATOM      3  N   UNL     1       3.543   3.493   0.452  0.00  0.00    -0.278 N 
ENDROOT
BRANCH   1   6
ATOM      4  C   UNL     1       7.475   2.065   1.209  0.00  0.00    +0.005 A 
ATOM      5  C   UNL     1       6.159   2.449   1.072  0.00  0.00    +0.017 A 
ATOM      6  C   UNL     1       5.394   1.956   0.012  0.00  0.00    +0.082 A 
ATOM      7  C   UNL     1       5.972   1.071  -0.907  0.00  0.00    +0.171 A 
ATOM      8  C   UNL     1       7.302   0.693  -0.756  0.00  0.00    +0.159 A 
ATOM      9  C   UNL     1       8.047   1.191   0.300  0.00  0.00    +0.049 A 
BRANCH   8  10
ATOM     10  O   UNL     1       7.870  -0.166  -1.644  0.00  0.00    -0.503 OA
ATOM     11  H   UNL     1       8.286   0.270  -2.401  0.00  0.00    +0.292 HD
ENDBRANCH   8  10
BRANCH   7  12
ATOM     12  O   UNL     1       5.238   0.586  -1.941  0.00  0.00    -0.503 OA
ATOM     13  H   UNL     1       5.276   1.129  -2.740  0.00  0.00    +0.292 HD
ENDBRANCH   7  12
ENDBRANCH   1   6
BRANCH   3  14
ATOM     14  C   UNL     1       2.109   3.795   0.475  0.00  0.00    +0.183 C 
BRANCH  14  15
ATOM     15  C   UNL     1       1.613   3.764   1.898  0.00  0.00    +0.122 A 
ATOM     16  C   UNL     1       1.498   4.827   2.714  0.00  0.00    +0.046 A 
ATOM     17  C   UNL     1       0.997   4.345   3.946  0.00  0.00    +0.041 A 
ATOM     18  C   UNL     1       0.836   3.017   3.808  0.00  0.00    +0.195 A 
ATOM     19  O   UNL     1       1.205   2.671   2.564  0.00  0.00    -0.466 OA
ENDBRANCH  14  15
ENDBRANCH   3  14
BRANCH   3  20
ATOM     20  C   UNL     1       4.497   4.417   1.069  0.00  0.00    +0.166 C 
BRANCH  20  21
ATOM     21  C   UNL     1       4.143   5.853   0.675  0.00  0.00    +0.019 C 
ATOM     22  C   UNL     1       4.897   6.830   1.579  0.00  0.00    +0.006 C 
ATOM     23  C   UNL     1       4.544   8.266   1.185  0.00  0.00    +0.000 C 
ATOM     24  C   UNL     1       4.943   8.508  -0.273  0.00  0.00    +0.000 C 
ATOM     25  C   UNL     1       4.189   7.530  -1.177  0.00  0.00    +0.000 C 
ATOM     26  C   UNL     1       4.542   6.095  -0.782  0.00  0.00    +0.006 C 
ENDBRANCH  20  21
BRANCH  20  27
ATOM     27  C   UNL     1       4.433   4.278   2.568  0.00  0.00    +0.234 C 
ATOM     28  O   UNL     1       3.597   3.561   3.075  0.00  0.00    -0.274 OA
ATOM     29  N   UNL     1       5.306   4.950   3.345  0.00  0.00    -0.311 N 
ATOM     30  H   UNL     1       5.869   5.638   2.958  0.00  0.00    +0.149 HD
BRANCH  29  31
ATOM     31  C   UNL     1       5.403   4.641   4.774  0.00  0.00    +0.073 C 
ATOM     32  C   UNL     1       4.339   5.431   5.540  0.00  0.00    +0.022 C 
ATOM     33  C   UNL     1       4.440   5.108   7.032  0.00  0.00    +0.002 C 
ATOM     34  C   UNL     1       5.829   5.495   7.544  0.00  0.00    +0.000 C 
ATOM     35  C   UNL     1       6.893   4.706   6.778  0.00  0.00    +0.002 C 
ATOM     36  C   UNL     1       6.792   5.028   5.286  0.00  0.00    +0.022 C 
ENDBRANCH  29  31
ENDBRANCH  20  27
ENDBRANCH   3  20
TORSDOF 9
