REMARK  Name = ZINC10857546
REMARK  8 active torsions:
REMARK  status: ('A' for Active; 'I' for Inactive)
REMARK    1  A    between atoms: C_1  and  C_2
REMARK    2  A    between atoms: C_2  and  C_3
REMARK    3  A    between atoms: C_2  and  C_4
REMARK    4  A    between atoms: C_4  and  C_6
REMARK    5  A    between atoms: C_4  and  N_13
REMARK    6  A    between atoms: C_14  and  C_16
REMARK    7  A    between atoms: N_19  and  S_22
REMARK    8  A    between atoms: S_22  and  C_25
REMARK                            x       y       z     vdW  Elec       q    Type
REMARK                         _______ _______ _______ _____ _____    ______ ____
ROOT
ATOM      1  C   UNL     1       5.889  -1.934  -3.833  0.00  0.00    +0.077 C 
ATOM      2  C   UNL     1       6.364  -0.767  -2.965  0.00  0.00    +0.030 C 
ATOM      3  C   UNL     1       5.149  -0.069  -2.347  0.00  0.00    +0.110 C 
ATOM      4  N   UNL     1       4.344  -1.067  -1.629  0.00  0.00    -0.177 NA
ATOM      5  C   UNL     1       3.915  -2.276  -2.345  0.00  0.00    +0.110 C 
ATOM      6  C   UNL     1       5.140  -2.947  -2.965  0.00  0.00    +0.030 C 
ENDROOT
BRANCH   1   8
ATOM      7  N   UNL     1       6.903  -3.663  -5.283  0.00  0.00    -0.308 N 
ATOM      8  C   UNL     1       7.080  -2.603  -4.470  0.00  0.00    +0.217 C 
ATOM      9  O   UNL     1       8.198  -2.188  -4.251  0.00  0.00    -0.275 OA
ATOM     10  H   UNL     1       6.009  -3.996  -5.459  0.00  0.00    +0.149 HD
BRANCH   7  11
ATOM     11  C   UNL     1       8.060  -4.314  -5.902  0.00  0.00    +0.106 C 
BRANCH  11  12
ATOM     12  C   UNL     1       7.719  -5.745  -6.226  0.00  0.00    -0.027 A 
ATOM     13  C   UNL     1       6.468  -6.062  -6.723  0.00  0.00    +0.007 A 
ATOM     14  C   UNL     1       6.157  -7.374  -7.025  0.00  0.00    +0.020 A 
ATOM     15  C   UNL     1       7.093  -8.372  -6.820  0.00  0.00    +0.041 A 
ATOM     16  C   UNL     1       8.342  -8.055  -6.317  0.00  0.00    +0.020 A 
ATOM     17  C   UNL     1       8.655  -6.742  -6.021  0.00  0.00    +0.007 A 
ATOM     18 CL   UNL     1       6.700 -10.021  -7.193  0.00  0.00    -0.084 Cl
ENDBRANCH  11  12
BRANCH  11  20
ATOM     19  C   UNL     1       7.211  -3.502  -8.107  0.00  0.00    +0.009 C 
ATOM     20  C   UNL     1       8.433  -3.575  -7.189  0.00  0.00    +0.008 C 
ATOM     21  C   UNL     1       8.899  -2.158  -6.847  0.00  0.00    +0.009 C 
ENDBRANCH  11  20
ENDBRANCH   7  11
ENDBRANCH   1   8
BRANCH   4  22
ATOM     22  S   UNL     1       3.933  -0.836  -0.042  0.00  0.00    +0.061 S 
ATOM     23  O   UNL     1       4.903   0.048   0.504  0.00  0.00    -0.153 OA
ATOM     24  O   UNL     1       3.683  -2.123   0.504  0.00  0.00    -0.153 OA
BRANCH  22  25
ATOM     25  C   UNL     1       2.397   0.027  -0.021  0.00  0.00    +0.108 A 
ATOM     26  C   UNL     1       1.208  -0.679  -0.013  0.00  0.00    +0.031 A 
ATOM     27  C   UNL     1       0.002  -0.004   0.002  0.00  0.00    +0.043 A 
ATOM     28  C   UNL     1      -0.017   1.380   0.010  0.00  0.00    +0.159 A 
ATOM     29  C   UNL     1       1.175   2.088   0.002  0.00  0.00    +0.160 A 
ATOM     30  C   UNL     1       2.382   1.409  -0.014  0.00  0.00    +0.069 A 
ATOM     31  F   UNL     1       1.159   3.439   0.009  0.00  0.00    -0.202 F 
ATOM     32  F   UNL     1      -1.195   2.040   0.019  0.00  0.00    -0.202 F 
ENDBRANCH  22  25
ENDBRANCH   4  22
TORSDOF 6
