REMARK  Name = ZINC38582867
REMARK  10 active torsions:
REMARK  status: ('A' for Active; 'I' for Inactive)
REMARK    1  A    between atoms: C_1  and  C_2
REMARK    2  A    between atoms: C_7  and  C_30
REMARK    3  A    between atoms: C_9  and  N_12
REMARK    4  A    between atoms: C_13  and  C_15
REMARK    5  A    between atoms: C_15  and  N_16
REMARK    6  A    between atoms: N_19  and  C_22
REMARK    7  A    between atoms: C_26  and  C_29
REMARK    8  A    between atoms: C_27  and  C_28
REMARK    9  A    between atoms: C_30  and  O_32
REMARK   10  A    between atoms: O_32  and  C_33
REMARK                            x       y       z     vdW  Elec       q    Type
REMARK                         _______ _______ _______ _____ _____    ______ ____
ROOT
ATOM      1  N   UNL     1       0.325  -2.663   3.628  0.00  0.00    -0.285 N 
ATOM      2  C   UNL     1       0.149  -1.391   4.038  0.00  0.00    +0.231 C 
ATOM      3  O   UNL     1      -0.189  -0.539   3.244  0.00  0.00    -0.274 OA
ATOM      4  H   UNL     1       0.514  -3.360   4.276  0.00  0.00    +0.155 HD
ENDROOT
BRANCH   1  12
ATOM      5  C   UNL     1       0.343  -7.993   2.094  0.00  0.00    +0.044 C 
ATOM      6  C   UNL     1       0.266  -6.616   1.485  0.00  0.00    -0.050 A 
ATOM      7  C   UNL     1       0.163  -6.489   0.097  0.00  0.00    +0.005 A 
ATOM      8  C   UNL     1       0.090  -5.279  -0.508  0.00  0.00    +0.026 A 
ATOM      9  C   UNL     1       0.118  -4.096   0.275  0.00  0.00    +0.045 A 
ATOM     10  N   UNL     1       0.063  -2.824  -0.065  0.00  0.00    -0.367 N 
ATOM     11  C   UNL     1       0.130  -2.001   1.147  0.00  0.00    +0.234 C 
ATOM     12  C   UNL     1       0.237  -2.970   2.304  0.00  0.00    +0.053 C 
ATOM     13  C   UNL     1       0.226  -4.233   1.738  0.00  0.00    +0.018 A 
ATOM     14  C   UNL     1       0.293  -5.531   2.298  0.00  0.00    +0.015 A 
ATOM     15  H   UNL     1      -0.011  -2.486  -0.971  0.00  0.00    +0.161 HD
BRANCH  11  16
ATOM     16  C   UNL     1       1.344  -1.109   1.102  0.00  0.00    +0.335 C 
ATOM     17  O   UNL     1       2.302  -1.426   0.438  0.00  0.00    -0.248 OA
BRANCH  16  18
ATOM     18  O   UNL     1       1.360   0.038   1.799  0.00  0.00    -0.466 OA
ATOM     19  C   UNL     1       2.543   0.835   1.710  0.00  0.00    +0.280 C 
ENDBRANCH  16  18
ENDBRANCH  11  16
ENDBRANCH   1  12
BRANCH   2  20
ATOM     20  C   UNL     1       0.372  -1.028   5.484  0.00  0.00    +0.180 C 
BRANCH  20  21
ATOM     21  N   UNL     1       0.118   0.406   5.673  0.00  0.00    -0.291 NA
ATOM     22  C   UNL     1       1.103   1.217   4.945  0.00  0.00    +0.104 C 
ATOM     23  C   UNL     1       0.700   2.693   5.018  0.00  0.00    +0.120 C 
ATOM     24  N   UNL     1       0.516   3.058   6.431  0.00  0.00    -0.327 N 
ATOM     25  C   UNL     1      -0.352   2.210   7.261  0.00  0.00    +0.120 C 
ATOM     26  C   UNL     1       0.093   0.753   7.101  0.00  0.00    +0.104 C 
BRANCH  24  27
ATOM     27  C   UNL     1       1.149   4.181   6.969  0.00  0.00    +0.033 A 
ATOM     28  C   UNL     1       0.516   5.417   6.945  0.00  0.00    +0.023 A 
ATOM     29  C   UNL     1       1.145   6.524   7.479  0.00  0.00    +0.002 A 
ATOM     30  C   UNL     1       2.404   6.404   8.037  0.00  0.00    +0.004 A 
ATOM     31  C   UNL     1       3.038   5.175   8.063  0.00  0.00    -0.046 A 
ATOM     32  C   UNL     1       2.412   4.062   7.536  0.00  0.00    -0.027 A 
ATOM     33  C   UNL     1       3.100   2.722   7.571  0.00  0.00    +0.046 C 
ATOM     34  C   UNL     1       4.411   5.049   8.672  0.00  0.00    +0.044 C 
ENDBRANCH  24  27
ENDBRANCH  20  21
ENDBRANCH   2  20
TORSDOF 6
