REMARK  Name = ZINC15946986
REMARK  13 active torsions:
REMARK  status: ('A' for Active; 'I' for Inactive)
REMARK    1  A    between atoms: C_1  and  C_2
REMARK    2  A    between atoms: C_2  and  C_3
REMARK    3  A    between atoms: C_3  and  C_4
REMARK    4  A    between atoms: C_3  and  C_5
REMARK    5  A    between atoms: C_3  and  C_6
REMARK    6  A    between atoms: C_15  and  O_38
REMARK    7  A    between atoms: C_17  and  C_20
REMARK    8  A    between atoms: C_23  and  O_28
REMARK    9  A    between atoms: C_24  and  O_26
REMARK   10  A    between atoms: O_26  and  C_27
REMARK   11  A    between atoms: O_28  and  C_29
REMARK   12  A    between atoms: C_29  and  C_31
REMARK   13  A    between atoms: C_34  and  C_37
REMARK                            x       y       z     vdW  Elec       q    Type
REMARK                         _______ _______ _______ _____ _____    ______ ____
ROOT
ATOM      1  C   UNL     1       0.714  -2.063  -1.469  0.00  0.00    -0.000 C 
ATOM      2  C   UNL     1       1.451  -2.584  -2.706  0.00  0.00    +0.009 C 
ATOM      3  C   UNL     1       1.272  -4.099  -2.820  0.00  0.00    +0.037 C 
ATOM      4  C   UNL     1       1.664  -4.738  -1.495  0.00  0.00    -0.023 A 
ATOM      5  C   UNL     1       1.733  -4.007  -0.359  0.00  0.00    -0.004 A 
ATOM      6  S   UNL     1       2.220  -5.162   0.894  0.00  0.00    -0.078 S 
ATOM      7  C   UNL     1       2.332  -6.535  -0.028  0.00  0.00    +0.080 A 
ATOM      8  C   UNL     1       1.990  -6.143  -1.328  0.00  0.00    +0.068 A 
ATOM      9  C   UNL     1       1.991  -7.189  -2.382  0.00  0.00    +0.220 C 
ATOM     10  N   UNL     1       2.543  -8.337  -2.096  0.00  0.00    -0.223 NA
ATOM     11  C   UNL     1       3.214  -8.641  -0.838  0.00  0.00    +0.224 C 
ATOM     12  N   UNL     1       2.677  -7.833   0.273  0.00  0.00    -0.313 N 
ATOM     13  C   UNL     1       1.451  -2.544  -0.210  0.00  0.00    +0.046 C 
ATOM     14  H   UNL     1       2.572  -8.197   1.166  0.00  0.00    +0.149 HD
ENDROOT
BRANCH  11  15
ATOM     15  C   UNL     1       4.686  -8.355  -0.985  0.00  0.00    -0.002 A 
ATOM     16  C   UNL     1       5.426  -7.963   0.116  0.00  0.00    +0.011 A 
ATOM     17  C   UNL     1       6.776  -7.700  -0.013  0.00  0.00    +0.050 A 
ATOM     18  C   UNL     1       7.393  -7.830  -1.248  0.00  0.00    +0.173 A 
ATOM     19  C   UNL     1       6.648  -8.224  -2.355  0.00  0.00    +0.163 A 
ATOM     20  C   UNL     1       5.295  -8.491  -2.218  0.00  0.00    +0.056 A 
BRANCH  19  21
ATOM     21  O   UNL     1       7.248  -8.352  -3.569  0.00  0.00    -0.491 OA
ATOM     22  C   UNL     1       6.422  -8.761  -4.661  0.00  0.00    +0.277 C 
ENDBRANCH  19  21
BRANCH  18  23
ATOM     23  O   UNL     1       8.721  -7.571  -1.376  0.00  0.00    -0.419 OA
BRANCH  23  24
ATOM     24  C   UNL     1       9.088  -6.365  -1.853  0.00  0.00    +0.345 C 
ATOM     25  O   UNL     1       8.247  -5.513  -2.059  0.00  0.00    -0.245 OA
BRANCH  24  26
ATOM     26  C   UNL     1      10.511  -6.079  -2.123  0.00  0.00    +0.059 A 
ATOM     27  C   UNL     1      11.479  -7.059  -1.892  0.00  0.00    +0.015 A 
ATOM     28  C   UNL     1      12.807  -6.785  -2.147  0.00  0.00    +0.004 A 
ATOM     29  C   UNL     1      13.181  -5.544  -2.631  0.00  0.00    -0.050 A 
ATOM     30  C   UNL     1      12.226  -4.569  -2.862  0.00  0.00    +0.004 A 
ATOM     31  C   UNL     1      10.894  -4.831  -2.617  0.00  0.00    +0.015 A 
ATOM     32  C   UNL     1      14.633  -5.252  -2.907  0.00  0.00    +0.044 C 
ENDBRANCH  24  26
ENDBRANCH  23  24
ENDBRANCH  18  23
ENDBRANCH  11  15
BRANCH   1  33
ATOM     33  C   UNL     1       0.686  -0.534  -1.494  0.00  0.00    -0.032 C 
ATOM     34  C   UNL     1      -0.043  -0.058  -2.752  0.00  0.00    +0.011 C 
ATOM     35  C   UNL     1       2.119   0.002  -1.502  0.00  0.00    +0.011 C 
BRANCH  33  37
ATOM     36  C   UNL     1      -0.072   1.514  -0.280  0.00  0.00    +0.004 C 
ATOM     37  C   UNL     1      -0.045  -0.016  -0.254  0.00  0.00    +0.003 C 
ENDBRANCH  33  37
ENDBRANCH   1  33
BRANCH   9  38
ATOM     38  O   UNL     1       1.439  -6.961  -3.596  0.00  0.00    -0.492 OA
ATOM     39  H   UNL     1       1.497  -7.712  -4.202  0.00  0.00    +0.294 HD
ENDBRANCH   9  38
TORSDOF 8
