REMARK  Name = ZINC21231185
REMARK  8 active torsions:
REMARK  status: ('A' for Active; 'I' for Inactive)
REMARK    1  A    between atoms: C_1  and  C_2
REMARK    2  A    between atoms: C_2  and  C_3
REMARK    3  A    between atoms: C_2  and  C_4
REMARK    4  A    between atoms: C_4  and  O_5
REMARK    5  A    between atoms: O_5  and  C_6
REMARK    6  A    between atoms: C_9  and  C_12
REMARK    7  A    between atoms: C_17  and  C_27
REMARK    8  A    between atoms: C_31  and  N_33
REMARK                            x       y       z     vdW  Elec       q    Type
REMARK                         _______ _______ _______ _____ _____    ______ ____
ROOT
ATOM      1  C   UNL     1       5.728  -1.393  -2.488  0.00  0.00    +0.032 C 
ATOM      2  C   UNL     1       5.419  -1.121  -1.017  0.00  0.00    +0.059 C 
ATOM      3  C   UNL     1       3.950  -1.393  -0.736  0.00  0.00    +0.017 C 
ATOM      4  C   UNL     1       3.289  -2.343  -1.418  0.00  0.00    +0.036 C 
ATOM      5  C   UNL     1       1.838  -2.717  -1.236  0.00  0.00    +0.136 C 
ATOM      6  N   UNL     1       1.214  -2.149  -0.059  0.00  0.00    -0.331 N 
ATOM      7  C   UNL     1       1.050  -0.771   0.070  0.00  0.00    +0.049 A 
ATOM      8  C   UNL     1      -0.208  -0.190   0.064  0.00  0.00    +0.025 A 
ATOM      9  C   UNL     1      -0.321   1.188   0.129  0.00  0.00    +0.002 A 
ATOM     10  C   UNL     1       0.810   1.982   0.183  0.00  0.00    +0.002 A 
ATOM     11  C   UNL     1       2.068   1.404   0.194  0.00  0.00    +0.025 A 
ATOM     12  C   UNL     1       2.181   0.026   0.157  0.00  0.00    +0.052 A 
ATOM     13  N   UNL     1       3.409  -0.622   0.242  0.00  0.00    -0.316 N 
ATOM     14  C   UNL     1       3.953  -3.096  -2.415  0.00  0.00    +0.163 C 
ATOM     15  O   UNL     1       3.337  -3.964  -3.002  0.00  0.00    -0.292 OA
ATOM     16  C   UNL     1       5.391  -2.862  -2.771  0.00  0.00    +0.088 C 
ATOM     17  H   UNL     1       0.863  -2.807   0.749  0.00  0.00    +0.147 HD
ATOM     18  H   UNL     1       3.949  -0.474   1.189  0.00  0.00    +0.152 HD
ENDROOT
BRANCH   1  22
ATOM     19  C   UNL     1       9.873  -0.683  -3.251  0.00  0.00    +0.121 A 
ATOM     20  C   UNL     1       8.906   0.044  -3.931  0.00  0.00    +0.046 A 
ATOM     21  C   UNL     1       7.567  -0.187  -3.683  0.00  0.00    +0.007 A 
ATOM     22  C   UNL     1       7.190  -1.143  -2.757  0.00  0.00    -0.043 A 
ATOM     23  C   UNL     1       8.151  -1.864  -2.074  0.00  0.00    +0.007 A 
ATOM     24  C   UNL     1       9.491  -1.640  -2.323  0.00  0.00    +0.046 A 
BRANCH  19  25
ATOM     25  O   UNL     1      11.191  -0.457  -3.494  0.00  0.00    -0.492 OA
BRANCH  25  26
ATOM     26  C   UNL     1      12.130  -1.242  -2.757  0.00  0.00    +0.232 C 
BRANCH  26  28
ATOM     27  C   UNL     1      13.820   0.598  -2.747  0.00  0.00    +0.010 C 
ATOM     28  C   UNL     1      13.552  -0.850  -3.163  0.00  0.00    +0.020 C 
ATOM     29  C   UNL     1      14.554  -1.774  -2.468  0.00  0.00    +0.010 C 
ENDBRANCH  26  28
ENDBRANCH  25  26
ENDBRANCH  19  25
ENDBRANCH   1  22
BRANCH   5  30
ATOM     30  C   UNL     1       1.073  -2.257  -2.450  0.00  0.00    -0.021 A 
ATOM     31  C   UNL     1       0.487  -3.185  -3.290  0.00  0.00    +0.006 A 
ATOM     32  C   UNL     1      -0.218  -2.763  -4.401  0.00  0.00    +0.003 A 
ATOM     33  C   UNL     1      -0.329  -1.413  -4.678  0.00  0.00    +0.033 A 
ATOM     34  C   UNL     1       0.262  -0.485  -3.842  0.00  0.00    +0.127 A 
ATOM     35  C   UNL     1       0.963  -0.907  -2.727  0.00  0.00    +0.038 A 
BRANCH  34  36
ATOM     36  N   UNL     1       0.143   0.960  -4.138  0.00  0.00    +0.056 N 
ATOM     37  O   UNL     1       0.664   1.778  -3.401  0.00  0.00    -0.126 OA
ATOM     38  O   UNL     1      -0.474   1.331  -5.120  0.00  0.00    -0.126 OA
ENDBRANCH  34  36
ENDBRANCH   5  30
TORSDOF 6
