REMARK  Name = ZINC08445026
REMARK  9 active torsions:
REMARK  status: ('A' for Active; 'I' for Inactive)
REMARK    1  A    between atoms: C_1  and  C_2
REMARK    2  A    between atoms: C_2  and  C_3
REMARK    3  A    between atoms: C_3  and  C_4
REMARK    4  A    between atoms: C_4  and  C_5
REMARK    5  A    between atoms: C_5  and  C_6
REMARK    6  A    between atoms: C_18  and  C_20
REMARK    7  A    between atoms: C_23  and  C_26
REMARK    8  A    between atoms: C_30  and  C_33
REMARK    9  A    between atoms: C_37  and  N_39
REMARK                            x       y       z     vdW  Elec       q    Type
REMARK                         _______ _______ _______ _____ _____    ______ ____
ROOT
ATOM      1  C   UNL     1       0.018   0.083  -0.192  0.00  0.00    +0.221 C 
ATOM      2  O   UNL     1      -0.456  -0.445   0.792  0.00  0.00    -0.275 OA
ATOM      3  N   UNL     1       0.574  -0.672  -1.160  0.00  0.00    -0.258 N 
ATOM      4  C   UNL     1       1.110  -0.055  -2.288  0.00  0.00    +0.058 A 
ATOM      5  C   UNL     1       2.231   0.757  -2.201  0.00  0.00    +0.025 A 
ATOM      6  C   UNL     1       2.769   1.303  -3.353  0.00  0.00    +0.002 A 
ATOM      7  C   UNL     1       2.197   1.043  -4.585  0.00  0.00    +0.002 A 
ATOM      8  C   UNL     1       1.076   0.258  -4.672  0.00  0.00    +0.025 A 
ATOM      9  C   UNL     1       0.520  -0.270  -3.520  0.00  0.00    +0.053 A 
ATOM     10  N   UNL     1      -0.651  -1.019  -3.533  0.00  0.00    -0.316 N 
ATOM     11  C   UNL     1      -0.740  -2.324  -3.166  0.00  0.00    +0.017 C 
ATOM     12  C   UNL     1      -0.214  -2.853  -2.051  0.00  0.00    +0.037 C 
ATOM     13  C   UNL     1       0.598  -2.112  -1.015  0.00  0.00    +0.147 C 
ATOM     14  C   UNL     1      -0.402  -4.224  -1.753  0.00  0.00    +0.163 C 
ATOM     15  O   UNL     1       0.099  -4.678  -0.743  0.00  0.00    -0.292 OA
ATOM     16  C   UNL     1      -1.194  -5.137  -2.640  0.00  0.00    +0.088 C 
ATOM     17  C   UNL     1      -2.244  -4.304  -3.384  0.00  0.00    +0.032 C 
ATOM     18  C   UNL     1      -1.509  -3.200  -4.143  0.00  0.00    +0.059 C 
ATOM     19  H   UNL     1      -1.464  -0.578  -3.825  0.00  0.00    +0.152 HD
ENDROOT
BRANCH  13  20
ATOM     20  C   UNL     1       2.029  -2.578  -1.104  0.00  0.00    -0.022 A 
ATOM     21  C   UNL     1       2.599  -3.265  -0.048  0.00  0.00    +0.006 A 
ATOM     22  C   UNL     1       3.909  -3.697  -0.132  0.00  0.00    +0.004 A 
ATOM     23  C   UNL     1       4.653  -3.433  -1.268  0.00  0.00    -0.050 A 
ATOM     24  C   UNL     1       4.084  -2.742  -2.321  0.00  0.00    +0.004 A 
ATOM     25  C   UNL     1       2.772  -2.314  -2.239  0.00  0.00    +0.006 A 
ATOM     26  C   UNL     1       6.082  -3.900  -1.357  0.00  0.00    +0.044 C 
ENDBRANCH  13  20
BRANCH  17  27
ATOM     27  C   UNL     1      -2.995  -5.178  -4.355  0.00  0.00    -0.041 A 
ATOM     28  C   UNL     1      -2.311  -5.858  -5.345  0.00  0.00    +0.004 A 
ATOM     29  C   UNL     1      -3.000  -6.660  -6.236  0.00  0.00    +0.002 A 
ATOM     30  C   UNL     1      -4.374  -6.782  -6.136  0.00  0.00    +0.033 A 
ATOM     31  C   UNL     1      -5.058  -6.102  -5.146  0.00  0.00    +0.126 A 
ATOM     32  C   UNL     1      -4.368  -5.303  -4.252  0.00  0.00    +0.036 A 
BRANCH  31  33
ATOM     33  N   UNL     1      -6.528  -6.233  -5.038  0.00  0.00    +0.056 N 
ATOM     34  O   UNL     1      -7.135  -6.939  -5.823  0.00  0.00    -0.126 OA
ATOM     35  O   UNL     1      -7.131  -5.634  -4.166  0.00  0.00    -0.126 OA
ENDBRANCH  31  33
ENDBRANCH  17  27
BRANCH   1  36
ATOM     36  C   UNL     1      -0.013   1.583  -0.331  0.00  0.00    +0.096 C 
BRANCH  36  37
ATOM     37  C   UNL     1      -0.693   2.195   0.895  0.00  0.00    +0.009 C 
BRANCH  37  38
ATOM     38  C   UNL     1      -0.725   3.719   0.754  0.00  0.00    +0.000 C 
BRANCH  38  40
ATOM     39  C   UNL     1      -1.437   5.854   1.839  0.00  0.00    +0.004 C 
ATOM     40  C   UNL     1      -1.405   4.330   1.980  0.00  0.00    -0.003 C 
ENDBRANCH  38  40
ENDBRANCH  37  38
ENDBRANCH  36  37
ENDBRANCH   1  36
TORSDOF 7
