REMARK  Name = ZINC22810124
REMARK  8 active torsions:
REMARK  status: ('A' for Active; 'I' for Inactive)
REMARK    1  A    between atoms: C_1  and  C_2
REMARK    2  A    between atoms: C_2  and  C_3
REMARK    3  A    between atoms: C_3  and  C_4
REMARK    4  A    between atoms: C_4  and  N_5
REMARK    5  A    between atoms: C_6  and  C_8
REMARK    6  A    between atoms: C_8  and  N_9
REMARK    7  A    between atoms: C_22  and  C_24
REMARK    8  A    between atoms: C_26  and  C_30
REMARK                            x       y       z     vdW  Elec       q    Type
REMARK                         _______ _______ _______ _____ _____    ______ ____
ROOT
ATOM      1  N   UNL     1       2.200   5.943  -0.968  0.00  0.00    +0.387 N 
ATOM      2  C   UNL     1       2.795   5.386   0.255  0.00  0.00    -0.059 C 
ATOM      3  C   UNL     1       2.735   3.858   0.198  0.00  0.00    +0.088 C 
ATOM      4  N   UNL     1       1.336   3.430   0.055  0.00  0.00    -0.318 N 
ATOM      5  C   UNL     1       0.741   3.987  -1.168  0.00  0.00    +0.088 C 
ATOM      6  C   UNL     1       0.802   5.516  -1.112  0.00  0.00    -0.059 C 
ATOM      7  C   UNL     1       1.235   2.051   0.071  0.00  0.00    +0.133 A 
ATOM      8  C   UNL     1       0.545   1.391   1.126  0.00  0.00    +0.051 A 
ATOM      9  C   UNL     1      -0.133   1.976   2.285  0.00  0.00    -0.025 A 
ATOM     10  C   UNL     1      -0.712   1.119   3.151  0.00  0.00    -0.004 A 
ATOM     11  S   UNL     1      -0.406  -0.493   2.481  0.00  0.00    -0.073 S 
ATOM     12  C   UNL     1       0.507  -0.015   1.038  0.00  0.00    +0.114 A 
ATOM     13  N   UNL     1       1.077  -0.658   0.038  0.00  0.00    -0.225 NA
ATOM     14  C   UNL     1       1.704   0.008  -0.912  0.00  0.00    +0.129 A 
ATOM     15  N   UNL     1       1.779   1.327  -0.894  0.00  0.00    -0.217 NA
ATOM     16  C   UNL     1       2.347  -0.751  -2.044  0.00  0.00    +0.088 C 
ATOM     17  C   UNL     1      -1.458   1.462   4.404  0.00  0.00    +0.046 C 
ATOM     18  C   UNL     1      -1.801   2.962   4.367  0.00  0.00    -0.009 C 
ATOM     19  C   UNL     1      -0.533   3.736   3.993  0.00  0.00    +0.008 C 
ATOM     20  C   UNL     1      -0.184   3.482   2.526  0.00  0.00    +0.037 C 
ATOM     21  C   UNL     1      -2.285   3.408   5.748  0.00  0.00    +0.008 C 
ATOM     22  H   UNL     1       2.765   5.554  -1.828  0.00  0.00    -0.081 HD
ENDROOT
BRANCH   1  23
ATOM     23  C   UNL     1       2.308   7.408  -0.986  0.00  0.00    +0.019 C 
BRANCH  23  25
ATOM     24  N   UNL     1       4.110   9.102  -1.003  0.00  0.00    -0.317 N 
ATOM     25  C   UNL     1       3.758   7.804  -1.092  0.00  0.00    +0.196 C 
ATOM     26  O   UNL     1       4.608   6.955  -1.257  0.00  0.00    -0.278 OA
ATOM     27  H   UNL     1       3.339   9.872  -0.853  0.00  0.00    +0.149 HD
BRANCH  24  28
ATOM     28  C   UNL     1       5.520   9.487  -1.106  0.00  0.00    +0.104 C 
BRANCH  28  29
ATOM     29  C   UNL     1       5.644  11.006  -0.973  0.00  0.00    +0.018 C 
BRANCH  29  31
ATOM     30  C   UNL     1       7.241  12.928  -0.948  0.00  0.00    +0.004 C 
ATOM     31  C   UNL     1       7.117  11.409  -1.081  0.00  0.00    -0.002 C 
ENDBRANCH  29  31
ENDBRANCH  28  29
ENDBRANCH  24  28
ENDBRANCH  23  25
ENDBRANCH   1  23
TORSDOF 5
