REMARK  Name = ZINC50994206
REMARK  8 active torsions:
REMARK  status: ('A' for Active; 'I' for Inactive)
REMARK    1  A    between atoms: C_1  and  C_2
REMARK    2  A    between atoms: C_2  and  C_3
REMARK    3  A    between atoms: C_3  and  N_4
REMARK    4  A    between atoms: C_5  and  C_7
REMARK    5  A    between atoms: N_12  and  C_14
REMARK    6  A    between atoms: C_14  and  C_15
REMARK    7  A    between atoms: N_17  and  C_18
REMARK    8  A    between atoms: C_18  and  C_19
REMARK                            x       y       z     vdW  Elec       q    Type
REMARK                         _______ _______ _______ _____ _____    ______ ____
ROOT
ATOM      1  C   UNL     1      -5.370  -6.714  -0.108  0.00  0.00    +0.019 C 
ENDROOT
BRANCH   1   6
ATOM      2  C   UNL     1      -2.596  -4.192  -0.273  0.00  0.00    +0.058 C 
ATOM      3  C   UNL     1      -1.844  -4.755  -1.482  0.00  0.00    +0.009 C 
ATOM      4  C   UNL     1      -1.883  -6.285  -1.427  0.00  0.00    -0.018 C 
ATOM      5  C   UNL     1      -3.340  -6.752  -1.381  0.00  0.00    -0.078 C 
ATOM      6  N   UNL     1      -3.996  -6.201  -0.189  0.00  0.00    +0.386 N 
ATOM      7  C   UNL     1      -4.026  -4.736  -0.268  0.00  0.00    -0.065 C 
ATOM      8  H   UNL     1      -3.485  -6.481   0.634  0.00  0.00    -0.081 HD
BRANCH   2  10
ATOM      9  N   UNL     1      -1.478  -1.987  -0.377  0.00  0.00    -0.315 N 
ATOM     10  C   UNL     1      -2.630  -2.687  -0.357  0.00  0.00    +0.214 C 
ATOM     11  O   UNL     1      -3.694  -2.107  -0.408  0.00  0.00    -0.276 OA
ATOM     12  H   UNL     1      -0.628  -2.452  -0.337  0.00  0.00    +0.149 HD
BRANCH   9  13
ATOM     13  C   UNL     1      -1.512  -0.525  -0.460  0.00  0.00    +0.104 C 
BRANCH  13  15
ATOM     14  C   UNL     1      -0.116   1.545  -0.552  0.00  0.00    +0.005 C 
ATOM     15  C   UNL     1      -0.081   0.018  -0.466  0.00  0.00    +0.015 C 
ENDBRANCH  13  15
ENDBRANCH   9  13
ENDBRANCH   2  10
ENDBRANCH   1   6
BRANCH   1  16
ATOM     16  C   UNL     1      -5.338  -8.205   0.107  0.00  0.00    +0.196 C 
ATOM     17  O   UNL     1      -4.275  -8.784   0.184  0.00  0.00    -0.278 OA
ATOM     18  N   UNL     1      -6.490  -8.896   0.213  0.00  0.00    -0.316 N 
ATOM     19  H   UNL     1      -7.340  -8.433   0.151  0.00  0.00    +0.149 HD
BRANCH  18  20
ATOM     20  C   UNL     1      -6.459 -10.346   0.421  0.00  0.00    +0.112 C 
BRANCH  20  21
ATOM     21  C   UNL     1      -7.883 -10.861   0.636  0.00  0.00    +0.036 C 
ATOM     22  C   UNL     1      -8.461 -10.231   1.901  0.00  0.00    +0.010 C 
ATOM     23  C   UNL     1      -9.794 -10.919   2.219  0.00  0.00    +0.005 C 
ATOM     24  C   UNL     1      -9.502 -12.347   2.676  0.00  0.00    +0.035 C 
ATOM     25  C   UNL     1      -8.602 -13.045   1.691  0.00  0.00    -0.044 A 
ATOM     26  C   UNL     1      -7.855 -12.362   0.757  0.00  0.00    -0.040 A 
ATOM     27  C   UNL     1      -7.039 -13.067  -0.118  0.00  0.00    +0.004 A 
ATOM     28  C   UNL     1      -6.973 -14.444  -0.060  0.00  0.00    +0.000 A 
ATOM     29  C   UNL     1      -7.726 -15.129   0.875  0.00  0.00    +0.000 A 
ATOM     30  C   UNL     1      -8.536 -14.431   1.745  0.00  0.00    +0.004 A 
ENDBRANCH  20  21
ENDBRANCH  18  20
ENDBRANCH   1  16
TORSDOF 7
