REMARK  Name = ZINC57475684
REMARK  3 active torsions:
REMARK  status: ('A' for Active; 'I' for Inactive)
REMARK    1  A    between atoms: C_9  and  O_12
REMARK    2  A    between atoms: O_12  and  C_13
REMARK    3  A    between atoms: C_13  and  C_14
REMARK                            x       y       z     vdW  Elec       q    Type
REMARK                         _______ _______ _______ _____ _____    ______ ____
ROOT
ATOM      1  O   UNL     1       4.875  -2.648  -0.059  0.00  0.00    -0.482 OA
ENDROOT
BRANCH   1  10
ATOM      2  C   UNL     1      -0.017   1.356  -0.004  0.00  0.00    +0.001 A 
ATOM      3  C   UNL     1       1.167   2.090  -0.011  0.00  0.00    +0.001 A 
ATOM      4  C   UNL     1       2.377   1.468  -0.024  0.00  0.00    +0.010 A 
ATOM      5  C   UNL     1       2.437   0.063  -0.030  0.00  0.00    -0.000 A 
ATOM      6  C   UNL     1       1.232  -0.684  -0.023  0.00  0.00    -0.017 A 
ATOM      7  C   UNL     1       0.001  -0.005  -0.010  0.00  0.00    +0.008 A 
ATOM      8  C   UNL     1       1.287  -2.088  -0.029  0.00  0.00    +0.012 A 
ATOM      9  C   UNL     1       2.492  -2.719  -0.041  0.00  0.00    +0.047 A 
ATOM     10  C   UNL     1       3.685  -1.990  -0.048  0.00  0.00    +0.136 A 
ATOM     11  C   UNL     1       3.668  -0.614  -0.043  0.00  0.00    +0.067 A 
ATOM     12 BR   UNL     1       5.290   0.359  -0.053  0.00  0.00    -0.046 Br
ENDBRANCH   1  10
BRANCH   1  13
ATOM     13  C   UNL     1       4.826  -4.076  -0.063  0.00  0.00    +0.325 C 
BRANCH  13  14
ATOM     14  C   UNL     1       6.229  -4.626  -0.075  0.00  0.00    +0.256 C 
ATOM     15  O   UNL     1       7.177  -3.869  -0.080  0.00  0.00    -0.272 OA
ATOM     16  N   UNL     1       6.431  -5.958  -0.082  0.00  0.00    -0.268 N 
ATOM     17  C   UNL     1       7.723  -6.468  -0.200  0.00  0.00    +0.125 A 
ATOM     18  C   UNL     1       7.915  -7.840  -0.312  0.00  0.00    +0.045 A 
ATOM     19  C   UNL     1       9.203  -8.333  -0.429  0.00  0.00    +0.025 A 
ATOM     20  C   UNL     1      10.260  -7.431  -0.430  0.00  0.00    +0.059 A 
ATOM     21  C   UNL     1       9.995  -6.079  -0.315  0.00  0.00    +0.132 A 
ATOM     22  N   UNL     1       8.756  -5.639  -0.210  0.00  0.00    -0.239 NA
ATOM     23 CL   UNL     1      11.895  -7.996  -0.573  0.00  0.00    -0.082 Cl
ATOM     24  H   UNL     1       5.676  -6.563  -0.003  0.00  0.00    +0.156 HD
ENDBRANCH  13  14
ENDBRANCH   1  13
TORSDOF 3
