REMARK  Name = ZINC05598408
REMARK  8 active torsions:
REMARK  status: ('A' for Active; 'I' for Inactive)
REMARK    1  A    between atoms: C_1  and  C_2
REMARK    2  A    between atoms: C_2  and  O_3
REMARK    3  A    between atoms: O_3  and  C_4
REMARK    4  A    between atoms: C_4  and  C_6
REMARK    5  A    between atoms: C_7  and  C_29
REMARK    6  A    between atoms: C_8  and  C_28
REMARK    7  A    between atoms: C_10  and  N_11
REMARK    8  A    between atoms: N_14  and  C_15
REMARK                            x       y       z     vdW  Elec       q    Type
REMARK                         _______ _______ _______ _____ _____    ______ ____
ROOT
ATOM      1  N   UNL     1       1.142   2.033   0.002  0.00  0.00    -0.263 N 
ATOM      2  C   UNL     1      -0.016   1.344   0.009  0.00  0.00    +0.305 C 
ATOM      3  O   UNL     1      -1.077   1.937   0.018  0.00  0.00    -0.252 OA
ATOM      4  N   UNL     1       0.002  -0.004   0.002  0.00  0.00    -0.294 N 
ATOM      5  H   UNL     1       1.988   1.560  -0.009  0.00  0.00    +0.157 HD
ATOM      6  H   UNL     1       0.849  -0.478  -0.009  0.00  0.00    +0.151 HD
ENDROOT
BRANCH   4   7
ATOM      7  C   UNL     1      -1.256  -0.754   0.010  0.00  0.00    +0.037 C 
ATOM      8  C   UNL     1      -2.076  -0.388  -1.230  0.00  0.00    +0.029 C 
ATOM      9  C   UNL     1      -3.390  -1.171  -1.221  0.00  0.00    -0.008 C 
ATOM     10  C   UNL     1      -3.090  -2.672  -1.232  0.00  0.00    +0.007 C 
ATOM     11  C   UNL     1      -2.271  -3.037   0.007  0.00  0.00    -0.008 C 
ATOM     12  C   UNL     1      -0.957  -2.254  -0.001  0.00  0.00    +0.029 C 
ATOM     13  C   UNL     1      -3.066  -2.685   1.266  0.00  0.00    +0.007 C 
ATOM     14  C   UNL     1      -3.366  -1.185   1.277  0.00  0.00    -0.008 C 
ATOM     15  C   UNL     1      -4.185  -0.819   0.038  0.00  0.00    +0.007 C 
ATOM     16  C   UNL     1      -2.052  -0.402   1.269  0.00  0.00    +0.029 C 
ENDBRANCH   4   7
BRANCH   1  21
ATOM     17  C   UNL     1       2.201   4.298   0.004  0.00  0.00    +0.091 A 
ATOM     18  C   UNL     1       1.888   5.708   0.015  0.00  0.00    -0.025 A 
ATOM     19  C   UNL     1       0.588   6.048   0.029  0.00  0.00    -0.008 A 
ATOM     20  S   UNL     1      -0.248   4.476   0.021  0.00  0.00    -0.078 S 
ATOM     21  C   UNL     1       1.123   3.419   0.010  0.00  0.00    +0.087 A 
ATOM     22  C   UNL     1      -0.017   7.429   0.042  0.00  0.00    +0.052 C 
ATOM     23  C   UNL     1       2.974   6.753   0.010  0.00  0.00    +0.045 C 
BRANCH  17  24
ATOM     24  C   UNL     1       3.584   3.818  -0.011  0.00  0.00    +0.342 C 
ATOM     25  O   UNL     1       4.149   3.624  -1.071  0.00  0.00    -0.245 OA
BRANCH  24  26
ATOM     26  O   UNL     1       4.232   3.590   1.150  0.00  0.00    -0.461 OA
BRANCH  26  28
ATOM     27  C   UNL     1       6.166   2.915   2.466  0.00  0.00    +0.048 C 
ATOM     28  C   UNL     1       5.601   3.115   1.059  0.00  0.00    +0.229 C 
ENDBRANCH  26  28
ENDBRANCH  24  26
ENDBRANCH  17  24
ENDBRANCH   1  21
TORSDOF 5
