REMARK  Name = ZINC63619699
REMARK  9 active torsions:
REMARK  status: ('A' for Active; 'I' for Inactive)
REMARK    1  A    between atoms: C_1  and  C_2
REMARK    2  A    between atoms: C_2  and  C_3
REMARK    3  A    between atoms: C_2  and  O_4
REMARK    4  A    between atoms: O_4  and  C_5
REMARK    5  A    between atoms: C_9  and  C_11
REMARK    6  A    between atoms: C_15  and  S_19
REMARK    7  A    between atoms: N_17  and  N_18
REMARK    8  A    between atoms: S_19  and  C_20
REMARK    9  A    between atoms: C_20  and  C_21
REMARK                            x       y       z     vdW  Elec       q    Type
REMARK                         _______ _______ _______ _____ _____    ______ ____
ROOT
ATOM      1  C   UNL     1       0.452  -1.512   5.851  0.00  0.00    +0.186 C 
ATOM      2  N   UNL     1       1.836  -1.013   5.678  0.00  0.00    -0.232 NA
ATOM      3  N   UNL     1       2.278  -0.675   7.041  0.00  0.00    -0.228 NA
ATOM      4  C   UNL     1       1.052  -0.105   7.659  0.00  0.00    +0.214 C 
ATOM      5  N   UNL     1      -0.050  -0.933   7.115  0.00  0.00    -0.195 NA
ATOM      6  H   UNL     1       1.855  -0.201   5.080  0.00  0.00    +0.143 HD
ATOM      7  H   UNL     1       2.583  -1.500   7.537  0.00  0.00    +0.143 HD
ENDROOT
BRANCH   1  12
ATOM      8  C   UNL     1      -0.644  -0.493   2.382  0.00  0.00    +0.121 A 
ATOM      9  C   UNL     1      -1.992  -0.231   2.586  0.00  0.00    +0.045 A 
ATOM     10  C   UNL     1      -2.541  -0.384   3.844  0.00  0.00    +0.004 A 
ATOM     11  C   UNL     1      -1.750  -0.798   4.899  0.00  0.00    +0.007 A 
ATOM     12  C   UNL     1      -0.407  -1.060   4.699  0.00  0.00    -0.010 A 
ATOM     13  C   UNL     1       0.146  -0.914   3.441  0.00  0.00    +0.052 A 
BRANCH   8  14
ATOM     14  O   UNL     1      -0.102  -0.344   1.145  0.00  0.00    -0.489 OA
BRANCH  14  16
ATOM     15  C   UNL     1      -1.194   1.492   0.016  0.00  0.00    +0.051 C 
ATOM     16  C   UNL     1      -0.997  -0.024   0.078  0.00  0.00    +0.167 C 
ATOM     17  C   UNL     1      -0.409  -0.516  -1.246  0.00  0.00    +0.051 C 
ENDBRANCH  14  16
ENDBRANCH   8  14
ENDBRANCH   1  12
BRANCH   5  18
ATOM     18  N   UNL     1      -0.430  -1.977   8.052  0.00  0.00    -0.264 NA
ATOM     19  H   UNL     1      -0.886  -1.587   8.863  0.00  0.00    +0.137 HD
ATOM     20  H   UNL     1      -1.015  -2.668   7.606  0.00  0.00    +0.137 HD
ENDBRANCH   5  18
BRANCH   4  21
ATOM     21  S   UNL     1       1.127  -0.251   9.466  0.00  0.00    -0.120 S 
BRANCH  21  22
ATOM     22  C   UNL     1       2.336   1.008   9.959  0.00  0.00    +0.118 C 
BRANCH  22  23
ATOM     23  C   UNL     1       2.588   0.911  11.464  0.00  0.00    +0.184 C 
ATOM     24  N   UNL     1       3.042  -0.441  11.813  0.00  0.00    -0.363 N 
ATOM     25  C   UNL     1       2.172  -0.943  12.642  0.00  0.00    +0.060 A 
ATOM     26  C   UNL     1       2.080  -2.237  13.330  0.00  0.00    +0.027 A 
ATOM     27  C   UNL     1       1.038  -2.482  14.150  0.00  0.00    +0.002 A 
ATOM     28  C   UNL     1       0.018  -1.542  14.381  0.00  0.00    +0.002 A 
ATOM     29  C   UNL     1       0.006  -0.326  13.800  0.00  0.00    +0.027 A 
ATOM     30  C   UNL     1       1.093   0.052  12.887  0.00  0.00    +0.060 A 
ATOM     31  N   UNL     1       1.337   1.131  12.200  0.00  0.00    -0.363 N 
ATOM     32  H   UNL     1       3.843  -0.879  11.487  0.00  0.00    +0.162 HD
ATOM     33  H   UNL     1       0.792   1.934  12.179  0.00  0.00    +0.162 HD
ENDBRANCH  22  23
ENDBRANCH  21  22
ENDBRANCH   4  21
TORSDOF 7
