REMARK  Name = ZINC66836619
REMARK  8 active torsions:
REMARK  status: ('A' for Active; 'I' for Inactive)
REMARK    1  A    between atoms: C_1  and  C_2
REMARK    2  A    between atoms: C_2  and  C_4
REMARK    3  A    between atoms: C_2  and  N_15
REMARK    4  A    between atoms: N_6  and  C_7
REMARK    5  A    between atoms: N_15  and  C_16
REMARK    6  A    between atoms: N_15  and  C_17
REMARK    7  A    between atoms: C_17  and  C_18
REMARK    8  A    between atoms: N_20  and  C_21
REMARK                            x       y       z     vdW  Elec       q    Type
REMARK                         _______ _______ _______ _____ _____    ______ ____
ROOT
ATOM      1  N   UNL     1      -0.471  -0.707  -0.881  0.00  0.00    +0.391 N 
ATOM      2  C   UNL     1      -1.280  -1.927  -0.759  0.00  0.00    -0.094 C 
ATOM      3  H   UNL     1       0.508  -0.952  -0.891  0.00  0.00    -0.080 HD
ENDROOT
BRANCH   1   5
ATOM      4  C   UNL     1       0.036   1.484   0.091  0.00  0.00    -0.004 C 
ATOM      5  C   UNL     1      -0.743   0.177   0.261  0.00  0.00    +0.017 C 
BRANCH   5   6
ATOM      6  C   UNL     1      -0.312  -0.502   1.535  0.00  0.00    +0.203 C 
ATOM      7  O   UNL     1       0.557  -1.348   1.508  0.00  0.00    -0.277 OA
ATOM      8  N   UNL     1      -0.892  -0.169   2.705  0.00  0.00    -0.285 N 
ATOM      9  H   UNL     1      -1.637   0.453   2.718  0.00  0.00    +0.155 HD
BRANCH   8  10
ATOM     10  C   UNL     1      -0.421  -0.721   3.903  0.00  0.00    +0.070 A 
ATOM     11  C   UNL     1       0.837  -1.305   3.951  0.00  0.00    +0.046 A 
ATOM     12  C   UNL     1       1.300  -1.849   5.135  0.00  0.00    +0.043 A 
ATOM     13  C   UNL     1       0.511  -1.812   6.271  0.00  0.00    +0.023 A 
ATOM     14  C   UNL     1      -0.743  -1.230   6.227  0.00  0.00    +0.041 A 
ATOM     15  C   UNL     1      -1.209  -0.679   5.047  0.00  0.00    +0.145 A 
ATOM     16  F   UNL     1      -2.432  -0.107   5.006  0.00  0.00    -0.204 F 
ATOM     17 CL   UNL     1       2.874  -2.580   5.196  0.00  0.00    -0.083 Cl
ENDBRANCH   8  10
ENDBRANCH   5   6
ENDBRANCH   1   5
BRANCH   1  18
ATOM     18  C   UNL     1      -0.815  -0.014  -2.129  0.00  0.00    +0.020 C 
BRANCH  18  19
ATOM     19  C   UNL     1      -0.423  -0.872  -3.305  0.00  0.00    +0.201 C 
ATOM     20  O   UNL     1       0.093  -1.954  -3.120  0.00  0.00    -0.278 OA
ATOM     21  N   UNL     1      -0.645  -0.436  -4.561  0.00  0.00    -0.287 N 
ATOM     22  H   UNL     1      -0.997   0.455  -4.710  0.00  0.00    +0.155 HD
BRANCH  21  23
ATOM     23  C   UNL     1      -0.368  -1.270  -5.649  0.00  0.00    +0.039 A 
ATOM     24  C   UNL     1      -1.178  -1.235  -6.776  0.00  0.00    +0.061 A 
ATOM     25  C   UNL     1      -0.902  -2.060  -7.852  0.00  0.00    +0.128 A 
ATOM     26  C   UNL     1       0.180  -2.922  -7.804  0.00  0.00    +0.076 A 
ATOM     27  C   UNL     1       0.990  -2.959  -6.681  0.00  0.00    +0.128 A 
ATOM     28  C   UNL     1       0.721  -2.131  -5.606  0.00  0.00    +0.061 A 
ATOM     29  F   UNL     1       2.045  -3.801  -6.638  0.00  0.00    -0.205 F 
ATOM     30  F   UNL     1      -1.690  -2.026  -8.949  0.00  0.00    -0.205 F 
ENDBRANCH  21  23
ENDBRANCH  18  19
ENDBRANCH   1  18
TORSDOF 6
