REMARK  Name = ZINC16689778
REMARK  7 active torsions:
REMARK  status: ('A' for Active; 'I' for Inactive)
REMARK    1  A    between atoms: C_1  and  C_2
REMARK    2  A    between atoms: N_5  and  C_11
REMARK    3  A    between atoms: C_7  and  C_10
REMARK    4  A    between atoms: C_11  and  C_13
REMARK    5  A    between atoms: C_11  and  C_20
REMARK    6  A    between atoms: C_21  and  O_33
REMARK    7  A    between atoms: C_26  and  C_28
REMARK                            x       y       z     vdW  Elec       q    Type
REMARK                         _______ _______ _______ _____ _____    ______ ____
ROOT
ATOM      1  C   UNL     1      -2.768  -2.557   0.042  0.00  0.00    +0.131 C 
ENDROOT
BRANCH   1   5
ATOM      2  C   UNL     1       1.286  -0.897  -2.203  0.00  0.00    +0.039 C 
ATOM      3  C   UNL     1       0.550  -1.022  -0.867  0.00  0.00    +0.130 C 
ATOM      4  C   UNL     1      -0.775  -1.758  -1.081  0.00  0.00    +0.116 C 
ATOM      5  N   UNL     1      -1.512  -1.808   0.191  0.00  0.00    -0.286 NA
ATOM      6  C   UNL     1      -1.765  -0.452   0.700  0.00  0.00    +0.116 C 
ATOM      7  C   UNL     1      -0.429   0.271   0.895  0.00  0.00    +0.130 C 
ATOM      8  O   UNL     1       0.288   0.282  -0.342  0.00  0.00    -0.371 OA
ATOM      9  C   UNL     1      -0.688   1.708   1.350  0.00  0.00    +0.039 C 
ENDBRANCH   1   5
BRANCH   1  10
ATOM     10  C   UNL     1      -3.567  -2.454   1.315  0.00  0.00    +0.076 A 
ATOM     11  C   UNL     1      -4.829  -2.042   1.489  0.00  0.00    +0.228 A 
ATOM     12  N   UNL     1      -5.393  -2.018   2.741  0.00  0.00    -0.173 N 
ATOM     13  C   UNL     1      -4.611  -2.431   3.784  0.00  0.00    +0.200 A 
ATOM     14  S   UNL     1      -3.082  -2.857   2.986  0.00  0.00    -0.047 S 
ATOM     15  N   UNL     1      -5.285  -2.351   4.898  0.00  0.00    -0.197 NA
ATOM     16  C   UNL     1      -6.516  -1.890   4.638  0.00  0.00    +0.218 A 
ATOM     17  N   UNL     1      -6.630  -1.673   3.345  0.00  0.00    -0.138 NA
BRANCH  16  18
ATOM     18  C   UNL     1      -7.576  -1.661   5.642  0.00  0.00    +0.173 A 
ATOM     19  C   UNL     1      -7.467  -1.876   6.980  0.00  0.00    +0.053 A 
ATOM     20  C   UNL     1      -8.708  -1.528   7.550  0.00  0.00    +0.042 A 
ATOM     21  C   UNL     1      -9.505  -1.122   6.542  0.00  0.00    +0.196 A 
ATOM     22  O   UNL     1      -8.816  -1.199   5.392  0.00  0.00    -0.460 OA
ENDBRANCH  16  18
BRANCH  11  23
ATOM     23  O   UNL     1      -5.559  -1.641   0.413  0.00  0.00    -0.492 OA
ATOM     24  H   UNL     1      -6.459  -1.360   0.631  0.00  0.00    +0.294 HD
ENDBRANCH  11  23
ENDBRANCH   1  10
BRANCH   1  25
ATOM     25  C   UNL     1      -2.458  -4.004  -0.241  0.00  0.00    -0.007 A 
ATOM     26  C   UNL     1      -1.276  -4.560   0.211  0.00  0.00    +0.007 A 
ATOM     27  C   UNL     1      -0.992  -5.888  -0.049  0.00  0.00    +0.000 A 
ATOM     28  C   UNL     1      -1.891  -6.660  -0.761  0.00  0.00    +0.001 A 
ATOM     29  C   UNL     1      -3.073  -6.106  -1.213  0.00  0.00    +0.020 A 
ATOM     30  C   UNL     1      -3.360  -4.779  -0.949  0.00  0.00    +0.046 A 
ATOM     31 CL   UNL     1      -4.848  -4.083  -1.511  0.00  0.00    -0.083 Cl
ENDBRANCH   1  25
TORSDOF 5
