REMARK  Name = ZINC65107889
REMARK  9 active torsions:
REMARK  status: ('A' for Active; 'I' for Inactive)
REMARK    1  A    between atoms: C_1  and  C_2
REMARK    2  A    between atoms: C_2  and  N_3
REMARK    3  A    between atoms: N_3  and  C_4
REMARK    4  A    between atoms: N_3  and  C_6
REMARK    5  A    between atoms: C_4  and  C_5
REMARK    6  A    between atoms: C_6  and  C_7
REMARK    7  A    between atoms: C_12  and  N_13
REMARK    8  A    between atoms: C_14  and  C_16
REMARK    9  A    between atoms: C_18  and  C_22
REMARK                            x       y       z     vdW  Elec       q    Type
REMARK                         _______ _______ _______ _____ _____    ______ ____
ROOT
ATOM      1  N   UNL     1      -1.336  -1.519  -3.967  0.00  0.00    -0.280 N 
ATOM      2  C   UNL     1      -2.035  -0.669  -4.746  0.00  0.00    +0.269 C 
ATOM      3  O   UNL     1      -3.151  -0.319  -4.414  0.00  0.00    -0.268 OA
ATOM      4  H   UNL     1      -0.420  -1.743  -4.195  0.00  0.00    +0.155 HD
ENDROOT
BRANCH   2   5
ATOM      5  C   UNL     1      -1.446  -0.164  -6.002  0.00  0.00    +0.161 A 
ATOM      6  C   UNL     1      -2.052   0.732  -6.915  0.00  0.00    +0.071 A 
ATOM      7  C   UNL     1      -1.146   0.907  -7.907  0.00  0.00    +0.054 A 
ATOM      8  N   UNL     1      -0.062   0.153  -7.595  0.00  0.00    -0.280 N 
ATOM      9  N   UNL     1      -0.253  -0.458  -6.481  0.00  0.00    -0.168 NA
ATOM     10  H   UNL     1       0.743   0.089  -8.133  0.00  0.00    +0.189 HD
ATOM     11 BR   UNL     1      -3.766   1.519  -6.779  0.00  0.00    -0.046 Br
BRANCH   7  12
ATOM     12  C   UNL     1      -1.312   1.775  -9.127  0.00  0.00    +0.038 C 
ATOM     13  C   UNL     1      -0.245   1.669 -10.219  0.00  0.00    +0.010 C 
ATOM     14  C   UNL     1      -0.307   2.911  -9.328  0.00  0.00    +0.010 C 
ENDBRANCH   7  12
ENDBRANCH   2   5
BRANCH   1  20
ATOM     15  C   UNL     1      -1.164  -2.346  -1.705  0.00  0.00    -0.043 A 
ATOM     16  C   UNL     1      -1.756  -2.890  -0.582  0.00  0.00    +0.003 A 
ATOM     17  C   UNL     1      -3.109  -3.172  -0.580  0.00  0.00    +0.000 A 
ATOM     18  C   UNL     1      -3.875  -2.910  -1.702  0.00  0.00    +0.002 A 
ATOM     19  C   UNL     1      -3.289  -2.366  -2.828  0.00  0.00    +0.023 A 
ATOM     20  C   UNL     1      -1.931  -2.076  -2.831  0.00  0.00    +0.035 A 
BRANCH  15  21
ATOM     21  C   UNL     1       0.312  -2.039  -1.707  0.00  0.00    -0.041 C 
BRANCH  21  22
ATOM     22  N   UNL     1       0.514  -0.606  -1.456  0.00  0.00    +0.382 N 
ATOM     23  H   UNL     1      -0.009  -0.069  -2.131  0.00  0.00    -0.081 HD
BRANCH  22  25
ATOM     24  C   UNL     1       0.129   1.238   0.110  0.00  0.00    -0.017 C 
ATOM     25  C   UNL     1       0.050  -0.276  -0.102  0.00  0.00    -0.082 C 
ENDBRANCH  22  25
BRANCH  22  26
ATOM     26  C   UNL     1       1.943  -0.285  -1.575  0.00  0.00    -0.082 C 
ATOM     27  C   UNL     1       2.393  -0.495  -3.022  0.00  0.00    -0.017 C 
ENDBRANCH  22  26
ENDBRANCH  21  22
ENDBRANCH  15  21
ENDBRANCH   1  20
TORSDOF 7
