REMARK  Name = ZINC63383514
REMARK  8 active torsions:
REMARK  status: ('A' for Active; 'I' for Inactive)
REMARK    1  A    between atoms: C_1  and  C_2
REMARK    2  A    between atoms: C_2  and  C_3
REMARK    3  A    between atoms: C_2  and  C_4
REMARK    4  A    between atoms: C_4  and  C_5
REMARK    5  A    between atoms: C_5  and  C_7
REMARK    6  A    between atoms: C_5  and  N_13
REMARK    7  A    between atoms: N_9  and  C_10
REMARK    8  A    between atoms: C_14  and  C_16
REMARK                            x       y       z     vdW  Elec       q    Type
REMARK                         _______ _______ _______ _____ _____    ______ ____
ROOT
ATOM      1  C   UNL     1      -0.539   3.200  -2.483  0.00  0.00    +0.167 C 
ATOM      2  C   UNL     1      -1.683   3.780  -3.336  0.00  0.00    +0.065 C 
ATOM      3  C   UNL     1      -1.083   4.199  -4.654  0.00  0.00    -0.034 C 
ATOM      4  C   UNL     1      -1.163   5.353  -5.311  0.00  0.00    -0.001 A 
ATOM      5  C   UNL     1      -1.929   6.581  -5.041  0.00  0.00    +0.010 A 
ATOM      6  C   UNL     1      -1.762   7.598  -5.927  0.00  0.00    +0.001 A 
ATOM      7  C   UNL     1      -0.920   7.518  -7.041  0.00  0.00    +0.002 A 
ATOM      8  C   UNL     1      -0.185   6.426  -7.370  0.00  0.00    +0.026 A 
ATOM      9  C   UNL     1      -0.281   5.289  -6.516  0.00  0.00    +0.043 A 
ATOM     10  N   UNL     1       0.287   4.123  -6.601  0.00  0.00    -0.375 N 
ATOM     11  C   UNL     1      -0.201   3.291  -5.500  0.00  0.00    +0.131 C 
ATOM     12  C   UNL     1       0.934   2.799  -4.604  0.00  0.00    +0.134 C 
ATOM     13  N   UNL     1       0.710   3.331  -3.244  0.00  0.00    -0.276 N 
ATOM     14  C   UNL     1       1.830   3.962  -2.841  0.00  0.00    +0.248 C 
ATOM     15  O   UNL     1       2.017   4.402  -1.723  0.00  0.00    -0.270 OA
ATOM     16  C   UNL     1       2.788   4.038  -3.945  0.00  0.00    +0.042 A 
ATOM     17  C   UNL     1       2.259   3.315  -5.061  0.00  0.00    -0.013 A 
ATOM     18  C   UNL     1       2.929   3.199  -6.258  0.00  0.00    +0.006 A 
ATOM     19  C   UNL     1       4.177   3.809  -6.346  0.00  0.00    +0.000 A 
ATOM     20  C   UNL     1       4.726   4.500  -5.284  0.00  0.00    +0.001 A 
ATOM     21  C   UNL     1       4.040   4.655  -4.026  0.00  0.00    +0.013 A 
ATOM     22  H   UNL     1       0.927   3.851  -7.277  0.00  0.00    +0.160 HD
ENDROOT
BRANCH   1  24
ATOM     23  N   UNL     1      -1.914   1.388  -1.512  0.00  0.00    -0.302 N 
ATOM     24  C   UNL     1      -0.807   1.746  -2.193  0.00  0.00    +0.235 C 
ATOM     25  O   UNL     1      -0.027   0.898  -2.572  0.00  0.00    -0.274 OA
ATOM     26  H   UNL     1      -2.574   2.057  -1.273  0.00  0.00    +0.150 HD
BRANCH  23  27
ATOM     27  C   UNL     1      -2.121  -0.012  -1.135  0.00  0.00    +0.159 C 
BRANCH  27  28
ATOM     28  C   UNL     1      -3.598  -0.297  -1.050  0.00  0.00    +0.234 C 
ATOM     29  O   UNL     1      -4.386   0.618  -0.933  0.00  0.00    -0.274 OA
ATOM     30  N   UNL     1      -4.044  -1.568  -1.103  0.00  0.00    -0.311 N 
ATOM     31  H   UNL     1      -3.412  -2.303  -1.125  0.00  0.00    +0.149 HD
BRANCH  30  32
ATOM     32  C   UNL     1      -5.483  -1.839  -1.128  0.00  0.00    +0.073 C 
ATOM     33  C   UNL     1      -6.005  -2.970  -0.240  0.00  0.00    +0.024 C 
ATOM     34  C   UNL     1      -5.944  -3.155  -1.758  0.00  0.00    +0.024 C 
ENDBRANCH  30  32
ENDBRANCH  27  28
BRANCH  27  35
ATOM     35  C   UNL     1      -1.472  -0.275   0.226  0.00  0.00    +0.034 C 
BRANCH  35  37
ATOM     36  C   UNL     1      -0.713  -2.566  -0.419  0.00  0.00    +0.007 C 
ATOM     37  C   UNL     1      -1.572  -1.764   0.560  0.00  0.00    -0.015 C 
ATOM     38  C   UNL     1      -1.075  -2.001   1.988  0.00  0.00    +0.007 C 
ENDBRANCH  35  37
ENDBRANCH  27  35
ENDBRANCH  23  27
ENDBRANCH   1  24
TORSDOF 6
