REMARK  Name = ZINC57633819
REMARK  5 active torsions:
REMARK  status: ('A' for Active; 'I' for Inactive)
REMARK    1  A    between atoms: C_6  and  C_7
REMARK    2  A    between atoms: C_7  and  C_9
REMARK    3  A    between atoms: C_7  and  N_11
REMARK    4  A    between atoms: C_9  and  N_10
REMARK    5  A    between atoms: N_11  and  C_12
REMARK                            x       y       z     vdW  Elec       q    Type
REMARK                         _______ _______ _______ _____ _____    ______ ____
ROOT
ATOM      1  C   UNL     1      -1.373  -0.814  -0.013  0.00  0.00    +0.083 C 
ENDROOT
BRANCH   1   7
ATOM      2  C   UNL     1      -0.393   1.480   0.184  0.00  0.00    +0.007 A 
ATOM      3  C   UNL     1       0.690   2.333   0.295  0.00  0.00    +0.020 A 
ATOM      4  C   UNL     1       1.974   1.819   0.330  0.00  0.00    +0.041 A 
ATOM      5  C   UNL     1       2.173   0.452   0.254  0.00  0.00    +0.020 A 
ATOM      6  C   UNL     1       1.090  -0.400   0.143  0.00  0.00    +0.007 A 
ATOM      7  C   UNL     1      -0.193   0.115   0.108  0.00  0.00    -0.029 A 
ATOM      8 CL   UNL     1       3.334   2.889   0.469  0.00  0.00    -0.084 Cl
ENDBRANCH   1   7
BRANCH   1   9
ATOM      9  N   UNL     1      -1.147  -2.002   0.815  0.00  0.00    -0.339 N 
ATOM     10  H   UNL     1      -0.756  -2.798   0.423  0.00  0.00    +0.147 HD
BRANCH   9  11
ATOM     11  C   UNL     1      -1.495  -1.987   2.170  0.00  0.00    +0.031 A 
ATOM     12  C   UNL     1      -1.945  -0.813   2.759  0.00  0.00    +0.027 A 
ATOM     13  C   UNL     1      -2.287  -0.798   4.098  0.00  0.00    +0.051 A 
ATOM     14  C   UNL     1      -2.184  -1.954   4.856  0.00  0.00    +0.162 A 
ATOM     15  C   UNL     1      -1.736  -3.131   4.269  0.00  0.00    +0.164 A 
ATOM     16  C   UNL     1      -1.396  -3.147   2.925  0.00  0.00    +0.072 A 
ATOM     17  O   UNL     1      -1.636  -4.278   4.996  0.00  0.00    -0.485 OA
ATOM     18  C   UNL     1      -1.634  -4.139   6.421  0.00  0.00    +0.270 C 
ATOM     19  C   UNL     1      -2.765  -3.178   6.811  0.00  0.00    +0.270 C 
ATOM     20  O   UNL     1      -2.523  -1.919   6.175  0.00  0.00    -0.485 OA
ENDBRANCH   9  11
ENDBRANCH   1   9
BRANCH   1  21
ATOM     21  C   UNL     1      -1.544  -1.235  -1.473  0.00  0.00    -0.059 C 
BRANCH  21  22
ATOM     22  N   UNL     1      -2.642  -2.205  -1.579  0.00  0.00    +0.380 N 
ATOM     23  H   UNL     1      -2.709  -2.536  -2.529  0.00  0.00    -0.090 HD
ATOM     24  H   UNL     1      -2.463  -2.984  -0.963  0.00  0.00    -0.090 HD
ATOM     25  H   UNL     1      -3.509  -1.761  -1.315  0.00  0.00    -0.090 HD
ENDBRANCH  21  22
ENDBRANCH   1  21
TORSDOF 5
