REMARK  Name = ZINC20932127
REMARK  12 active torsions:
REMARK  status: ('A' for Active; 'I' for Inactive)
REMARK    1  A    between atoms: C_1  and  C_2
REMARK    2  A    between atoms: C_2  and  O_3
REMARK    3  A    between atoms: O_3  and  C_4
REMARK    4  A    between atoms: C_4  and  C_6
REMARK    5  A    between atoms: C_6  and  C_7
REMARK    6  A    between atoms: C_11  and  O_34
REMARK    7  A    between atoms: C_12  and  O_32
REMARK    8  A    between atoms: N_17  and  C_18
REMARK    9  A    between atoms: C_18  and  C_19
REMARK   10  A    between atoms: N_21  and  C_22
REMARK   11  A    between atoms: O_32  and  C_33
REMARK   12  A    between atoms: O_34  and  C_35
REMARK                            x       y       z     vdW  Elec       q    Type
REMARK                         _______ _______ _______ _____ _____    ______ ____
ROOT
ATOM      1  C   UNL     1       2.825   1.133   6.172  0.00  0.00    -0.026 C 
ATOM      2  C   UNL     1       3.072   2.031   4.988  0.00  0.00    -0.054 A 
ATOM      3  C   UNL     1       2.054   2.884   4.585  0.00  0.00    +0.051 A 
ATOM      4  C   UNL     1       2.237   3.734   3.510  0.00  0.00    +0.162 A 
ATOM      5  C   UNL     1       3.450   3.733   2.828  0.00  0.00    +0.162 A 
ATOM      6  C   UNL     1       4.460   2.876   3.229  0.00  0.00    +0.053 A 
ATOM      7  C   UNL     1       4.272   2.027   4.310  0.00  0.00    -0.044 A 
ATOM      8  C   UNL     1       5.401   1.110   4.706  0.00  0.00    +0.017 C 
ATOM      9  C   UNL     1       5.170   0.579   6.121  0.00  0.00    -0.073 C 
ATOM     10  N   UNL     1       3.803   0.041   6.202  0.00  0.00    +0.391 N 
ATOM     11  H   UNL     1       3.628  -0.602   5.326  0.00  0.00    -0.080 HD
ENDROOT
BRANCH   5  12
ATOM     12  O   UNL     1       3.641   4.566   1.770  0.00  0.00    -0.491 OA
ATOM     13  C   UNL     1       4.912   4.508   1.120  0.00  0.00    +0.277 C 
ENDBRANCH   5  12
BRANCH   4  14
ATOM     14  O   UNL     1       1.236   4.567   3.120  0.00  0.00    -0.491 OA
ATOM     15  C   UNL     1       0.018   4.513   3.866  0.00  0.00    +0.277 C 
ENDBRANCH   4  14
BRANCH   1  16
ATOM     16  C   UNL     1       1.416   0.546   6.076  0.00  0.00    +0.110 C 
BRANCH  16  17
ATOM     17  C   UNL     1       1.312  -0.311   4.841  0.00  0.00    +0.306 C 
ATOM     18  O   UNL     1       2.291  -0.514   4.163  0.00  0.00    -0.251 OA
BRANCH  17  19
ATOM     19  O   UNL     1       0.131  -0.848   4.494  0.00  0.00    -0.465 OA
BRANCH  19  21
ATOM     20  C   UNL     1      -1.314  -2.184   3.060  0.00  0.00    +0.048 C 
ATOM     21  C   UNL     1       0.106  -1.662   3.292  0.00  0.00    +0.229 C 
ENDBRANCH  19  21
ENDBRANCH  17  19
ENDBRANCH  16  17
ENDBRANCH   1  16
BRANCH  10  22
ATOM     22  C   UNL     1       3.633  -0.786   7.403  0.00  0.00    +0.020 C 
BRANCH  22  23
ATOM     23  C   UNL     1       4.486  -2.023   7.287  0.00  0.00    +0.201 C 
ATOM     24  O   UNL     1       5.082  -2.253   6.256  0.00  0.00    -0.278 OA
ATOM     25  N   UNL     1       4.585  -2.874   8.327  0.00  0.00    -0.282 N 
ATOM     26  H   UNL     1       3.975  -2.714   9.229  0.00  0.00    +0.155 HD
BRANCH  25  27
ATOM     27  C   UNL     1       5.466  -3.962   8.261  0.00  0.00    +0.110 A 
ATOM     28  C   UNL     1       5.487  -4.773   7.133  0.00  0.00    +0.182 A 
ATOM     29  C   UNL     1       6.362  -5.845   7.068  0.00  0.00    +0.163 A 
ATOM     30  C   UNL     1       7.207  -6.115   8.130  0.00  0.00    +0.082 A 
ATOM     31  C   UNL     1       7.184  -5.312   9.258  0.00  0.00    +0.163 A 
ATOM     32  C   UNL     1       6.315  -4.236   9.326  0.00  0.00    +0.182 A 
ATOM     33  F   UNL     1       6.294  -3.453  10.427  0.00  0.00    -0.200 F 
ATOM     34  F   UNL     1       8.011  -5.579  10.293  0.00  0.00    -0.202 F 
ATOM     35  F   UNL     1       6.386  -6.630   5.969  0.00  0.00    -0.202 F 
ATOM     36  F   UNL     1       4.658  -4.513   6.098  0.00  0.00    -0.200 F 
ENDBRANCH  25  27
ENDBRANCH  22  23
ENDBRANCH  10  22
TORSDOF 9
