REMARK  Name = ZINC39919941
REMARK  7 active torsions:
REMARK  status: ('A' for Active; 'I' for Inactive)
REMARK    1  A    between atoms: C_1  and  C_2
REMARK    2  A    between atoms: C_2  and  C_3
REMARK    3  A    between atoms: C_2  and  C_4
REMARK    4  A    between atoms: C_7  and  C_10
REMARK    5  A    between atoms: N_21  and  N_22
REMARK    6  A    between atoms: C_23  and  C_25
REMARK    7  A    between atoms: C_25  and  C_26
REMARK                            x       y       z     vdW  Elec       q    Type
REMARK                         _______ _______ _______ _____ _____    ______ ____
ROOT
ATOM      1  C   UNL     1      -5.419  -2.005   0.043  0.00  0.00    +0.212 C 
ATOM      2  N   UNL     1      -6.284  -1.053   0.752  0.00  0.00    -0.320 N 
ATOM      3  C   UNL     1      -6.657   0.118   0.100  0.00  0.00    +0.041 A 
ATOM      4  C   UNL     1      -6.918   1.289   0.789  0.00  0.00    +0.025 A 
ATOM      5  C   UNL     1      -7.282   2.426   0.093  0.00  0.00    +0.022 A 
ATOM      6  C   UNL     1      -7.387   2.402  -1.290  0.00  0.00    +0.042 A 
ATOM      7  C   UNL     1      -7.131   1.241  -1.992  0.00  0.00    +0.035 A 
ATOM      8  C   UNL     1      -6.766   0.088  -1.302  0.00  0.00    +0.061 A 
ATOM      9  C   UNL     1      -6.490  -1.180  -2.001  0.00  0.00    +0.267 C 
ATOM     10  O   UNL     1      -6.807  -1.321  -3.166  0.00  0.00    -0.268 OA
ATOM     11  N   UNL     1      -5.882  -2.178  -1.333  0.00  0.00    -0.191 N 
ATOM     12 CL   UNL     1      -7.845   3.843  -2.144  0.00  0.00    -0.084 Cl
ATOM     13  H   UNL     1      -6.588  -1.236   1.654  0.00  0.00    +0.148 HD
ENDROOT
BRANCH   1  17
ATOM     14  C   UNL     1      -1.412  -0.526   0.013  0.00  0.00    -0.045 A 
ATOM     15  C   UNL     1      -2.259  -0.204   1.056  0.00  0.00    +0.004 A 
ATOM     16  C   UNL     1      -3.556  -0.683   1.066  0.00  0.00    +0.007 A 
ATOM     17  C   UNL     1      -4.006  -1.482   0.032  0.00  0.00    -0.008 A 
ATOM     18  C   UNL     1      -3.159  -1.803  -1.012  0.00  0.00    +0.007 A 
ATOM     19  C   UNL     1      -1.863  -1.321  -1.024  0.00  0.00    +0.004 A 
BRANCH  14  21
ATOM     20  C   UNL     1      -0.019   1.526   0.010  0.00  0.00    +0.012 C 
ATOM     21  C   UNL     1       0.002  -0.004   0.002  0.00  0.00    +0.013 C 
ATOM     22  C   UNL     1       0.742  -0.511   1.242  0.00  0.00    +0.012 C 
ENDBRANCH  14  21
ENDBRANCH   1  17
BRANCH  11  23
ATOM     23  N   UNL     1      -5.690  -3.409  -1.974  0.00  0.00    -0.229 N 
ATOM     24  C   UNL     1      -6.730  -4.248  -2.149  0.00  0.00    +0.234 C 
ATOM     25  O   UNL     1      -7.833  -3.936  -1.753  0.00  0.00    -0.274 OA
ATOM     26  H   UNL     1      -4.807  -3.658  -2.291  0.00  0.00    +0.173 HD
BRANCH  24  27
ATOM     27  C   UNL     1      -6.523  -5.572  -2.838  0.00  0.00    +0.132 C 
BRANCH  27  28
ATOM     28  C   UNL     1      -7.833  -6.313  -2.906  0.00  0.00    -0.039 A 
ATOM     29  C   UNL     1      -8.202  -7.161  -1.879  0.00  0.00    +0.004 A 
ATOM     30  C   UNL     1      -9.403  -7.841  -1.942  0.00  0.00    +0.000 A 
ATOM     31  C   UNL     1     -10.237  -7.673  -3.031  0.00  0.00    +0.000 A 
ATOM     32  C   UNL     1      -9.869  -6.824  -4.058  0.00  0.00    +0.000 A 
ATOM     33  C   UNL     1      -8.669  -6.141  -3.994  0.00  0.00    +0.004 A 
ENDBRANCH  27  28
ENDBRANCH  24  27
ENDBRANCH  11  23
TORSDOF 5
