REMARK  Name = ZINC59459881
REMARK  4 active torsions:
REMARK  status: ('A' for Active; 'I' for Inactive)
REMARK    1  A    between atoms: C_4  and  C_10
REMARK    2  A    between atoms: C_6  and  N_7
REMARK    3  A    between atoms: N_11  and  C_12
REMARK    4  A    between atoms: C_13  and  C_20
REMARK                            x       y       z     vdW  Elec       q    Type
REMARK                         _______ _______ _______ _____ _____    ______ ____
ROOT
ATOM      1  C   UNL     1       3.690  -0.681  -0.037  0.00  0.00    +0.121 C 
ATOM      2  N   UNL     1       4.811  -0.009  -0.045  0.00  0.00    -0.246 NA
ENDROOT
BRANCH   2   3
ATOM      3  C   UNL     1       5.991  -0.666  -0.060  0.00  0.00    +0.119 A 
ATOM      4  C   UNL     1       7.287  -0.147  -0.065  0.00  0.00    +0.088 A 
ATOM      5  C   UNL     1       8.378  -1.049  -0.081  0.00  0.00    -0.018 A 
ATOM      6  C   UNL     1       8.079  -2.366  -0.096  0.00  0.00    -0.004 A 
ATOM      7  S   UNL     1       6.302  -2.422  -0.072  0.00  0.00    -0.073 S 
ATOM      8  C   UNL     1       9.312  -3.227  -0.121  0.00  0.00    +0.043 C 
ATOM      9  C   UNL     1      10.445  -2.271  -0.554  0.00  0.00    +0.010 C 
ATOM     10  C   UNL     1       9.903  -0.907  -0.085  0.00  0.00    +0.037 C 
BRANCH   4  11
ATOM     11  C   UNL     1       7.509   1.268  -0.052  0.00  0.00    +0.102 C 
ATOM     12  N   UNL     1       7.684   2.390  -0.042  0.00  0.00    -0.191 NA
ENDBRANCH   4  11
ENDBRANCH   2   3
BRANCH   1  16
ATOM     13  C   UNL     1      -0.017   1.380   0.010  0.00  0.00    +0.034 A 
ATOM     14  C   UNL     1       1.167   2.096   0.002  0.00  0.00    +0.023 A 
ATOM     15  C   UNL     1       2.378   1.434  -0.013  0.00  0.00    +0.050 A 
ATOM     16  C   UNL     1       2.405   0.034  -0.021  0.00  0.00    +0.014 A 
ATOM     17  C   UNL     1       1.203  -0.681  -0.013  0.00  0.00    +0.043 A 
ATOM     18  C   UNL     1       0.002  -0.004   0.002  0.00  0.00    +0.127 A 
ATOM     19 CL   UNL     1       3.863   2.333  -0.023  0.00  0.00    -0.083 Cl
BRANCH  18  20
ATOM     20  N   UNL     1      -1.271  -0.759   0.010  0.00  0.00    +0.056 N 
ATOM     21  O   UNL     1      -2.325  -0.167   0.023  0.00  0.00    -0.126 OA
ATOM     22  O   UNL     1      -1.257  -1.968   0.004  0.00  0.00    -0.126 OA
ENDBRANCH  18  20
ENDBRANCH   1  16
TORSDOF 4
