REMARK  Name = ZINC02644541
REMARK  11 active torsions:
REMARK  status: ('A' for Active; 'I' for Inactive)
REMARK    1  A    between atoms: C_1  and  C_2
REMARK    2  A    between atoms: C_2  and  C_3
REMARK    3  A    between atoms: C_6  and  C_9
REMARK    4  A    between atoms: C_9  and  N_10
REMARK    5  A    between atoms: N_10  and  C_11
REMARK    6  A    between atoms: N_10  and  C_12
REMARK    7  A    between atoms: C_12  and  C_13
REMARK    8  A    between atoms: C_13  and  C_15
REMARK    9  A    between atoms: C_13  and  O_27
REMARK   10  A    between atoms: C_15  and  O_16
REMARK   11  A    between atoms: O_16  and  C_17
REMARK                            x       y       z     vdW  Elec       q    Type
REMARK                         _______ _______ _______ _____ _____    ______ ____
ROOT
ATOM      1  C   UNL     1       4.170  -0.153  -7.592  0.00  0.00    +0.135 C 
ENDROOT
BRANCH   1   2
ATOM      2  O   UNL     1       5.329   0.479  -7.045  0.00  0.00    -0.390 OA
ATOM      3  H   UNL     1       6.070  -0.123  -6.893  0.00  0.00    +0.210 HD
ENDBRANCH   1   2
BRANCH   1   4
ATOM      4  C   UNL     1       3.680  -1.239  -6.633  0.00  0.00    -0.044 C 
BRANCH   4   5
ATOM      5  N   UNL     1       3.232  -0.620  -5.379  0.00  0.00    +0.382 N 
ATOM      6  C   UNL     1       2.907  -1.669  -4.403  0.00  0.00    -0.096 C 
ATOM      7  H   UNL     1       3.968  -0.035  -5.011  0.00  0.00    -0.082 HD
BRANCH   5   8
ATOM      8  C   UNL     1       2.039   0.198  -5.635  0.00  0.00    -0.043 C 
BRANCH   8  12
ATOM      9  C   UNL     1       0.940   2.274  -2.067  0.00  0.00    -0.048 A 
ATOM     10  C   UNL     1       1.816   2.857  -2.964  0.00  0.00    +0.004 A 
ATOM     11  C   UNL     1       2.172   2.184  -4.118  0.00  0.00    +0.002 A 
ATOM     12  C   UNL     1       1.652   0.930  -4.376  0.00  0.00    -0.064 A 
ATOM     13  C   UNL     1       0.776   0.347  -3.479  0.00  0.00    +0.002 A 
ATOM     14  C   UNL     1       0.424   1.018  -2.322  0.00  0.00    +0.004 A 
BRANCH   9  16
ATOM     15  C   UNL     1       1.536   2.656   0.309  0.00  0.00    +0.009 C 
ATOM     16  C   UNL     1       0.552   3.007  -0.809  0.00  0.00    +0.032 C 
ENDBRANCH   9  16
ENDBRANCH   8  12
ENDBRANCH   5   8
ENDBRANCH   4   5
ENDBRANCH   1   4
BRANCH   1  17
ATOM     17  C   UNL     1       4.522  -0.784  -8.941  0.00  0.00    +0.258 C 
BRANCH  17  18
ATOM     18  O   UNL     1       4.868   0.244  -9.872  0.00  0.00    -0.489 OA
BRANCH  18  19
ATOM     19  C   UNL     1       5.209  -0.150 -11.126  0.00  0.00    +0.128 A 
ATOM     20  C   UNL     1       5.206  -1.476 -11.455  0.00  0.00    +0.046 A 
ATOM     21  C   UNL     1       5.553  -1.896 -12.736  0.00  0.00    +0.004 A 
ATOM     22  C   UNL     1       5.905  -0.998 -13.698  0.00  0.00    +0.009 A 
ATOM     23  C   UNL     1       5.919   0.375 -13.400  0.00  0.00    -0.014 A 
ATOM     24  C   UNL     1       5.562   0.807 -12.099  0.00  0.00    +0.024 A 
ATOM     25  C   UNL     1       5.572   2.180 -11.802  0.00  0.00    +0.012 A 
ATOM     26  C   UNL     1       5.919   3.075 -12.767  0.00  0.00    +0.001 A 
ATOM     27  C   UNL     1       6.265   2.651 -14.048  0.00  0.00    +0.001 A 
ATOM     28  C   UNL     1       6.277   1.328 -14.369  0.00  0.00    +0.008 A 
ENDBRANCH  18  19
ENDBRANCH  17  18
ENDBRANCH   1  17
TORSDOF 9
