REMARK  Name = ZINC13032840
REMARK  10 active torsions:
REMARK  status: ('A' for Active; 'I' for Inactive)
REMARK    1  A    between atoms: C_1  and  C_2
REMARK    2  A    between atoms: C_7  and  C_15
REMARK    3  A    between atoms: C_13  and  C_14
REMARK    4  A    between atoms: C_15  and  N_60
REMARK    5  A    between atoms: C_16  and  C_17
REMARK    6  A    between atoms: C_16  and  N_60
REMARK    7  A    between atoms: C_22  and  C_23
REMARK    8  A    between atoms: C_22  and  N_60
REMARK    9  A    between atoms: N_27  and  C_28
REMARK   10  A    between atoms: C_28  and  C_29
REMARK                            x       y       z     vdW  Elec       q    Type
REMARK                         _______ _______ _______ _____ _____    ______ ____
ROOT
ATOM      1  N   UNL     1       1.831  -2.742  -1.585  0.00  0.00    +0.390 N 
ATOM      2  H   UNL     1       1.024  -2.632  -2.212  0.00  0.00    -0.080 HD
ENDROOT
BRANCH   1   3
ATOM      3  C   UNL     1       2.011  -4.177  -1.282  0.00  0.00    -0.036 C 
BRANCH   3  10
ATOM      4  C   UNL     1      -5.150  -7.673  -0.941  0.00  0.00    +0.044 C 
ATOM      5  C   UNL     1      -3.800  -7.070  -1.232  0.00  0.00    -0.046 A 
ATOM      6  C   UNL     1      -3.282  -7.133  -2.519  0.00  0.00    +0.004 A 
ATOM      7  C   UNL     1      -2.060  -6.593  -2.804  0.00  0.00    +0.010 A 
ATOM      8  C   UNL     1      -1.323  -5.971  -1.790  0.00  0.00    -0.001 A 
ATOM      9  C   UNL     1      -0.013  -5.378  -2.061  0.00  0.00    +0.017 A 
ATOM     10  C   UNL     1       0.658  -4.794  -1.038  0.00  0.00    +0.001 A 
ATOM     11  C   UNL     1       0.091  -4.755   0.254  0.00  0.00    +0.251 A 
ATOM     12  O   UNL     1       0.709  -4.221   1.158  0.00  0.00    -0.268 OA
ATOM     13  N   UNL     1      -1.114  -5.293   0.511  0.00  0.00    -0.322 N 
ATOM     14  H   UNL     1      -1.475  -5.249   1.411  0.00  0.00    +0.169 HD
ATOM     15  C   UNL     1      -1.845  -5.906  -0.484  0.00  0.00    +0.052 A 
ATOM     16  C   UNL     1      -3.091  -6.463  -0.218  0.00  0.00    -0.024 A 
ATOM     17  C   UNL     1      -3.665  -6.403   1.174  0.00  0.00    +0.046 C 
ENDBRANCH   3  10
ENDBRANCH   1   3
BRANCH   1  18
ATOM     18  C   UNL     1       3.036  -2.212  -2.256  0.00  0.00    -0.035 C 
BRANCH  18  19
ATOM     19  C   UNL     1       3.069  -2.729  -3.671  0.00  0.00    -0.027 A 
ATOM     20  C   UNL     1       2.591  -2.154  -4.802  0.00  0.00    +0.009 A 
ATOM     21  C   UNL     1       2.739  -2.818  -6.005  0.00  0.00    +0.008 A 
ATOM     22  C   UNL     1       3.347  -4.029  -6.018  0.00  0.00    +0.045 A 
ATOM     23  S   UNL     1       3.741  -4.262  -4.292  0.00  0.00    -0.103 S 
ENDBRANCH  18  19
ENDBRANCH   1  18
BRANCH   1  24
ATOM     24  C   UNL     1       1.575  -1.991  -0.338  0.00  0.00    +0.001 C 
BRANCH  24  25
ATOM     25  C   UNL     1       1.247  -0.562  -0.688  0.00  0.00    +0.135 A 
ATOM     26  N   UNL     1       2.102   0.412  -0.883  0.00  0.00    -0.115 NA
ATOM     27  N   UNL     1       1.434   1.478  -1.162  0.00  0.00    -0.023 NA
ATOM     28  N   UNL     1       0.175   1.208  -1.150  0.00  0.00    -0.044 NA
ATOM     29  N   UNL     1       0.019  -0.039  -0.862  0.00  0.00    -0.227 N 
BRANCH  29  30
ATOM     30  C   UNL     1      -1.255  -0.753  -0.746  0.00  0.00    +0.182 C 
BRANCH  30  31
ATOM     31  C   UNL     1      -1.725  -1.168  -2.116  0.00  0.00    -0.026 A 
ATOM     32  C   UNL     1      -2.445  -0.283  -2.897  0.00  0.00    +0.008 A 
ATOM     33  C   UNL     1      -2.873  -0.661  -4.156  0.00  0.00    +0.038 A 
ATOM     34  C   UNL     1      -2.589  -1.931  -4.630  0.00  0.00    +0.123 A 
ATOM     35  C   UNL     1      -1.872  -2.818  -3.845  0.00  0.00    +0.038 A 
ATOM     36  C   UNL     1      -1.441  -2.436  -2.589  0.00  0.00    +0.008 A 
ATOM     37  F   UNL     1      -3.010  -2.303  -5.859  0.00  0.00    -0.205 F 
ENDBRANCH  30  31
ENDBRANCH  29  30
ENDBRANCH  24  25
ENDBRANCH   1  24
TORSDOF 8
