REMARK  Name = ZINC41511350
REMARK  3 active torsions:
REMARK  status: ('A' for Active; 'I' for Inactive)
REMARK    1  A    between atoms: C_1  and  O_2
REMARK    2  A    between atoms: O_2  and  C_3
REMARK    3  A    between atoms: C_7  and  C_15
REMARK                            x       y       z     vdW  Elec       q    Type
REMARK                         _______ _______ _______ _____ _____    ______ ____
ROOT
ATOM      1  C   UNL     1      -1.200  -0.637   0.010  0.00  0.00    +0.135 A 
ATOM      2  C   UNL     1      -2.352   0.098   0.019  0.00  0.00    +0.056 A 
ATOM      3  C   UNL     1      -3.594  -0.558   0.028  0.00  0.00    +0.005 A 
ATOM      4  C   UNL     1      -4.797   0.167   0.037  0.00  0.00    +0.024 A 
ATOM      5  C   UNL     1      -5.992  -0.550   0.044  0.00  0.00    +0.052 A 
ATOM      6  C   UNL     1      -5.953  -1.960   0.043  0.00  0.00    +0.140 A 
ATOM      7  N   UNL     1      -4.819  -2.612   0.034  0.00  0.00    -0.235 NA
ATOM      8  C   UNL     1      -3.640  -1.976   0.026  0.00  0.00    +0.074 A 
ATOM      9  C   UNL     1      -2.436  -2.699   0.017  0.00  0.00    +0.047 A 
ATOM     10  C   UNL     1      -1.246  -2.035   0.003  0.00  0.00    +0.061 A 
ATOM     11 BR   UNL     1       0.368  -3.020  -0.018  0.00  0.00    -0.046 Br
ATOM     12 CL   UNL     1      -7.444  -2.850   0.053  0.00  0.00    -0.061 Cl
ENDROOT
BRANCH   1  14
ATOM     13  C   UNL     1      -0.017   1.425   0.010  0.00  0.00    +0.277 C 
ATOM     14  O   UNL     1       0.002  -0.004   0.002  0.00  0.00    -0.494 OA
ENDBRANCH   1  14
BRANCH   5  15
ATOM     15  C   UNL     1      -7.281   0.156   0.055  0.00  0.00    +0.261 C 
ATOM     16  O   UNL     1      -8.317  -0.473   0.061  0.00  0.00    -0.296 OA
ENDBRANCH   5  15
TORSDOF 2
