REMARK  Name = ZINC04115872
REMARK  4 active torsions:
REMARK  status: ('A' for Active; 'I' for Inactive)
REMARK    1  A    between atoms: C_4  and  S_7
REMARK    2  A    between atoms: S_7  and  N_10
REMARK    3  A    between atoms: N_13  and  C_16
REMARK    4  A    between atoms: C_19  and  N_23
REMARK                            x       y       z     vdW  Elec       q    Type
REMARK                         _______ _______ _______ _____ _____    ______ ____
ROOT
ATOM      1  N   UNL     1       4.224  -1.001  -0.081  0.00  0.00    -0.174 NA
ATOM      2  C   UNL     1       3.955  -0.340   1.205  0.00  0.00    +0.128 C 
ATOM      3  C   UNL     1       2.539   0.244   1.166  0.00  0.00    +0.122 C 
ATOM      4  N   UNL     1       2.401   1.106  -0.015  0.00  0.00    -0.325 N 
ATOM      5  C   UNL     1       2.560   0.338  -1.257  0.00  0.00    +0.122 C 
ATOM      6  C   UNL     1       3.977  -0.243  -1.317  0.00  0.00    +0.128 C 
ENDROOT
BRANCH   4   7
ATOM      7  C   UNL     1       1.180   1.787   0.000  0.00  0.00    +0.066 A 
ATOM      8  C   UNL     1      -0.013   1.076   0.008  0.00  0.00    +0.028 A 
ATOM      9  C   UNL     1      -1.218   1.751   0.017  0.00  0.00    +0.035 A 
ATOM     10  C   UNL     1      -1.239   3.133   0.030  0.00  0.00    +0.129 A 
ATOM     11  C   UNL     1      -0.054   3.846   0.023  0.00  0.00    +0.073 A 
ATOM     12  C   UNL     1       1.157   3.177   0.008  0.00  0.00    +0.146 A 
ATOM     13  F   UNL     1       2.314   3.874   0.000  0.00  0.00    -0.203 F 
BRANCH  10  14
ATOM     14  N   UNL     1      -2.533   3.852   0.046  0.00  0.00    +0.057 N 
ATOM     15  O   UNL     1      -2.553   5.070   0.053  0.00  0.00    -0.126 OA
ATOM     16  O   UNL     1      -3.577   3.226   0.052  0.00  0.00    -0.126 OA
ENDBRANCH  10  14
ENDBRANCH   4   7
BRANCH   1  17
ATOM     17  S   UNL     1       4.790  -2.556  -0.136  0.00  0.00    +0.061 S 
ATOM     18  O   UNL     1       5.457  -2.701  -1.383  0.00  0.00    -0.153 OA
ATOM     19  O   UNL     1       5.436  -2.797   1.106  0.00  0.00    -0.153 OA
BRANCH  17  23
ATOM     20  C   UNL     1       1.184  -5.289  -0.272  0.00  0.00    +0.000 A 
ATOM     21  C   UNL     1       1.745  -4.826  -1.447  0.00  0.00    +0.002 A 
ATOM     22  C   UNL     1       2.846  -3.991  -1.406  0.00  0.00    +0.028 A 
ATOM     23  C   UNL     1       3.386  -3.620  -0.189  0.00  0.00    +0.105 A 
ATOM     24  C   UNL     1       2.829  -4.088   0.987  0.00  0.00    +0.028 A 
ATOM     25  C   UNL     1       1.725  -4.918   0.945  0.00  0.00    +0.002 A 
ENDBRANCH  17  23
ENDBRANCH   1  17
TORSDOF 4
