REMARK  Name = ZINC64600463
REMARK  5 active torsions:
REMARK  status: ('A' for Active; 'I' for Inactive)
REMARK    1  A    between atoms: C_1  and  C_2
REMARK    2  A    between atoms: C_2  and  C_4
REMARK    3  A    between atoms: C_2  and  N_14
REMARK    4  A    between atoms: C_4  and  C_5
REMARK    5  A    between atoms: C_15  and  C_17
REMARK                            x       y       z     vdW  Elec       q    Type
REMARK                         _______ _______ _______ _____ _____    ______ ____
ROOT
ATOM      1  N   UNL     1      -1.371  -0.515   0.012  0.00  0.00    -0.305 N 
ATOM      2  C   UNL     1      -2.050  -0.646  -1.145  0.00  0.00    +0.300 C 
ATOM      3  O   UNL     1      -1.522  -0.344  -2.196  0.00  0.00    -0.265 OA
ATOM      4  H   UNL     1      -1.792  -0.756   0.851  0.00  0.00    +0.149 HD
ENDROOT
BRANCH   2   5
ATOM      5  C   UNL     1      -3.451  -1.161  -1.134  0.00  0.00    +0.304 C 
ATOM      6  O   UNL     1      -3.979  -1.462  -0.084  0.00  0.00    -0.265 OA
ATOM      7  N   UNL     1      -4.131  -1.291  -2.291  0.00  0.00    -0.263 N 
ATOM      8  C   UNL     1      -5.398  -1.870  -2.293  0.00  0.00    +0.125 A 
ATOM      9  C   UNL     1      -6.048  -2.098  -3.501  0.00  0.00    +0.045 A 
ATOM     10  C   UNL     1      -7.306  -2.674  -3.490  0.00  0.00    +0.025 A 
ATOM     11  C   UNL     1      -7.873  -3.004  -2.265  0.00  0.00    +0.059 A 
ATOM     12  C   UNL     1      -7.169  -2.749  -1.104  0.00  0.00    +0.132 A 
ATOM     13  N   UNL     1      -5.968  -2.203  -1.147  0.00  0.00    -0.239 NA
ATOM     14 CL   UNL     1      -9.449  -3.728  -2.194  0.00  0.00    -0.082 Cl
ATOM     15  H   UNL     1      -3.737  -0.982  -3.122  0.00  0.00    +0.157 HD
ENDBRANCH   2   5
BRANCH   1  17
ATOM     16  C   UNL     1      -0.014   1.520   0.010  0.00  0.00    +0.028 C 
ATOM     17  C   UNL     1       0.004  -0.010   0.001  0.00  0.00    +0.074 C 
BRANCH  17  18
ATOM     18  C   UNL     1       0.744  -0.518   1.240  0.00  0.00    +0.055 C 
BRANCH  18  19
ATOM     19  C   UNL     1       0.870  -2.018   1.170  0.00  0.00    -0.040 C 
ATOM     20  C   UNL     1       1.924  -2.725   0.702  0.00  0.00    -0.001 A 
ATOM     21  C   UNL     1       3.219  -2.324   0.138  0.00  0.00    +0.010 A 
ATOM     22  C   UNL     1       4.089  -3.282  -0.253  0.00  0.00    +0.001 A 
ATOM     23  C   UNL     1       3.787  -4.645  -0.135  0.00  0.00    +0.002 A 
ATOM     24  C   UNL     1       2.619  -5.091   0.373  0.00  0.00    +0.026 A 
ATOM     25  C   UNL     1       1.629  -4.171   0.817  0.00  0.00    +0.043 A 
ATOM     26  N   UNL     1       0.439  -4.351   1.336  0.00  0.00    -0.380 N 
ATOM     27  C   UNL     1      -0.153  -3.039   1.615  0.00  0.00    +0.144 C 
ATOM     28  H   UNL     1       0.022  -5.210   1.510  0.00  0.00    +0.160 HD
ENDBRANCH  18  19
ENDBRANCH  17  18
ENDBRANCH   1  17
TORSDOF 4
