REMARK  Name = ZINC63577389
REMARK  4 active torsions:
REMARK  status: ('A' for Active; 'I' for Inactive)
REMARK    1  A    between atoms: C_6  and  C_10
REMARK    2  A    between atoms: C_10  and  S_11
REMARK    3  A    between atoms: S_11  and  C_12
REMARK    4  A    between atoms: N_27  and  C_28
REMARK                            x       y       z     vdW  Elec       q    Type
REMARK                         _______ _______ _______ _____ _____    ______ ____
ROOT
ATOM      1  C   UNL     1       3.244  -2.923  -3.509  0.00  0.00    +0.259 C 
ATOM      2  N   UNL     1       4.658  -2.536  -3.499  0.00  0.00    -0.243 NA
ATOM      3  C   UNL     1       5.562  -3.449  -3.498  0.00  0.00    +0.107 C 
ATOM      4  C   UNL     1       5.264  -4.911  -3.635  0.00  0.00    +0.069 C 
ATOM      5  C   UNL     1       6.230  -5.768  -3.362  0.00  0.00    -0.042 C 
ATOM      6  C   UNL     1       7.613  -5.170  -3.078  0.00  0.00    +0.079 C 
ATOM      7  S   UNL     1       7.324  -3.384  -3.348  0.00  0.00    -0.098 S 
ATOM      8  C   UNL     1       7.909  -5.517  -1.621  0.00  0.00    +0.019 C 
ATOM      9  C   UNL     1       7.897  -7.048  -1.507  0.00  0.00    +0.002 C 
ATOM     10  C   UNL     1       6.535  -7.642  -1.842  0.00  0.00    +0.004 C 
ATOM     11  C   UNL     1       6.097  -7.286  -3.263  0.00  0.00    +0.033 C 
ATOM     12  C   UNL     1       3.873  -5.256  -4.081  0.00  0.00    +0.256 C 
ATOM     13  O   UNL     1       3.561  -6.381  -4.421  0.00  0.00    -0.269 OA
ATOM     14  N   UNL     1       2.993  -4.235  -4.078  0.00  0.00    -0.236 N 
ENDROOT
BRANCH  14  15
ATOM     15  C   UNL     1       1.744  -4.458  -4.667  0.00  0.00    +0.040 A 
ATOM     16  C   UNL     1       0.705  -4.991  -3.915  0.00  0.00    +0.025 A 
ATOM     17  C   UNL     1      -0.527  -5.210  -4.499  0.00  0.00    +0.022 A 
ATOM     18  C   UNL     1      -0.727  -4.900  -5.833  0.00  0.00    +0.041 A 
ATOM     19  C   UNL     1       0.307  -4.369  -6.585  0.00  0.00    +0.022 A 
ATOM     20  C   UNL     1       1.539  -4.142  -6.004  0.00  0.00    +0.025 A 
ATOM     21 CL   UNL     1      -2.276  -5.178  -6.564  0.00  0.00    -0.084 Cl
ENDBRANCH  14  15
BRANCH   1  22
ATOM     22  S   UNL     1       2.630  -2.907  -1.802  0.00  0.00    -0.111 S 
BRANCH  22  23
ATOM     23  C   UNL     1       3.629  -4.167  -0.964  0.00  0.00    +0.119 C 
BRANCH  23  29
ATOM     24  C   UNL     1      -0.467  -2.155   2.293  0.00  0.00    +0.002 A 
ATOM     25  C   UNL     1       0.511  -1.204   2.633  0.00  0.00    +0.002 A 
ATOM     26  C   UNL     1       1.813  -1.357   2.319  0.00  0.00    +0.027 A 
ATOM     27  C   UNL     1       2.248  -2.559   1.593  0.00  0.00    +0.060 A 
ATOM     28  N   UNL     1       3.409  -2.964   1.167  0.00  0.00    -0.363 N 
ATOM     29  C   UNL     1       3.208  -4.258   0.504  0.00  0.00    +0.184 C 
ATOM     30  N   UNL     1       1.773  -4.554   0.600  0.00  0.00    -0.363 N 
ATOM     31  C   UNL     1       1.212  -3.566   1.233  0.00  0.00    +0.060 A 
ATOM     32  C   UNL     1      -0.177  -3.291   1.628  0.00  0.00    +0.027 A 
ATOM     33  H   UNL     1       4.253  -2.496   1.269  0.00  0.00    +0.162 HD
ATOM     34  H   UNL     1       1.326  -5.342   0.253  0.00  0.00    +0.162 HD
ENDBRANCH  23  29
ENDBRANCH  22  23
ENDBRANCH   1  22
TORSDOF 4
