REMARK  Name = ZINC07608299
REMARK  4 active torsions:
REMARK  status: ('A' for Active; 'I' for Inactive)
REMARK    1  A    between atoms: C_1  and  C_2
REMARK    2  A    between atoms: C_2  and  C_4
REMARK    3  A    between atoms: C_2  and  N_17
REMARK    4  A    between atoms: N_6  and  C_7
REMARK                            x       y       z     vdW  Elec       q    Type
REMARK                         _______ _______ _______ _____ _____    ______ ____
ROOT
ATOM      1  C   UNL     1      -0.718   1.572   1.248  0.00  0.00    +0.234 C 
ATOM      2  O   UNL     1      -0.131   2.273   2.044  0.00  0.00    -0.274 OA
ATOM      3  N   UNL     1      -2.002   1.228   1.472  0.00  0.00    -0.308 N 
ATOM      4  H   UNL     1      -2.472   0.667   0.835  0.00  0.00    +0.149 HD
ENDROOT
BRANCH   3   5
ATOM      5  C   UNL     1      -2.688   1.700   2.677  0.00  0.00    +0.035 C 
ATOM      6  C   UNL     1      -2.708   3.230   2.685  0.00  0.00    +0.029 C 
ATOM      7  C   UNL     1      -3.424   3.723   3.944  0.00  0.00    -0.008 C 
ATOM      8  C   UNL     1      -4.860   3.194   3.955  0.00  0.00    +0.007 C 
ATOM      9  C   UNL     1      -4.839   1.664   3.947  0.00  0.00    -0.008 C 
ATOM     10  C   UNL     1      -4.123   1.170   2.688  0.00  0.00    +0.029 C 
ATOM     11  C   UNL     1      -4.099   1.157   5.186  0.00  0.00    +0.007 C 
ATOM     12  C   UNL     1      -2.664   1.687   5.175  0.00  0.00    -0.008 C 
ATOM     13  C   UNL     1      -2.684   3.216   5.184  0.00  0.00    +0.007 C 
ATOM     14  C   UNL     1      -1.948   1.193   3.916  0.00  0.00    +0.029 C 
ENDBRANCH   3   5
BRANCH   1  16
ATOM     15  C   UNL     1      -0.753   1.593  -1.232  0.00  0.00    +0.038 C 
ATOM     16  C   UNL     1      -0.013   1.086   0.008  0.00  0.00    +0.167 C 
BRANCH  16  17
ATOM     17  N   UNL     1       1.362   1.593  -0.002  0.00  0.00    -0.222 N 
ATOM     18  C   UNL     1       1.692   2.897  -0.004  0.00  0.00    +0.254 C 
ATOM     19  O   UNL     1       0.910   3.826   0.003  0.00  0.00    -0.270 OA
ATOM     20  C   UNL     1       3.166   3.010  -0.013  0.00  0.00    +0.049 A 
ATOM     21  C   UNL     1       4.055   4.072  -0.017  0.00  0.00    +0.014 A 
ATOM     22  C   UNL     1       5.419   3.827  -0.032  0.00  0.00    +0.001 A 
ATOM     23  C   UNL     1       5.897   2.530  -0.043  0.00  0.00    +0.001 A 
ATOM     24  C   UNL     1       5.020   1.457  -0.039  0.00  0.00    +0.014 A 
ATOM     25  C   UNL     1       3.654   1.687  -0.025  0.00  0.00    +0.049 A 
ATOM     26  C   UNL     1       2.460   0.816  -0.017  0.00  0.00    +0.254 C 
ATOM     27  O   UNL     1       2.469  -0.399  -0.023  0.00  0.00    -0.270 OA
ENDBRANCH  16  17
ENDBRANCH   1  16
TORSDOF 3
