REMARK  Name = ZINC08964663
REMARK  15 active torsions:
REMARK  status: ('A' for Active; 'I' for Inactive)
REMARK    1  A    between atoms: C_1  and  C_2
REMARK    2  A    between atoms: C_3  and  N_37
REMARK    3  A    between atoms: C_4  and  O_35
REMARK    4  A    between atoms: C_5  and  C_8
REMARK    5  A    between atoms: C_8  and  N_9
REMARK    6  A    between atoms: N_9  and  C_10
REMARK    7  A    between atoms: C_18  and  N_70
REMARK    8  A    between atoms: C_24  and  O_32
REMARK    9  A    between atoms: C_25  and  O_30
REMARK   10  A    between atoms: C_26  and  O_28
REMARK   11  A    between atoms: O_28  and  C_29
REMARK   12  A    between atoms: O_30  and  C_31
REMARK   13  A    between atoms: O_32  and  C_33
REMARK   14  A    between atoms: C_34  and  N_70
REMARK   15  A    between atoms: O_35  and  C_36
REMARK                            x       y       z     vdW  Elec       q    Type
REMARK                         _______ _______ _______ _____ _____    ______ ____
ROOT
ATOM      1  C   UNL     1       5.283  -1.567  -1.697  0.00  0.00    +0.075 A 
ATOM      2  C   UNL     1       6.123  -1.769  -0.642  0.00  0.00    +0.027 A 
ATOM      3  C   UNL     1       7.327  -2.368  -0.627  0.00  0.00    +0.011 A 
ATOM      4  C   UNL     1       8.084  -2.961  -1.605  0.00  0.00    -0.012 A 
ATOM      5  C   UNL     1       7.722  -3.125  -2.942  0.00  0.00    -0.050 A 
ATOM      6  C   UNL     1       6.596  -2.651  -3.506  0.00  0.00    +0.055 A 
ATOM      7  C   UNL     1       5.531  -1.955  -3.011  0.00  0.00    +0.200 A 
ATOM      8  O   UNL     1       4.683  -1.629  -3.831  0.00  0.00    -0.286 OA
ATOM      9  C   UNL     1       8.646  -3.912  -3.849  0.00  0.00    -0.040 C 
ATOM     10  C   UNL     1       9.817  -3.073  -4.319  0.00  0.00    -0.007 C 
ATOM     11  C   UNL     1      10.420  -2.278  -3.164  0.00  0.00    +0.035 C 
ATOM     12  C   UNL     1      10.551  -3.163  -1.952  0.00  0.00    -0.033 A 
ATOM     13  C   UNL     1       9.425  -3.477  -1.197  0.00  0.00    +0.031 A 
ATOM     14  C   UNL     1       9.541  -4.276  -0.056  0.00  0.00    +0.173 A 
ATOM     15  C   UNL     1      10.789  -4.760   0.314  0.00  0.00    +0.204 A 
ATOM     16  C   UNL     1      11.908  -4.450  -0.451  0.00  0.00    +0.165 A 
ATOM     17  C   UNL     1      11.786  -3.652  -1.582  0.00  0.00    +0.054 A 
ENDROOT
BRANCH   9  19
ATOM     18  C   UNL     1       8.575  -5.492  -5.682  0.00  0.00    -0.100 C 
ATOM     19  N   UNL     1       7.879  -4.371  -5.022  0.00  0.00    +0.382 N 
ATOM     20  H   UNL     1       7.780  -3.595  -5.687  0.00  0.00    -0.085 HD
ATOM     21  H   UNL     1       6.949  -4.682  -4.718  0.00  0.00    -0.085 HD
ENDBRANCH   9  19
BRANCH   1  22
ATOM     22  N   UNL     1       4.088  -0.917  -1.442  0.00  0.00    -0.337 N 
ATOM     23  H   UNL     1       3.463  -0.749  -2.164  0.00  0.00    +0.147 HD
BRANCH  22  24
ATOM     24  C   UNL     1       3.767  -0.482  -0.080  0.00  0.00    +0.142 C 
BRANCH  24  29
ATOM     25  C   UNL     1      -1.289   2.238  -0.062  0.00  0.00    +0.067 C 
ATOM     26  C   UNL     1       0.023   1.497  -0.062  0.00  0.00    +0.062 A 
ATOM     27  C   UNL     1       0.028   0.111  -0.060  0.00  0.00    +0.088 A 
ATOM     28  C   UNL     1       1.253  -0.562  -0.066  0.00  0.00    +0.148 A 
ATOM     29  C   UNL     1       2.420   0.194  -0.073  0.00  0.00    +0.031 A 
ATOM     30  C   UNL     1       2.329   1.572  -0.074  0.00  0.00    +0.120 A 
ATOM     31  N   UNL     1       1.155   2.175  -0.069  0.00  0.00    -0.258 NA
BRANCH  27  32
ATOM     32  N   UNL     1      -1.176  -0.604  -0.053  0.00  0.00    -0.354 N 
ATOM     33  H   UNL     1      -2.022  -0.129  -0.049  0.00  0.00    +0.142 HD
ATOM     34  H   UNL     1      -1.165  -1.574  -0.052  0.00  0.00    +0.142 HD
ENDBRANCH  27  32
BRANCH  28  35
ATOM     35  O   UNL     1       1.302  -1.920  -0.065  0.00  0.00    -0.493 OA
ATOM     36  C   UNL     1       1.319  -2.570  -1.337  0.00  0.00    +0.277 C 
ENDBRANCH  28  35
ENDBRANCH  24  29
ENDBRANCH  22  24
ENDBRANCH   1  22
BRANCH  16  37
ATOM     37  O   UNL     1      13.128  -4.929  -0.090  0.00  0.00    -0.491 OA
ATOM     38  C   UNL     1      14.236  -4.572  -0.918  0.00  0.00    +0.277 C 
ENDBRANCH  16  37
BRANCH  15  39
ATOM     39  O   UNL     1      10.917  -5.538   1.424  0.00  0.00    -0.488 OA
ATOM     40  C   UNL     1      11.172  -4.867   2.660  0.00  0.00    +0.277 C 
ENDBRANCH  15  39
BRANCH  14  41
ATOM     41  O   UNL     1       8.442  -4.575   0.685  0.00  0.00    -0.491 OA
ATOM     42  C   UNL     1       7.724  -5.759   0.331  0.00  0.00    +0.277 C 
ENDBRANCH  14  41
TORSDOF 9
