REMARK  Name = ZINC06858470
REMARK  6 active torsions:
REMARK  status: ('A' for Active; 'I' for Inactive)
REMARK    1  A    between atoms: C_1  and  C_2
REMARK    2  A    between atoms: C_2  and  C_3
REMARK    3  A    between atoms: C_2  and  C_4
REMARK    4  A    between atoms: C_7  and  N_10
REMARK    5  A    between atoms: N_10  and  S_11
REMARK    6  A    between atoms: S_11  and  C_14
REMARK                            x       y       z     vdW  Elec       q    Type
REMARK                         _______ _______ _______ _____ _____    ______ ____
ROOT
ATOM      1  N   UNL     1       0.005  -0.007   0.002  0.00  0.00    -0.216 N 
ATOM      2  H   UNL     1       0.564  -0.483  -0.632  0.00  0.00    +0.174 HD
ENDROOT
BRANCH   1   6
ATOM      3  C   UNL     1      -0.125   4.154  -0.049  0.00  0.00    -0.045 A 
ATOM      4  C   UNL     1       1.093   3.501  -0.112  0.00  0.00    +0.006 A 
ATOM      5  C   UNL     1       1.139   2.121  -0.096  0.00  0.00    +0.025 A 
ATOM      6  C   UNL     1      -0.039   1.389  -0.015  0.00  0.00    +0.048 A 
ATOM      7  C   UNL     1      -1.260   2.048   0.044  0.00  0.00    +0.025 A 
ATOM      8  C   UNL     1      -1.299   3.429   0.032  0.00  0.00    +0.006 A 
BRANCH   3  10
ATOM      9  C   UNL     1      -0.982   6.131  -1.277  0.00  0.00    +0.012 C 
ATOM     10  C   UNL     1      -0.171   5.660  -0.067  0.00  0.00    +0.013 C 
ATOM     11  C   UNL     1      -0.832   6.166   1.217  0.00  0.00    +0.012 C 
ENDBRANCH   3  10
ENDBRANCH   1   6
BRANCH   1  12
ATOM     12  S   UNL     1      -0.898  -0.850   1.105  0.00  0.00    +0.074 S 
ATOM     13  O   UNL     1      -2.231  -0.372   0.989  0.00  0.00    -0.150 OA
ATOM     14  O   UNL     1      -0.563  -2.222   0.940  0.00  0.00    -0.150 OA
BRANCH  12  15
ATOM     15  C   UNL     1      -0.333  -0.383   2.707  0.00  0.00    +0.128 A 
ATOM     16  C   UNL     1      -0.978   0.622   3.413  0.00  0.00    +0.048 A 
ATOM     17  C   UNL     1      -0.499   0.956   4.670  0.00  0.00    +0.057 A 
ATOM     18  C   UNL     1       0.600   0.280   5.176  0.00  0.00    +0.143 A 
ATOM     19  N   UNL     1       1.187  -0.670   4.474  0.00  0.00    -0.240 NA
ATOM     20  C   UNL     1       0.754  -1.017   3.277  0.00  0.00    +0.141 A 
ATOM     21 CL   UNL     1       1.210   0.688   6.749  0.00  0.00    -0.061 Cl
ATOM     22 BR   UNL     1      -1.334   2.318   5.683  0.00  0.00    -0.047 Br
ENDBRANCH  12  15
ENDBRANCH   1  12
TORSDOF 4
