REMARK  Name = ZINC00756349
REMARK  5 active torsions:
REMARK  status: ('A' for Active; 'I' for Inactive)
REMARK    1  A    between atoms: C_1  and  C_2
REMARK    2  A    between atoms: C_5  and  N_23
REMARK    3  A    between atoms: C_14  and  C_16
REMARK    4  A    between atoms: C_16  and  C_17
REMARK    5  A    between atoms: N_23  and  C_24
REMARK                            x       y       z     vdW  Elec       q    Type
REMARK                         _______ _______ _______ _____ _____    ______ ____
ROOT
ATOM      1  C   UNL     1       1.204   2.063   0.064  0.00  0.00    +0.028 C 
ATOM      2  C   UNL     1      -0.138   1.331   0.107  0.00  0.00    +0.081 C 
ATOM      3  C   UNL     1      -0.888   1.542  -1.214  0.00  0.00    +0.049 C 
ATOM      4  C   UNL     1      -2.193   0.745  -1.174  0.00  0.00    +0.104 C 
ATOM      5  C   UNL     1      -2.962   1.054   0.083  0.00  0.00    -0.006 A 
ATOM      6  C   UNL     1      -4.321   0.788   0.119  0.00  0.00    +0.007 A 
ATOM      7  C   UNL     1      -5.053   1.053   1.260  0.00  0.00    +0.000 A 
ATOM      8  C   UNL     1      -4.433   1.585   2.376  0.00  0.00    +0.002 A 
ATOM      9  C   UNL     1      -3.079   1.855   2.347  0.00  0.00    +0.024 A 
ATOM     10  C   UNL     1      -2.341   1.592   1.199  0.00  0.00    +0.041 A 
ATOM     11  N   UNL     1      -0.969   1.877   1.189  0.00  0.00    -0.268 N 
ATOM     12  C   UNL     1      -0.420   2.640   2.155  0.00  0.00    +0.224 C 
ATOM     13  O   UNL     1      -1.133   3.214   2.952  0.00  0.00    -0.275 OA
ENDROOT
BRANCH   4  14
ATOM     14  N   UNL     1      -1.885  -0.687  -1.212  0.00  0.00    -0.337 N 
ATOM     15  H   UNL     1      -1.846  -1.197  -0.387  0.00  0.00    +0.147 HD
BRANCH  14  16
ATOM     16  C   UNL     1      -1.647  -1.318  -2.435  0.00  0.00    +0.028 A 
ATOM     17  C   UNL     1      -1.822  -0.621  -3.623  0.00  0.00    +0.023 A 
ATOM     18  C   UNL     1      -1.582  -1.247  -4.831  0.00  0.00    +0.002 A 
ATOM     19  C   UNL     1      -1.177  -2.569  -4.858  0.00  0.00    +0.000 A 
ATOM     20  C   UNL     1      -1.007  -3.267  -3.677  0.00  0.00    +0.002 A 
ATOM     21  C   UNL     1      -1.241  -2.646  -2.466  0.00  0.00    +0.023 A 
ENDBRANCH  14  16
ENDBRANCH   4  14
BRANCH  12  22
ATOM     22  C   UNL     1       1.077   2.780   2.247  0.00  0.00    +0.131 C 
BRANCH  22  23
ATOM     23  C   UNL     1       1.436   3.542   3.496  0.00  0.00    -0.039 A 
ATOM     24  C   UNL     1       1.547   4.919   3.458  0.00  0.00    +0.004 A 
ATOM     25  C   UNL     1       1.871   5.619   4.605  0.00  0.00    +0.000 A 
ATOM     26  C   UNL     1       2.094   4.940   5.788  0.00  0.00    +0.000 A 
ATOM     27  C   UNL     1       1.988   3.562   5.826  0.00  0.00    +0.000 A 
ATOM     28  C   UNL     1       1.659   2.863   4.679  0.00  0.00    +0.004 A 
ENDBRANCH  22  23
ENDBRANCH  12  22
TORSDOF 4
