REMARK  Name = ZINC42605296
REMARK  8 active torsions:
REMARK  status: ('A' for Active; 'I' for Inactive)
REMARK    1  A    between atoms: C_1  and  C_2
REMARK    2  A    between atoms: C_2  and  C_3
REMARK    3  A    between atoms: C_6  and  S_9
REMARK    4  A    between atoms: S_9  and  C_10
REMARK    5  A    between atoms: C_10  and  C_12
REMARK    6  A    between atoms: C_10  and  C_13
REMARK    7  A    between atoms: N_15  and  C_16
REMARK    8  A    between atoms: C_21  and  C_22
REMARK                            x       y       z     vdW  Elec       q    Type
REMARK                         _______ _______ _______ _____ _____    ______ ____
ROOT
ATOM      1  C   UNL     1       6.418  -1.548  -2.153  0.00  0.00    +0.230 C 
ATOM      2  O   UNL     1       6.664  -2.179  -3.160  0.00  0.00    -0.274 OA
ATOM      3  N   UNL     1       7.423  -1.038  -1.415  0.00  0.00    -0.284 N 
ATOM      4  H   UNL     1       7.226  -0.467  -0.656  0.00  0.00    +0.155 HD
ENDROOT
BRANCH   3   5
ATOM      5  C   UNL     1       8.752  -1.331  -1.743  0.00  0.00    +0.036 A 
ATOM      6  C   UNL     1       9.055  -2.492  -2.443  0.00  0.00    +0.024 A 
ATOM      7  C   UNL     1      10.366  -2.779  -2.767  0.00  0.00    +0.017 A 
ATOM      8  C   UNL     1      11.378  -1.912  -2.393  0.00  0.00    +0.018 A 
ATOM      9  C   UNL     1      11.079  -0.756  -1.695  0.00  0.00    +0.020 A 
ATOM     10  C   UNL     1       9.768  -0.461  -1.375  0.00  0.00    -0.028 A 
ATOM     11  C   UNL     1       9.443   0.803  -0.620  0.00  0.00    +0.046 C 
ATOM     12 BR   UNL     1      13.173  -2.310  -2.836  0.00  0.00    -0.050 Br
ENDBRANCH   3   5
BRANCH   1  13
ATOM     13  C   UNL     1       4.988  -1.335  -1.728  0.00  0.00    +0.137 C 
ATOM     14  C   UNL     1       4.630  -2.331  -0.623  0.00  0.00    +0.029 C 
BRANCH  13  15
ATOM     15  S   UNL     1       3.890  -1.590  -3.150  0.00  0.00    -0.074 S 
BRANCH  15  19
ATOM     16  C   UNL     1       0.705  -0.529  -1.209  0.00  0.00    +0.152 A 
ATOM     17  N   UNL     1       2.014  -0.760  -1.317  0.00  0.00    -0.206 NA
ATOM     18  H   UNL     1       1.028  -1.456  -4.165  0.00  0.00    +0.191 HD
ATOM     19  C   UNL     1       2.294  -1.166  -2.538  0.00  0.00    +0.185 A 
ATOM     20  N   UNL     1       1.139  -1.197  -3.237  0.00  0.00    -0.254 N 
ATOM     21  N   UNL     1       0.129  -0.787  -2.352  0.00  0.00    -0.157 NA
BRANCH  16  23
ATOM     22  C   UNL     1      -0.027   1.478   0.051  0.00  0.00    +0.012 C 
ATOM     23  C   UNL     1       0.002  -0.052   0.036  0.00  0.00    +0.075 C 
ENDBRANCH  16  23
ENDBRANCH  15  19
ENDBRANCH  13  15
ENDBRANCH   1  13
TORSDOF 5
