REMARK  Name = ZINC15777957
REMARK  7 active torsions:
REMARK  status: ('A' for Active; 'I' for Inactive)
REMARK    1  A    between atoms: C_4  and  C_7
REMARK    2  A    between atoms: N_8  and  C_9
REMARK    3  A    between atoms: C_9  and  C_11
REMARK    4  A    between atoms: C_9  and  C_17
REMARK    5  A    between atoms: C_17  and  C_19
REMARK    6  A    between atoms: C_17  and  N_25
REMARK    7  A    between atoms: C_26  and  C_27
REMARK                            x       y       z     vdW  Elec       q    Type
REMARK                         _______ _______ _______ _____ _____    ______ ____
ROOT
ATOM      1  C   UNL     1       4.951  -4.269   1.411  0.00  0.00    +0.164 C 
ENDROOT
BRANCH   1   2
ATOM      2  N   UNL     1       6.333  -4.733   1.266  0.00  0.00    -0.255 NA
ATOM      3  C   UNL     1       7.279  -4.190   1.975  0.00  0.00    +0.160 C 
ATOM      4  N   UNL     1       8.605  -4.530   1.740  0.00  0.00    -0.194 N 
ATOM      5  C   UNL     1       9.070  -5.459   0.834  0.00  0.00    +0.096 A 
ATOM      6  C   UNL     1       8.457  -6.306  -0.081  0.00  0.00    +0.030 A 
ATOM      7  C   UNL     1       9.226  -7.138  -0.864  0.00  0.00    +0.002 A 
ATOM      8  C   UNL     1      10.610  -7.135  -0.744  0.00  0.00    +0.002 A 
ATOM      9  C   UNL     1      11.231  -6.311   0.149  0.00  0.00    +0.032 A 
ATOM     10  C   UNL     1      10.470  -5.455   0.956  0.00  0.00    +0.113 A 
ATOM     11  N   UNL     1      10.795  -4.548   1.908  0.00  0.00    -0.129 NA
ATOM     12  N   UNL     1       9.734  -3.993   2.376  0.00  0.00    -0.058 NA
BRANCH   3  13
ATOM     13  C   UNL     1       6.942  -3.209   3.030  0.00  0.00    +0.019 A 
ATOM     14  C   UNL     1       5.936  -3.492   3.954  0.00  0.00    +0.011 A 
ATOM     15  C   UNL     1       5.626  -2.573   4.936  0.00  0.00    +0.001 A 
ATOM     16  C   UNL     1       6.311  -1.373   5.005  0.00  0.00    +0.000 A 
ATOM     17  C   UNL     1       7.310  -1.087   4.092  0.00  0.00    +0.001 A 
ATOM     18  C   UNL     1       7.633  -2.000   3.109  0.00  0.00    +0.011 A 
ENDBRANCH   3  13
ENDBRANCH   1   2
BRANCH   1  19
ATOM     19  C   UNL     1       4.081  -5.414   1.859  0.00  0.00    -0.021 A 
ATOM     20  C   UNL     1       4.277  -6.678   1.335  0.00  0.00    +0.006 A 
ATOM     21  C   UNL     1       3.479  -7.729   1.746  0.00  0.00    +0.000 A 
ATOM     22  C   UNL     1       2.484  -7.516   2.681  0.00  0.00    +0.000 A 
ATOM     23  C   UNL     1       2.288  -6.252   3.206  0.00  0.00    +0.000 A 
ATOM     24  C   UNL     1       3.089  -5.202   2.798  0.00  0.00    +0.006 A 
ENDBRANCH   1  19
BRANCH   1  25
ATOM     25  C   UNL     1       4.447  -3.741   0.066  0.00  0.00    +0.138 C 
BRANCH  25  26
ATOM     26  C   UNL     1       4.617  -4.806  -0.987  0.00  0.00    -0.023 A 
ATOM     27  C   UNL     1       3.694  -5.831  -1.088  0.00  0.00    +0.006 A 
ATOM     28  C   UNL     1       3.850  -6.808  -2.054  0.00  0.00    +0.000 A 
ATOM     29  C   UNL     1       4.927  -6.760  -2.918  0.00  0.00    +0.000 A 
ATOM     30  C   UNL     1       5.849  -5.735  -2.817  0.00  0.00    +0.000 A 
ATOM     31  C   UNL     1       5.692  -4.756  -1.855  0.00  0.00    +0.006 A 
ENDBRANCH  25  26
BRANCH  25  33
ATOM     32  C   UNL     1       2.646  -2.174  -0.046  0.00  0.00    +0.086 C 
ATOM     33  N   UNL     1       3.030  -3.388   0.179  0.00  0.00    -0.381 N 
ATOM     34  H   UNL     1       2.380  -4.065   0.424  0.00  0.00    +0.160 HD
BRANCH  32  38
ATOM     35  C   UNL     1      -1.461  -1.151   0.283  0.00  0.00    +0.000 A 
ATOM     36  C   UNL     1      -0.536  -0.183  -0.066  0.00  0.00    +0.001 A 
ATOM     37  C   UNL     1       0.800  -0.508  -0.175  0.00  0.00    +0.009 A 
ATOM     38  C   UNL     1       1.218  -1.818   0.068  0.00  0.00    -0.009 A 
ATOM     39  C   UNL     1       0.279  -2.790   0.420  0.00  0.00    +0.009 A 
ATOM     40  C   UNL     1      -1.054  -2.451   0.525  0.00  0.00    +0.001 A 
ENDBRANCH  32  38
ENDBRANCH  25  33
ENDBRANCH   1  25
TORSDOF 7
