REMARK  Name = ZINC31200895
REMARK  9 active torsions:
REMARK  status: ('A' for Active; 'I' for Inactive)
REMARK    1  A    between atoms: C_1  and  C_2
REMARK    2  A    between atoms: C_3  and  C_31
REMARK    3  A    between atoms: N_9  and  C_12
REMARK    4  A    between atoms: C_12  and  C_13
REMARK    5  A    between atoms: N_15  and  C_16
REMARK    6  A    between atoms: C_16  and  C_17
REMARK    7  A    between atoms: C_20  and  C_23
REMARK    8  A    between atoms: C_23  and  N_24
REMARK    9  A    between atoms: C_27  and  C_30
REMARK                            x       y       z     vdW  Elec       q    Type
REMARK                         _______ _______ _______ _____ _____    ______ ____
ROOT
ATOM      1  C   UNL     1      -2.864   0.864   1.441  0.00  0.00    +0.233 C 
ATOM      2  O   UNL     1      -2.184   1.264   2.362  0.00  0.00    -0.274 OA
ATOM      3  N   UNL     1      -4.000   0.181   1.689  0.00  0.00    -0.310 N 
ATOM      4  H   UNL     1      -4.617  -0.181   0.854  0.00  0.00    +0.149 HD
ENDROOT
BRANCH   1   5
ATOM      5  C   UNL     1      -2.440   1.130   0.020  0.00  0.00    +0.221 C 
BRANCH   5  14
ATOM      6  C   UNL     1       2.869   0.001  -0.024  0.00  0.00    +0.045 C 
ATOM      7  C   UNL     1       2.579   1.479  -0.015  0.00  0.00    -0.026 A 
ATOM      8  C   UNL     1       3.585   2.369  -0.020  0.00  0.00    -0.008 A 
ATOM      9  S   UNL     1       2.746   3.942  -0.004  0.00  0.00    -0.073 S 
ATOM     10  C   UNL     1       1.070   3.359   0.009  0.00  0.00    +0.116 A 
ATOM     11  C   UNL     1       1.210   1.959   0.001  0.00  0.00    +0.075 A 
ATOM     12  C   UNL     1      -0.015   1.215   0.009  0.00  0.00    +0.263 A 
ATOM     13  O   UNL     1       0.002  -0.004   0.002  0.00  0.00    -0.267 OA
ATOM     14  N   UNL     1      -1.183   1.883   0.018  0.00  0.00    -0.290 N 
ATOM     15  C   UNL     1      -1.221   3.240   0.030  0.00  0.00    +0.203 A 
ATOM     16  N   UNL     1      -0.122   3.947   0.024  0.00  0.00    -0.230 NA
ATOM     17  C   UNL     1       5.068   2.101  -0.036  0.00  0.00    +0.052 C 
ENDBRANCH   5  14
ENDBRANCH   1   5
BRANCH   3  18
ATOM     18  C   UNL     1      -4.412  -0.077   3.071  0.00  0.00    +0.139 C 
BRANCH  18  19
ATOM     19  C   UNL     1      -5.705  -0.851   3.072  0.00  0.00    -0.030 A 
ATOM     20  C   UNL     1      -6.913  -0.180   3.087  0.00  0.00    +0.005 A 
ATOM     21  C   UNL     1      -8.099  -0.890   3.085  0.00  0.00    +0.002 A 
ATOM     22  C   UNL     1      -8.076  -2.272   3.077  0.00  0.00    -0.064 A 
ATOM     23  C   UNL     1      -6.868  -2.944   3.067  0.00  0.00    +0.002 A 
ATOM     24  C   UNL     1      -5.683  -2.234   3.065  0.00  0.00    +0.005 A 
BRANCH  22  25
ATOM     25  C   UNL     1      -9.369  -3.047   3.079  0.00  0.00    -0.043 C 
BRANCH  25  26
ATOM     26  N   UNL     1      -9.782  -3.307   4.464  0.00  0.00    +0.382 N 
ATOM     27  C   UNL     1      -9.661  -2.096   5.286  0.00  0.00    -0.078 C 
ATOM     28  C   UNL     1      -9.958  -2.437   6.747  0.00  0.00    -0.016 C 
ATOM     29  C   UNL     1     -11.375  -3.009   6.855  0.00  0.00    -0.018 C 
ATOM     30  C   UNL     1     -11.489  -4.241   5.952  0.00  0.00    -0.016 C 
ATOM     31  C   UNL     1     -11.147  -3.847   4.514  0.00  0.00    -0.078 C 
ATOM     32  C   UNL     1     -11.656  -3.409   8.304  0.00  0.00    +0.007 C 
ATOM     33  H   UNL     1      -9.106  -4.066   4.884  0.00  0.00    -0.081 HD
ENDBRANCH  25  26
ENDBRANCH  22  25
ENDBRANCH  18  19
ENDBRANCH   3  18
TORSDOF 6
