REMARK  Name = ZINC45130060
REMARK  8 active torsions:
REMARK  status: ('A' for Active; 'I' for Inactive)
REMARK    1  A    between atoms: C_1  and  O_2
REMARK    2  A    between atoms: O_2  and  C_3
REMARK    3  A    between atoms: C_6  and  O_9
REMARK    4  A    between atoms: O_9  and  C_10
REMARK    5  A    between atoms: C_10  and  C_11
REMARK    6  A    between atoms: N_13  and  N_14
REMARK    7  A    between atoms: N_17  and  C_18
REMARK    8  A    between atoms: C_18  and  C_19
REMARK                            x       y       z     vdW  Elec       q    Type
REMARK                         _______ _______ _______ _____ _____    ______ ____
ROOT
ATOM      1  N   UNL     1       3.950  -6.128  -6.897  0.00  0.00    -0.218 N 
ATOM      2  C   UNL     1       4.085  -7.450  -7.121  0.00  0.00    +0.316 C 
ATOM      3  O   UNL     1       4.654  -7.842  -8.121  0.00  0.00    -0.251 OA
ATOM      4  N   UNL     1       3.589  -8.338  -6.236  0.00  0.00    -0.298 N 
ATOM      5  H   UNL     1       4.307  -5.489  -7.534  0.00  0.00    +0.174 HD
ATOM      6  H   UNL     1       3.135  -8.025  -5.438  0.00  0.00    +0.150 HD
ENDROOT
BRANCH   1   9
ATOM      7  C   UNL     1       3.159  -4.354  -5.520  0.00  0.00    +0.267 C 
ATOM      8  O   UNL     1       3.606  -3.555  -6.316  0.00  0.00    -0.271 OA
ATOM      9  N   UNL     1       3.294  -5.676  -5.744  0.00  0.00    -0.230 N 
ATOM     10  H   UNL     1       2.937  -6.315  -5.107  0.00  0.00    +0.173 HD
BRANCH   7  11
ATOM     11  C   UNL     1       2.454  -3.868  -4.280  0.00  0.00    +0.326 C 
BRANCH  11  12
ATOM     12  O   UNL     1       2.440  -2.439  -4.269  0.00  0.00    -0.483 OA
BRANCH  12  16
ATOM     13  C   UNL     1       0.606  -0.608  -1.056  0.00  0.00    +0.120 A 
ATOM     14  C   UNL     1       1.173   0.161  -2.062  0.00  0.00    +0.049 A 
ATOM     15  C   UNL     1       1.786  -0.452  -3.137  0.00  0.00    +0.049 A 
ATOM     16  C   UNL     1       1.836  -1.836  -3.211  0.00  0.00    +0.121 A 
ATOM     17  C   UNL     1       1.270  -2.604  -2.204  0.00  0.00    +0.049 A 
ATOM     18  C   UNL     1       0.661  -1.992  -1.127  0.00  0.00    +0.049 A 
BRANCH  13  20
ATOM     19  C   UNL     1      -0.017   1.425   0.010  0.00  0.00    +0.277 C 
ATOM     20  O   UNL     1       0.002  -0.004   0.002  0.00  0.00    -0.495 OA
ENDBRANCH  13  20
ENDBRANCH  12  16
ENDBRANCH  11  12
ENDBRANCH   7  11
ENDBRANCH   1   9
BRANCH   4  21
ATOM     21  C   UNL     1       3.736  -9.775  -6.480  0.00  0.00    +0.113 C 
BRANCH  21  22
ATOM     22  C   UNL     1       3.090 -10.555  -5.332  0.00  0.00    +0.048 C 
ATOM     23  C   UNL     1       3.337 -12.053  -5.525  0.00  0.00    +0.047 C 
ATOM     24  C   UNL     1       2.465 -12.837  -4.577  0.00  0.00    -0.005 A 
ATOM     25  C   UNL     1       2.786 -14.159  -4.314  0.00  0.00    +0.007 A 
ATOM     26  C   UNL     1       2.007 -14.907  -3.454  0.00  0.00    +0.000 A 
ATOM     27  C   UNL     1       0.901 -14.338  -2.850  0.00  0.00    +0.004 A 
ATOM     28  C   UNL     1       0.578 -13.021  -3.106  0.00  0.00    +0.046 A 
ATOM     29  C   UNL     1       1.361 -12.264  -3.971  0.00  0.00    +0.124 A 
ATOM     30  O   UNL     1       1.016 -10.968  -4.191  0.00  0.00    -0.491 OA
ATOM     31  C   UNL     1       1.576 -10.311  -5.329  0.00  0.00    +0.234 C 
ENDBRANCH  21  22
ENDBRANCH   4  21
TORSDOF 7
