REMARK  Name = ZINC36064909
REMARK  11 active torsions:
REMARK  status: ('A' for Active; 'I' for Inactive)
REMARK    1  A    between atoms: C_1  and  C_2
REMARK    2  A    between atoms: C_3  and  C_30
REMARK    3  A    between atoms: C_4  and  C_23
REMARK    4  A    between atoms: C_7  and  C_12
REMARK    5  A    between atoms: C_13  and  N_15
REMARK    6  A    between atoms: N_15  and  C_16
REMARK    7  A    between atoms: C_16  and  C_17
REMARK    8  A    between atoms: C_30  and  O_32
REMARK    9  A    between atoms: O_32  and  C_33
REMARK   10  A    between atoms: C_33  and  C_34
REMARK   11  A    between atoms: C_33  and  C_35
REMARK                            x       y       z     vdW  Elec       q    Type
REMARK                         _______ _______ _______ _____ _____    ______ ____
ROOT
ATOM      1  C   UNL     1      -0.019   1.550   0.219  0.00  0.00    +0.066 C 
ATOM      2  C   UNL     1      -0.015   0.044   0.161  0.00  0.00    +0.053 C 
ATOM      3  C   UNL     1      -1.212  -0.645   0.146  0.00  0.00    +0.082 C 
ATOM      4  C   UNL     1      -1.155  -2.156   0.086  0.00  0.00    +0.150 C 
ATOM      5  N   UNL     1       0.194  -2.781   0.049  0.00  0.00    -0.267 N 
ATOM      6  C   UNL     1       0.483  -4.130  -0.007  0.00  0.00    +0.048 C 
ATOM      7  C   UNL     1       1.784  -4.492  -0.034  0.00  0.00    +0.072 C 
ATOM      8  S   UNL     1       2.607  -2.912   0.020  0.00  0.00    -0.060 S 
ATOM      9  C   UNL     1       1.254  -1.920   0.072  0.00  0.00    +0.166 C 
ATOM     10  N   UNL     1       1.136  -0.609   0.119  0.00  0.00    -0.230 NA
ENDROOT
BRANCH   4  11
ATOM     11  C   UNL     1      -1.906  -2.600  -1.142  0.00  0.00    -0.021 A 
ATOM     12  C   UNL     1      -1.344  -2.432  -2.394  0.00  0.00    +0.006 A 
ATOM     13  C   UNL     1      -2.033  -2.839  -3.522  0.00  0.00    +0.002 A 
ATOM     14  C   UNL     1      -3.284  -3.415  -3.398  0.00  0.00    +0.020 A 
ATOM     15  C   UNL     1      -3.846  -3.583  -2.146  0.00  0.00    +0.041 A 
ATOM     16  C   UNL     1      -3.154  -3.181  -1.017  0.00  0.00    +0.025 A 
ATOM     17 CL   UNL     1      -5.417  -4.306  -1.989  0.00  0.00    -0.084 Cl
ENDBRANCH   4  11
BRANCH   6  18
ATOM     18  C   UNL     1      -0.588  -5.137  -0.036  0.00  0.00    +0.091 C 
ATOM     19  C   UNL     1      -0.283  -6.446   0.057  0.00  0.00    +0.239 C 
ATOM     20  O   UNL     1       0.992  -6.829   0.309  0.00  0.00    -0.271 OA
BRANCH  19  21
ATOM     21  N   UNL     1      -1.274  -7.400  -0.107  0.00  0.00    -0.306 N 
ATOM     22  H   UNL     1      -2.198  -7.127  -0.214  0.00  0.00    +0.149 HD
BRANCH  21  23
ATOM     23  C   UNL     1      -0.925  -8.823  -0.118  0.00  0.00    +0.160 C 
BRANCH  23  24
ATOM     24  C   UNL     1      -2.153  -9.639  -0.431  0.00  0.00    +0.058 A 
ATOM     25  C   UNL     1      -2.399 -10.031  -1.733  0.00  0.00    +0.025 A 
ATOM     26  C   UNL     1      -3.531 -10.781  -2.011  0.00  0.00    +0.003 A 
ATOM     27  C   UNL     1      -4.378 -11.110  -0.963  0.00  0.00    +0.020 A 
ATOM     28  C   UNL     1      -4.066 -10.683   0.314  0.00  0.00    +0.111 A 
ATOM     29  N   UNL     1      -2.977  -9.975   0.542  0.00  0.00    -0.258 NA
ENDBRANCH  23  24
ENDBRANCH  21  23
ENDBRANCH  19  21
ENDBRANCH   6  18
BRANCH   3  30
ATOM     30  C   UNL     1      -2.437   0.032   0.184  0.00  0.00    +0.339 C 
ATOM     31  O   UNL     1      -2.459   1.249   0.232  0.00  0.00    -0.245 OA
BRANCH  30  32
ATOM     32  O   UNL     1      -3.595  -0.665   0.168  0.00  0.00    -0.459 OA
BRANCH  32  33
ATOM     33  C   UNL     1      -4.807   0.090   0.210  0.00  0.00    +0.171 C 
ATOM     34  C   UNL     1      -5.254   0.416  -1.216  0.00  0.00    +0.052 C 
ATOM     35  C   UNL     1      -5.894  -0.728   0.911  0.00  0.00    +0.052 C 
ENDBRANCH  32  33
ENDBRANCH  30  32
ENDBRANCH   3  30
TORSDOF 8
