REMARK  Name = ZINC22506244
REMARK  12 active torsions:
REMARK  status: ('A' for Active; 'I' for Inactive)
REMARK    1  A    between atoms: C_1  and  C_2
REMARK    2  A    between atoms: C_4  and  C_24
REMARK    3  A    between atoms: C_6  and  C_20
REMARK    4  A    between atoms: C_10  and  C_11
REMARK    5  A    between atoms: N_13  and  C_14
REMARK    6  A    between atoms: C_14  and  C_16
REMARK    7  A    between atoms: C_14  and  C_17
REMARK    8  A    between atoms: C_17  and  C_18
REMARK    9  A    between atoms: C_17  and  C_19
REMARK   10  A    between atoms: C_20  and  C_21
REMARK   11  A    between atoms: C_20  and  C_22
REMARK   12  A    between atoms: C_20  and  C_23
REMARK                            x       y       z     vdW  Elec       q    Type
REMARK                         _______ _______ _______ _____ _____    ______ ____
ROOT
ATOM      1  C   UNL     1       0.207   4.314   0.360  0.00  0.00    +0.046 C 
ATOM      2  C   UNL     1       1.401   3.395   0.314  0.00  0.00    -0.020 A 
ATOM      3  C   UNL     1       2.699   3.924   0.386  0.00  0.00    +0.032 A 
ATOM      4  C   UNL     1       3.114   5.274   0.504  0.00  0.00    +0.050 A 
ATOM      5  N   UNL     1       4.398   5.552   0.555  0.00  0.00    -0.236 NA
ATOM      6  C   UNL     1       5.329   4.615   0.501  0.00  0.00    +0.136 A 
ATOM      7  N   UNL     1       5.012   3.339   0.392  0.00  0.00    -0.224 NA
ATOM      8  C   UNL     1       3.751   2.972   0.333  0.00  0.00    +0.113 A 
ATOM      9  S   UNL     1       2.893   1.425   0.197  0.00  0.00    -0.064 S 
ATOM     10  C   UNL     1       1.222   2.052   0.202  0.00  0.00    +0.079 A 
ATOM     11  C   UNL     1       2.093   6.381   0.569  0.00  0.00    +0.066 C 
ENDROOT
BRANCH  10  12
ATOM     12  C   UNL     1      -0.038   1.300   0.114  0.00  0.00    +0.251 C 
ATOM     13  O   UNL     1      -1.101   1.891   0.133  0.00  0.00    -0.270 OA
ATOM     14  N   UNL     1      -0.015  -0.043   0.007  0.00  0.00    -0.308 N 
ATOM     15  H   UNL     1       0.947  -0.577  -0.015  0.00  0.00    +0.149 HD
BRANCH  14  16
ATOM     16  C   UNL     1      -1.270  -0.792  -0.081  0.00  0.00    +0.073 C 
ATOM     17  C   UNL     1      -1.740  -0.831  -1.537  0.00  0.00    +0.028 C 
BRANCH  16  18
ATOM     18  C   UNL     1      -1.048  -2.220   0.421  0.00  0.00    +0.003 C 
ATOM     19  C   UNL     1      -2.360  -3.003   0.329  0.00  0.00    +0.009 C 
ATOM     20  C   UNL     1       0.015  -2.905  -0.441  0.00  0.00    +0.009 C 
ENDBRANCH  16  18
ENDBRANCH  14  16
ENDBRANCH  10  12
BRANCH   6  21
ATOM     21  C   UNL     1       6.781   5.012   0.566  0.00  0.00    +0.022 C 
ATOM     22  C   UNL     1       7.656   3.760   0.486  0.00  0.00    +0.019 C 
ATOM     23  C   UNL     1       7.109   5.940  -0.605  0.00  0.00    +0.019 C 
ATOM     24  C   UNL     1       7.052   5.740   1.885  0.00  0.00    +0.019 C 
ENDBRANCH   6  21
TORSDOF 4
