REMARK  Name = ZINC09885602
REMARK  10 active torsions:
REMARK  status: ('A' for Active; 'I' for Inactive)
REMARK    1  A    between atoms: C_1  and  C_2
REMARK    2  A    between atoms: C_4  and  C_14
REMARK    3  A    between atoms: C_5  and  C_13
REMARK    4  A    between atoms: N_6  and  C_7
REMARK    5  A    between atoms: C_7  and  C_8
REMARK    6  A    between atoms: C_14  and  C_16
REMARK    7  A    between atoms: C_16  and  N_17
REMARK    8  A    between atoms: C_20  and  C_24
REMARK    9  A    between atoms: C_20  and  C_25
REMARK   10  A    between atoms: C_29  and  N_31
REMARK                            x       y       z     vdW  Elec       q    Type
REMARK                         _______ _______ _______ _____ _____    ______ ____
ROOT
ATOM      1  N   UNL     1       6.085   2.574   6.668  0.00  0.00    -0.216 N 
ATOM      2  C   UNL     1       7.323   3.094   6.779  0.00  0.00    +0.251 C 
ATOM      3  O   UNL     1       8.306   2.787   6.138  0.00  0.00    -0.272 OA
ATOM      4  C   UNL     1       7.232   4.142   7.870  0.00  0.00    +0.135 C 
ATOM      5  N   UNL     1       5.822   4.081   8.291  0.00  0.00    -0.281 N 
ATOM      6  C   UNL     1       5.234   3.137   7.533  0.00  0.00    +0.310 C 
ATOM      7  O   UNL     1       4.061   2.831   7.624  0.00  0.00    -0.252 OA
ATOM      8  C   UNL     1       7.570   5.530   7.322  0.00  0.00    +0.047 C 
ATOM      9  H   UNL     1       5.399   4.616   8.982  0.00  0.00    +0.152 HD
ENDROOT
BRANCH   4  10
ATOM     10  C   UNL     1       8.144   3.789   9.016  0.00  0.00    -0.014 A 
ATOM     11  C   UNL     1       9.348   3.156   8.771  0.00  0.00    +0.006 A 
ATOM     12  C   UNL     1      10.190   2.836   9.820  0.00  0.00    +0.002 A 
ATOM     13  C   UNL     1       9.825   3.138  11.118  0.00  0.00    +0.028 A 
ATOM     14  C   UNL     1       8.614   3.769  11.367  0.00  0.00    +0.069 A 
ATOM     15  C   UNL     1       7.773   4.094  10.311  0.00  0.00    +0.034 A 
BRANCH  14  16
ATOM     16  N   UNL     1       8.240   4.076  12.684  0.00  0.00    -0.200 N 
ATOM     17  C   UNL     1       8.938   3.830  13.813  0.00  0.00    +0.250 A 
ATOM     18  N   UNL     1       8.227   4.278  14.815  0.00  0.00    -0.116 NA
ATOM     19  N   UNL     1       7.127   4.791  14.395  0.00  0.00    -0.023 NA
ATOM     20  N   UNL     1       7.062   4.713  13.110  0.00  0.00    -0.039 NA
ENDBRANCH  14  16
ENDBRANCH   4  10
BRANCH   1  21
ATOM     21  C   UNL     1       5.717   1.518   5.721  0.00  0.00    +0.197 C 
BRANCH  21  22
ATOM     22  C   UNL     1       5.258   2.141   4.428  0.00  0.00    +0.183 C 
ATOM     23  O   UNL     1       5.240   3.348   4.309  0.00  0.00    -0.290 OA
BRANCH  22  27
ATOM     24  C   UNL     1       4.135  -1.935   1.585  0.00  0.00    +0.063 C 
ATOM     25  C   UNL     1       4.342  -0.524   2.072  0.00  0.00    +0.017 A 
ATOM     26  C   UNL     1       4.794  -0.179   3.289  0.00  0.00    +0.034 A 
ATOM     27  C   UNL     1       4.834   1.289   3.315  0.00  0.00    +0.040 A 
ATOM     28  C   UNL     1       4.394   1.701   2.071  0.00  0.00    +0.027 A 
ATOM     29  N   UNL     1       4.101   0.606   1.347  0.00  0.00    -0.340 N 
ATOM     30  C   UNL     1       4.263   3.129   1.608  0.00  0.00    +0.064 C 
BRANCH  29  31
ATOM     31  C   UNL     1       3.599   0.625  -0.030  0.00  0.00    +0.196 C 
BRANCH  31  32
ATOM     32  C   UNL     1       2.092   0.660  -0.014  0.00  0.00    +0.124 A 
ATOM     33  C   UNL     1       1.331   1.769  -0.001  0.00  0.00    +0.046 A 
ATOM     34  C   UNL     1      -0.016   1.341   0.009  0.00  0.00    +0.041 A 
ATOM     35  C   UNL     1       0.002  -0.004   0.002  0.00  0.00    +0.195 A 
ATOM     36  O   UNL     1       1.282  -0.411  -0.012  0.00  0.00    -0.466 OA
ENDBRANCH  31  32
ENDBRANCH  29  31
ENDBRANCH  22  27
ENDBRANCH  21  22
ENDBRANCH   1  21
TORSDOF 7
