REMARK  Name = ZINC08623119
REMARK  10 active torsions:
REMARK  status: ('A' for Active; 'I' for Inactive)
REMARK    1  A    between atoms: C_1  and  C_2
REMARK    2  A    between atoms: C_2  and  C_3
REMARK    3  A    between atoms: C_3  and  C_4
REMARK    4  A    between atoms: C_4  and  C_6
REMARK    5  A    between atoms: C_4  and  C_26
REMARK    6  A    between atoms: C_6  and  N_7
REMARK    7  A    between atoms: C_8  and  C_10
REMARK    8  A    between atoms: C_10  and  N_11
REMARK    9  A    between atoms: C_14  and  C_18
REMARK   10  A    between atoms: C_14  and  C_19
REMARK                            x       y       z     vdW  Elec       q    Type
REMARK                         _______ _______ _______ _____ _____    ______ ____
ROOT
ATOM      1  N   UNL     1       5.394   0.451  -1.712  0.00  0.00    -0.313 N 
ATOM      2  C   UNL     1       4.075   0.545  -1.454  0.00  0.00    +0.231 C 
ATOM      3  O   UNL     1       3.280   0.607  -2.368  0.00  0.00    -0.274 OA
ATOM      4  H   UNL     1       6.029   0.402  -0.981  0.00  0.00    +0.149 HD
ENDROOT
BRANCH   1   5
ATOM      5  C   UNL     1       5.869   0.424  -3.098  0.00  0.00    +0.112 C 
BRANCH   5   6
ATOM      6  C   UNL     1       7.395   0.314  -3.113  0.00  0.00    +0.038 C 
BRANCH   6   7
ATOM      7  C   UNL     1       7.892   0.409  -4.532  0.00  0.00    -0.024 A 
ATOM      8  C   UNL     1       7.481  -0.518  -5.472  0.00  0.00    +0.007 A 
ATOM      9  C   UNL     1       7.937  -0.432  -6.774  0.00  0.00    +0.020 A 
ATOM     10  C   UNL     1       8.805   0.583  -7.137  0.00  0.00    +0.042 A 
ATOM     11  C   UNL     1       9.216   1.511  -6.198  0.00  0.00    +0.040 A 
ATOM     12  C   UNL     1       8.754   1.427  -4.896  0.00  0.00    +0.046 A 
ATOM     13 CL   UNL     1       9.264   2.596  -3.718  0.00  0.00    -0.083 Cl
ATOM     14 CL   UNL     1       9.377   0.691  -8.773  0.00  0.00    -0.083 Cl
ENDBRANCH   6   7
BRANCH   6  15
ATOM     15  C   UNL     1       7.815  -1.030  -2.514  0.00  0.00    +0.009 C 
BRANCH  15  17
ATOM     16  C   UNL     1       9.761  -2.433  -1.815  0.00  0.00    +0.004 C 
ATOM     17  C   UNL     1       9.340  -1.089  -2.413  0.00  0.00    -0.003 C 
ENDBRANCH  15  17
ENDBRANCH   6  15
ENDBRANCH   5   6
ENDBRANCH   1   5
BRANCH   2  18
ATOM     18  C   UNL     1       3.587   0.574  -0.028  0.00  0.00    +0.213 C 
BRANCH  18  19
ATOM     19  N   UNL     1       2.125   0.679  -0.015  0.00  0.00    -0.215 N 
ATOM     20  C   UNL     1       1.450   1.845  -0.002  0.00  0.00    +0.251 C 
ATOM     21  O   UNL     1       1.920   2.963  -0.001  0.00  0.00    -0.272 OA
ATOM     22  C   UNL     1      -0.018   1.469   0.010  0.00  0.00    +0.135 C 
ATOM     23  N   UNL     1       0.002  -0.004   0.002  0.00  0.00    -0.281 N 
ATOM     24  C   UNL     1       1.296  -0.371  -0.012  0.00  0.00    +0.310 C 
ATOM     25  O   UNL     1       1.670  -1.528  -0.022  0.00  0.00    -0.252 OA
ATOM     26  C   UNL     1      -0.697   1.991   1.278  0.00  0.00    +0.047 C 
ATOM     27  H   UNL     1      -0.768  -0.594   0.006  0.00  0.00    +0.152 HD
BRANCH  22  28
ATOM     28  C   UNL     1      -0.711   1.996  -1.220  0.00  0.00    -0.015 A 
ATOM     29  C   UNL     1      -0.324   3.207  -1.765  0.00  0.00    +0.007 A 
ATOM     30  C   UNL     1      -0.955   3.689  -2.896  0.00  0.00    +0.020 A 
ATOM     31  C   UNL     1      -1.981   2.965  -3.477  0.00  0.00    +0.041 A 
ATOM     32  C   UNL     1      -2.371   1.756  -2.928  0.00  0.00    +0.020 A 
ATOM     33  C   UNL     1      -1.736   1.273  -1.800  0.00  0.00    +0.007 A 
ATOM     34 CL   UNL     1      -2.780   3.573  -4.893  0.00  0.00    -0.084 Cl
ENDBRANCH  22  28
ENDBRANCH  18  19
ENDBRANCH   2  18
TORSDOF 8
