REMARK  Name = ZINC61683069
REMARK  5 active torsions:
REMARK  status: ('A' for Active; 'I' for Inactive)
REMARK    1  A    between atoms: C_1  and  C_2
REMARK    2  A    between atoms: C_2  and  C_3
REMARK    3  A    between atoms: C_2  and  N_4
REMARK    4  A    between atoms: C_6  and  N_9
REMARK    5  A    between atoms: N_9  and  C_10
REMARK                            x       y       z     vdW  Elec       q    Type
REMARK                         _______ _______ _______ _____ _____    ______ ____
ROOT
ATOM      1  C   UNL     1      -5.676  -2.021   0.916  0.00  0.00    +0.103 C 
ATOM      2  C   UNL     1      -6.386  -2.892   1.938  0.00  0.00    +0.038 C 
ATOM      3  C   UNL     1      -7.658  -3.474   1.305  0.00  0.00    +0.076 C 
ATOM      4  S   UNL     1      -8.849  -2.111   1.148  0.00  0.00    -0.125 S 
ATOM      5  C   UNL     1      -7.875  -0.796   0.485  0.00  0.00    +0.013 A 
ATOM      6  C   UNL     1      -6.496  -0.857   0.444  0.00  0.00    -0.013 A 
ATOM      7  C   UNL     1      -5.795   0.227  -0.078  0.00  0.00    +0.026 A 
ATOM      8  C   UNL     1      -6.457   1.341  -0.551  0.00  0.00    +0.041 A 
ATOM      9  C   UNL     1      -7.840   1.393  -0.512  0.00  0.00    +0.021 A 
ATOM     10  C   UNL     1      -8.542   0.330   0.000  0.00  0.00    +0.016 A 
ATOM     11 CL   UNL     1      -5.556   2.677  -1.196  0.00  0.00    -0.084 Cl
ENDROOT
BRANCH   1  12
ATOM     12  N   UNL     1      -4.440  -1.511   1.514  0.00  0.00    -0.335 N 
ATOM     13  H   UNL     1      -4.376  -1.401   2.476  0.00  0.00    +0.147 HD
BRANCH  12  16
ATOM     14  N   UNL     1      -1.372  -0.511   0.012  0.00  0.00    -0.267 N 
ATOM     15  C   UNL     1      -2.148  -0.699   1.113  0.00  0.00    +0.131 A 
ATOM     16  C   UNL     1      -3.345  -1.179   0.693  0.00  0.00    +0.066 A 
ATOM     17  C   UNL     1      -3.299  -1.288  -0.704  0.00  0.00    +0.157 A 
ATOM     18  N   UNL     1      -2.123  -0.883  -1.110  0.00  0.00    -0.178 NA
BRANCH  14  20
ATOM     19  C   UNL     1      -0.019   1.526   0.010  0.00  0.00    +0.032 C 
ATOM     20  C   UNL     1       0.002  -0.004   0.002  0.00  0.00    +0.101 C 
ATOM     21  C   UNL     1       0.742  -0.511   1.242  0.00  0.00    +0.032 C 
ENDBRANCH  14  20
ENDBRANCH  12  16
ENDBRANCH   1  12
TORSDOF 3
