REMARK  Name = ZINC36207138
REMARK  13 active torsions:
REMARK  status: ('A' for Active; 'I' for Inactive)
REMARK    1  A    between atoms: C_1  and  C_2
REMARK    2  A    between atoms: C_2  and  N_3
REMARK    3  A    between atoms: N_3  and  C_4
REMARK    4  A    between atoms: N_3  and  C_24
REMARK    5  A    between atoms: C_4  and  C_5
REMARK    6  A    between atoms: C_11  and  C_16
REMARK    7  A    between atoms: C_21  and  O_22
REMARK    8  A    between atoms: O_22  and  C_23
REMARK    9  A    between atoms: C_24  and  C_25
REMARK   10  A    between atoms: C_25  and  C_27
REMARK   11  A    between atoms: C_25  and  O_35
REMARK   12  A    between atoms: C_27  and  O_28
REMARK   13  A    between atoms: O_28  and  C_29
REMARK                            x       y       z     vdW  Elec       q    Type
REMARK                         _______ _______ _______ _____ _____    ______ ____
ROOT
ATOM      1  C   UNL     1      -1.385  -2.196   1.630  0.00  0.00    +0.094 A 
ATOM      2  N   UNL     1      -1.494  -3.485   2.043  0.00  0.00    -0.312 N 
ATOM      3  H   UNL     1      -1.792  -4.162   1.415  0.00  0.00    +0.170 HD
ATOM      4  C   UNL     1      -1.197  -3.842   3.306  0.00  0.00    +0.260 A 
ATOM      5  O   UNL     1      -1.300  -5.004   3.661  0.00  0.00    -0.267 OA
ATOM      6  C   UNL     1      -0.758  -2.837   4.226  0.00  0.00    +0.080 A 
ATOM      7  C   UNL     1      -0.381  -2.971   5.628  0.00  0.00    +0.007 A 
ATOM      8  C   UNL     1       0.008  -1.865   6.306  0.00  0.00    +0.056 A 
ATOM      9  S   UNL     1      -0.112  -0.570   5.088  0.00  0.00    -0.076 S 
ATOM     10  C   UNL     1      -0.675  -1.534   3.709  0.00  0.00    +0.116 A 
ATOM     11  N   UNL     1      -0.983  -1.258   2.444  0.00  0.00    -0.229 NA
ENDROOT
BRANCH   7  12
ATOM     12  C   UNL     1      -0.423  -4.293   6.298  0.00  0.00    +0.025 A 
ATOM     13  C   UNL     1      -1.320  -4.521   7.339  0.00  0.00    +0.012 A 
ATOM     14  C   UNL     1      -1.355  -5.754   7.960  0.00  0.00    +0.001 A 
ATOM     15  C   UNL     1      -0.502  -6.764   7.552  0.00  0.00    +0.004 A 
ATOM     16  C   UNL     1       0.392  -6.548   6.520  0.00  0.00    +0.046 A 
ATOM     17  C   UNL     1       0.434  -5.318   5.885  0.00  0.00    +0.128 A 
BRANCH  17  18
ATOM     18  O   UNL     1       1.309  -5.106   4.866  0.00  0.00    -0.495 OA
ATOM     19  C   UNL     1       2.153  -6.199   4.499  0.00  0.00    +0.277 C 
ENDBRANCH  17  18
ENDBRANCH   7  12
BRANCH   1  20
ATOM     20  C   UNL     1      -1.729  -1.843   0.205  0.00  0.00    -0.003 C 
BRANCH  20  21
ATOM     21  N   UNL     1      -1.528  -0.403  -0.004  0.00  0.00    +0.386 N 
ATOM     22  H   UNL     1      -2.062   0.114   0.678  0.00  0.00    -0.081 HD
BRANCH  21  24
ATOM     23  C   UNL     1       0.695  -0.783  -0.957  0.00  0.00    -0.017 C 
ATOM     24  C   UNL     1      -0.103  -0.081   0.143  0.00  0.00    -0.082 C 
ENDBRANCH  21  24
BRANCH  21  25
ATOM     25  C   UNL     1      -1.976  -0.038  -1.355  0.00  0.00    -0.043 C 
BRANCH  25  26
ATOM     26  C   UNL     1      -1.881   1.479  -1.530  0.00  0.00    +0.135 C 
BRANCH  26  27
ATOM     27  O   UNL     1      -2.704   2.123  -0.556  0.00  0.00    -0.390 OA
ATOM     28  H   UNL     1      -3.640   1.887  -0.612  0.00  0.00    +0.210 HD
ENDBRANCH  26  27
BRANCH  26  29
ATOM     29  C   UNL     1      -2.359   1.861  -2.933  0.00  0.00    +0.258 C 
BRANCH  29  30
ATOM     30  O   UNL     1      -2.162   3.261  -3.139  0.00  0.00    -0.489 OA
BRANCH  30  31
ATOM     31  C   UNL     1      -2.537   3.766  -4.343  0.00  0.00    +0.121 A 
ATOM     32  C   UNL     1      -3.088   2.933  -5.305  0.00  0.00    +0.045 A 
ATOM     33  C   UNL     1      -3.469   3.449  -6.529  0.00  0.00    +0.004 A 
ATOM     34  C   UNL     1      -3.300   4.795  -6.795  0.00  0.00    +0.000 A 
ATOM     35  C   UNL     1      -2.751   5.628  -5.838  0.00  0.00    +0.004 A 
ATOM     36  C   UNL     1      -2.374   5.118  -4.611  0.00  0.00    +0.045 A 
ENDBRANCH  30  31
ENDBRANCH  29  30
ENDBRANCH  26  29
ENDBRANCH  25  26
ENDBRANCH  21  25
ENDBRANCH  20  21
ENDBRANCH   1  20
TORSDOF 11
