REMARK  Name = ZINC14511578
REMARK  11 active torsions:
REMARK  status: ('A' for Active; 'I' for Inactive)
REMARK    1  A    between atoms: C_1  and  O_2
REMARK    2  A    between atoms: O_2  and  C_3
REMARK    3  A    between atoms: C_3  and  C_4
REMARK    4  A    between atoms: C_4  and  N_5
REMARK    5  A    between atoms: N_5  and  C_6
REMARK    6  A    between atoms: C_7  and  N_22
REMARK    7  A    between atoms: N_8  and  C_15
REMARK    8  A    between atoms: C_15  and  C_16
REMARK    9  A    between atoms: C_23  and  C_25
REMARK   10  A    between atoms: C_26  and  C_27
REMARK   11  A    between atoms: C_31  and  N_33
REMARK                            x       y       z     vdW  Elec       q    Type
REMARK                         _______ _______ _______ _____ _____    ______ ____
ROOT
ATOM      1  N   UNL     1       7.234   1.621  -0.030  0.00  0.00    -0.259 N 
ATOM      2  C   UNL     1       6.064   2.288   0.012  0.00  0.00    +0.244 C 
ATOM      3  O   UNL     1       6.054   3.489   0.213  0.00  0.00    -0.270 OA
ENDROOT
BRANCH   1   4
ATOM      4  C   UNL     1       8.451   2.326   0.066  0.00  0.00    +0.140 A 
ATOM      5  C   UNL     1       8.797   3.264  -0.886  0.00  0.00    +0.128 A 
ATOM      6  N   UNL     1       9.989   3.939  -0.762  0.00  0.00    -0.276 N 
ATOM      7  C   UNL     1      10.813   3.681   0.269  0.00  0.00    +0.331 A 
ATOM      8  O   UNL     1      11.864   4.285   0.358  0.00  0.00    -0.246 OA
ATOM      9  N   UNL     1      10.496   2.767   1.203  0.00  0.00    -0.273 N 
ATOM     10  H   UNL     1      11.127   2.594   1.960  0.00  0.00    +0.173 HD
ATOM     11  C   UNL     1       9.338   2.082   1.132  0.00  0.00    +0.277 A 
ATOM     12  O   UNL     1       9.060   1.255   1.984  0.00  0.00    -0.266 OA
BRANCH   5  13
ATOM     13  N   UNL     1       7.957   3.523  -1.943  0.00  0.00    -0.343 N 
ATOM     14  H   UNL     1       7.162   2.984  -2.075  0.00  0.00    +0.144 HD
ATOM     15  H   UNL     1       8.160   4.247  -2.557  0.00  0.00    +0.144 HD
ENDBRANCH   5  13
BRANCH   6  16
ATOM     16  C   UNL     1      10.366   4.940  -1.763  0.00  0.00    +0.163 C 
BRANCH  16  17
ATOM     17  C   UNL     1      11.139   4.276  -2.872  0.00  0.00    -0.028 A 
ATOM     18  C   UNL     1      12.516   4.180  -2.795  0.00  0.00    +0.005 A 
ATOM     19  C   UNL     1      13.224   3.566  -3.810  0.00  0.00    +0.000 A 
ATOM     20  C   UNL     1      12.557   3.057  -4.909  0.00  0.00    +0.000 A 
ATOM     21  C   UNL     1      11.181   3.157  -4.989  0.00  0.00    +0.000 A 
ATOM     22  C   UNL     1      10.472   3.766  -3.971  0.00  0.00    +0.005 A 
ENDBRANCH  16  17
ENDBRANCH   6  16
ENDBRANCH   1   4
BRANCH   2  23
ATOM     23  C   UNL     1       4.804   1.570  -0.184  0.00  0.00    +0.068 C 
ATOM     24  C   UNL     1       3.633   2.237  -0.142  0.00  0.00    +0.013 C 
BRANCH  24  25
ATOM     25  C   UNL     1       2.366   1.514  -0.339  0.00  0.00    -0.023 A 
ATOM     26  C   UNL     1       2.373   0.135  -0.570  0.00  0.00    +0.009 A 
ATOM     27  C   UNL     1       1.183  -0.535  -0.753  0.00  0.00    +0.023 A 
ATOM     28  C   UNL     1      -0.018   0.154  -0.709  0.00  0.00    +0.071 A 
ATOM     29  C   UNL     1      -0.033   1.520  -0.481  0.00  0.00    +0.145 A 
ATOM     30  C   UNL     1       1.150   2.204  -0.296  0.00  0.00    +0.042 A 
ATOM     31 CL   UNL     1      -1.513  -0.699  -0.941  0.00  0.00    -0.081 Cl
BRANCH  29  32
ATOM     32  N   UNL     1      -1.321   2.249  -0.442  0.00  0.00    +0.058 N 
ATOM     33  O   UNL     1      -1.335   3.450  -0.241  0.00  0.00    -0.126 OA
ATOM     34  O   UNL     1      -2.366   1.647  -0.610  0.00  0.00    -0.126 OA
ENDBRANCH  29  32
ENDBRANCH  24  25
ENDBRANCH   2  23
BRANCH   1  35
ATOM     35  C   UNL     1       7.241   0.164  -0.176  0.00  0.00    +0.142 C 
BRANCH  35  36
ATOM     36  C   UNL     1       7.138  -0.201  -1.658  0.00  0.00    +0.179 C 
BRANCH  36  38
ATOM     37  C   UNL     1       8.312  -0.039  -3.742  0.00  0.00    +0.194 C 
ATOM     38  O   UNL     1       8.307   0.253  -2.343  0.00  0.00    -0.381 OA
ENDBRANCH  36  38
ENDBRANCH  35  36
ENDBRANCH   1  35
TORSDOF 10
