REMARK  Name = ZINC20605090
REMARK  9 active torsions:
REMARK  status: ('A' for Active; 'I' for Inactive)
REMARK    1  A    between atoms: C_1  and  O_2
REMARK    2  A    between atoms: O_2  and  C_3
REMARK    3  A    between atoms: C_6  and  C_9
REMARK    4  A    between atoms: C_14  and  O_30
REMARK    5  A    between atoms: C_15  and  C_20
REMARK    6  A    between atoms: C_20  and  N_21
REMARK    7  A    between atoms: N_24  and  C_27
REMARK    8  A    between atoms: C_27  and  C_28
REMARK    9  A    between atoms: C_28  and  O_29
REMARK                            x       y       z     vdW  Elec       q    Type
REMARK                         _______ _______ _______ _____ _____    ______ ____
ROOT
ATOM      1  C   UNL     1      -1.206   1.973   0.103  0.00  0.00    +0.067 A 
ATOM      2  C   UNL     1      -0.980   0.624   0.057  0.00  0.00    +0.027 A 
ATOM      3  C   UNL     1       0.358   0.155   0.005  0.00  0.00    +0.019 A 
ATOM      4  C   UNL     1       0.622  -1.222  -0.048  0.00  0.00    +0.015 A 
ATOM      5  C   UNL     1       1.910  -1.667  -0.092  0.00  0.00    +0.046 A 
ATOM      6  C   UNL     1       2.970  -0.763  -0.084  0.00  0.00    +0.122 A 
ATOM      7  C   UNL     1       2.730   0.600  -0.032  0.00  0.00    +0.020 A 
ATOM      8  C   UNL     1       1.425   1.072   0.014  0.00  0.00    +0.144 A 
ATOM      9  O   UNL     1       1.191   2.402   0.064  0.00  0.00    -0.421 OA
ATOM     10  C   UNL     1      -0.061   2.887   0.108  0.00  0.00    +0.345 A 
ATOM     11  O   UNL     1      -0.245   4.089   0.154  0.00  0.00    -0.245 OA
ENDROOT
BRANCH   1  15
ATOM     12  C   UNL     1      -5.177   3.488   0.244  0.00  0.00    +0.120 A 
ATOM     13  C   UNL     1      -4.233   3.932   1.161  0.00  0.00    +0.046 A 
ATOM     14  C   UNL     1      -2.945   3.443   1.118  0.00  0.00    +0.012 A 
ATOM     15  C   UNL     1      -2.590   2.501   0.152  0.00  0.00    -0.011 A 
ATOM     16  C   UNL     1      -3.539   2.062  -0.771  0.00  0.00    +0.012 A 
ATOM     17  C   UNL     1      -4.827   2.551  -0.719  0.00  0.00    +0.046 A 
BRANCH  12  19
ATOM     18  C   UNL     1      -7.366   3.472  -0.682  0.00  0.00    +0.277 C 
ATOM     19  O   UNL     1      -6.446   3.972   0.290  0.00  0.00    -0.495 OA
ENDBRANCH  12  19
ENDBRANCH   1  15
BRANCH   6  20
ATOM     20  O   UNL     1       4.247  -1.220  -0.128  0.00  0.00    -0.506 OA
ATOM     21  H   UNL     1       5.087  -0.510  -0.123  0.00  0.00    +0.292 HD
ENDBRANCH   6  20
BRANCH   7  22
ATOM     22  C   UNL     1       3.883   1.570  -0.025  0.00  0.00    -0.035 C 
BRANCH  22  23
ATOM     23  N   UNL     1       4.226   1.932  -1.407  0.00  0.00    +0.384 N 
ATOM     24  C   UNL     1       4.753   0.773  -2.140  0.00  0.00    -0.063 C 
ATOM     25  C   UNL     1       5.023   1.171  -3.593  0.00  0.00    +0.066 C 
ATOM     26  N   UNL     1       5.978   2.288  -3.623  0.00  0.00    -0.304 NA
ATOM     27  C   UNL     1       5.452   3.447  -2.889  0.00  0.00    +0.066 C 
ATOM     28  C   UNL     1       5.182   3.049  -1.436  0.00  0.00    -0.063 C 
ATOM     29  H   UNL     1       3.304   2.261  -1.907  0.00  0.00    -0.081 HD
BRANCH  26  30
ATOM     30  C   UNL     1       6.322   2.650  -5.004  0.00  0.00    +0.112 C 
BRANCH  30  31
ATOM     31  C   UNL     1       7.631   3.441  -5.013  0.00  0.00    +0.171 C 
BRANCH  31  32
ATOM     32  O   UNL     1       8.697   2.603  -4.559  0.00  0.00    -0.394 OA
ATOM     33  H   UNL     1       9.720   3.001  -4.497  0.00  0.00    +0.209 HD
ENDBRANCH  31  32
ENDBRANCH  30  31
ENDBRANCH  26  30
ENDBRANCH  22  23
ENDBRANCH   7  22
TORSDOF 8
