REMARK  Name = ZINC33812566
REMARK  11 active torsions:
REMARK  status: ('A' for Active; 'I' for Inactive)
REMARK    1  A    between atoms: C_1  and  C_2
REMARK    2  A    between atoms: C_2  and  C_3
REMARK    3  A    between atoms: C_3  and  N_4
REMARK    4  A    between atoms: C_5  and  N_29
REMARK    5  A    between atoms: C_6  and  C_14
REMARK    6  A    between atoms: C_7  and  C_13
REMARK    7  A    between atoms: C_8  and  C_11
REMARK    8  A    between atoms: N_18  and  C_22
REMARK    9  A    between atoms: C_22  and  C_23
REMARK   10  A    between atoms: N_32  and  C_35
REMARK   11  A    between atoms: C_35  and  C_36
REMARK                            x       y       z     vdW  Elec       q    Type
REMARK                         _______ _______ _______ _____ _____    ______ ____
ROOT
ATOM      1  N   UNL     1       0.345  -2.333  -1.421  0.00  0.00    -0.295 N 
ATOM      2  C   UNL     1       1.452  -2.821  -0.804  0.00  0.00    +0.112 A 
ATOM      3  C   UNL     1       1.847  -4.155  -0.998  0.00  0.00    +0.019 A 
ATOM      4  C   UNL     1       1.085  -4.986  -1.837  0.00  0.00    -0.017 A 
ATOM      5  C   UNL     1      -0.045  -4.462  -2.457  0.00  0.00    +0.120 A 
ATOM      6  C   UNL     1      -0.403  -3.109  -2.224  0.00  0.00    +0.270 A 
ATOM      7  O   UNL     1      -1.395  -2.646  -2.760  0.00  0.00    -0.266 OA
ATOM      8  C   UNL     1       1.486  -6.421  -2.062  0.00  0.00    +0.046 C 
ENDROOT
BRANCH   3   9
ATOM      9  C   UNL     1       3.042  -4.675  -0.331  0.00  0.00    +0.032 C 
ATOM     10  C   UNL     1       2.925  -5.643   0.618  0.00  0.00    +0.077 C 
ATOM     11  C   UNL     1       1.749  -6.215   1.192  0.00  0.00    +0.258 C 
ATOM     12  O   UNL     1       0.640  -5.849   0.845  0.00  0.00    -0.269 OA
ATOM     13  N   UNL     1       1.900  -7.154   2.109  0.00  0.00    -0.253 N 
ATOM     14  C   UNL     1       3.130  -7.561   2.493  0.00  0.00    +0.121 C 
ATOM     15  S   UNL     1       3.555  -8.748   3.651  0.00  0.00    -0.027 S 
ATOM     16  S   UNL     1       4.201  -6.550   1.482  0.00  0.00    -0.061 S 
BRANCH  13  17
ATOM     17  C   UNL     1       0.715  -7.764   2.719  0.00  0.00    +0.146 C 
BRANCH  17  18
ATOM     18  C   UNL     1       0.292  -8.985   1.901  0.00  0.00    +0.136 C 
ATOM     19  C   UNL     1      -0.981  -9.626   2.510  0.00  0.00    +0.035 C 
ATOM     20  C   UNL     1      -1.574 -10.343   1.267  0.00  0.00    +0.031 C 
ATOM     21  C   UNL     1      -1.188  -9.385   0.120  0.00  0.00    +0.160 C 
ATOM     22  O   UNL     1      -0.084  -8.589   0.572  0.00  0.00    -0.375 OA
ENDBRANCH  17  18
ENDBRANCH  13  17
ENDBRANCH   3   9
BRANCH   2  23
ATOM     23  N   UNL     1       2.188  -2.009   0.009  0.00  0.00    -0.320 N 
ATOM     24  C   UNL     1       1.963  -1.991   1.462  0.00  0.00    +0.088 C 
ATOM     25  C   UNL     1       3.314  -2.164   2.165  0.00  0.00    -0.060 C 
ATOM     26  N   UNL     1       4.250  -1.140   1.683  0.00  0.00    +0.382 N 
ATOM     27  C   UNL     1       4.519  -1.341   0.254  0.00  0.00    -0.060 C 
ATOM     28  C   UNL     1       3.232  -1.131  -0.542  0.00  0.00    +0.088 C 
ATOM     29  H   UNL     1       3.847  -0.225   1.823  0.00  0.00    -0.082 HD
BRANCH  26  30
ATOM     30  C   UNL     1       5.508  -1.236   2.435  0.00  0.00    -0.082 C 
ATOM     31  C   UNL     1       6.438  -0.093   2.023  0.00  0.00    -0.017 C 
ENDBRANCH  26  30
ENDBRANCH   2  23
BRANCH   5  32
ATOM     32  C   UNL     1      -0.843  -5.282  -3.318  0.00  0.00    +0.105 C 
ATOM     33  N   UNL     1      -1.475  -5.933  -4.001  0.00  0.00    -0.191 NA
ENDBRANCH   5  32
BRANCH   1  34
ATOM     34  C   UNL     1      -0.043  -0.937  -1.202  0.00  0.00    +0.126 C 
BRANCH  34  36
ATOM     35  C   UNL     1      -1.482   0.591   0.153  0.00  0.00    +0.005 C 
ATOM     36  C   UNL     1      -1.076  -0.866  -0.075  0.00  0.00    +0.018 C 
ENDBRANCH  34  36
ENDBRANCH   1  34
TORSDOF 8
