REMARK  Name = ZINC08227132
REMARK  10 active torsions:
REMARK  status: ('A' for Active; 'I' for Inactive)
REMARK    1  A    between atoms: C_1  and  C_2
REMARK    2  A    between atoms: C_2  and  N_43
REMARK    3  A    between atoms: C_3  and  C_4
REMARK    4  A    between atoms: C_3  and  N_43
REMARK    5  A    between atoms: C_6  and  O_20
REMARK    6  A    between atoms: C_7  and  O_11
REMARK    7  A    between atoms: O_11  and  C_12
REMARK    8  A    between atoms: C_12  and  C_13
REMARK    9  A    between atoms: O_20  and  C_21
REMARK   10  A    between atoms: C_21  and  C_22
REMARK                            x       y       z     vdW  Elec       q    Type
REMARK                         _______ _______ _______ _____ _____    ______ ____
ROOT
ATOM      1  C   UNL     1       1.171   2.089   0.002  0.00  0.00    -0.060 A 
ATOM      2  C   UNL     1      -0.017   1.381   0.010  0.00  0.00    +0.051 A 
ATOM      3  C   UNL     1       0.002  -0.004   0.002  0.00  0.00    +0.163 A 
ATOM      4  C   UNL     1       1.218  -0.680  -0.013  0.00  0.00    +0.176 A 
ATOM      5  C   UNL     1       2.405   0.035  -0.021  0.00  0.00    +0.063 A 
ATOM      6  C   UNL     1       2.379   1.418  -0.013  0.00  0.00    +0.021 A 
ATOM      7 BR   UNL     1       4.060  -0.880  -0.041  0.00  0.00    -0.046 Br
ENDROOT
BRANCH   1   8
ATOM      8  C   UNL     1       1.148   3.596   0.010  0.00  0.00    -0.047 C 
BRANCH   8   9
ATOM      9  N   UNL     1       1.154   4.072   1.407  0.00  0.00    +0.382 N 
ATOM     10  H   UNL     1       0.326   3.708   1.892  0.00  0.00    -0.085 HD
ATOM     11  H   UNL     1       2.002   3.733   1.876  0.00  0.00    -0.085 HD
BRANCH   9  13
ATOM     12  C   UNL     1       1.139   6.010   2.903  0.00  0.00    -0.017 C 
ATOM     13  C   UNL     1       1.132   5.546   1.445  0.00  0.00    -0.086 C 
ENDBRANCH   9  13
ENDBRANCH   8   9
ENDBRANCH   1   8
BRANCH   4  14
ATOM     14  O   UNL     1       1.242  -2.040  -0.021  0.00  0.00    -0.483 OA
BRANCH  14  15
ATOM     15  C   UNL     1       1.241  -2.682  -1.298  0.00  0.00    +0.264 C 
BRANCH  15  16
ATOM     16  C   UNL     1       1.268  -4.177  -1.109  0.00  0.00    -0.010 A 
ATOM     17  C   UNL     1       2.478  -4.842  -1.040  0.00  0.00    +0.008 A 
ATOM     18  C   UNL     1       2.504  -6.212  -0.861  0.00  0.00    +0.020 A 
ATOM     19  C   UNL     1       1.319  -6.920  -0.763  0.00  0.00    +0.041 A 
ATOM     20  C   UNL     1       0.109  -6.254  -0.839  0.00  0.00    +0.020 A 
ATOM     21  C   UNL     1       0.084  -4.883  -1.012  0.00  0.00    +0.008 A 
ATOM     22 CL   UNL     1       1.351  -8.642  -0.545  0.00  0.00    -0.084 Cl
ENDBRANCH  15  16
ENDBRANCH  14  15
ENDBRANCH   4  14
BRANCH   3  23
ATOM     23  O   UNL     1      -1.165  -0.701   0.009  0.00  0.00    -0.489 OA
BRANCH  23  24
ATOM     24  C   UNL     1      -2.375   0.059   0.024  0.00  0.00    +0.226 C 
ATOM     25  C   UNL     1      -3.575  -0.891   0.030  0.00  0.00    +0.048 C 
ENDBRANCH  23  24
ENDBRANCH   3  23
TORSDOF 8
