REMARK  Name = ZINC12880097
REMARK  4 active torsions:
REMARK  status: ('A' for Active; 'I' for Inactive)
REMARK    1  A    between atoms: C_3  and  C_9
REMARK    2  A    between atoms: C_14  and  C_17
REMARK    3  A    between atoms: C_17  and  C_18
REMARK    4  A    between atoms: N_20  and  C_21
REMARK                            x       y       z     vdW  Elec       q    Type
REMARK                         _______ _______ _______ _____ _____    ______ ____
ROOT
ATOM      1  C   UNL     1       7.982   6.412   2.144  0.00  0.00    +0.255 C 
ATOM      2  O   UNL     1       8.174   7.323   1.361  0.00  0.00    -0.270 OA
ATOM      3  N   UNL     1       6.773   5.821   2.208  0.00  0.00    -0.261 N 
ATOM      4  C   UNL     1       5.777   6.179   1.309  0.00  0.00    +0.165 A 
ATOM      5  N   UNL     1       4.544   5.720   1.212  0.00  0.00    -0.229 NA
ATOM      6  C   UNL     1       3.717   6.173   0.289  0.00  0.00    +0.059 A 
ATOM      7  C   UNL     1       4.163   7.123  -0.568  0.00  0.00    +0.072 A 
ATOM      8  S   UNL     1       5.835   7.345   0.024  0.00  0.00    -0.060 S 
ATOM      9  H   UNL     1       6.598   5.145   2.882  0.00  0.00    +0.157 HD
ENDROOT
BRANCH   1  12
ATOM     10  C   UNL     1      11.363   6.020   3.737  0.00  0.00    +0.018 A 
ATOM     11  C   UNL     1      10.357   6.473   2.883  0.00  0.00    +0.020 A 
ATOM     12  C   UNL     1       9.071   5.956   3.022  0.00  0.00    +0.101 A 
ATOM     13  C   UNL     1       8.831   4.977   4.021  0.00  0.00    +0.261 A 
ATOM     14  O   UNL     1       7.715   4.505   4.159  0.00  0.00    -0.267 OA
ATOM     15  N   UNL     1       9.839   4.571   4.816  0.00  0.00    -0.328 N 
ATOM     16  H   UNL     1       9.669   3.902   5.497  0.00  0.00    +0.168 HD
ATOM     17  C   UNL     1      11.086   5.082   4.679  0.00  0.00    +0.086 A 
ENDBRANCH   1  12
BRANCH   6  18
ATOM     18  C   UNL     1       2.311   5.642   0.187  0.00  0.00    +0.152 C 
BRANCH  18  19
ATOM     19  C   UNL     1       2.349   4.142   0.051  0.00  0.00    +0.223 C 
ATOM     20  O   UNL     1       3.413   3.561   0.038  0.00  0.00    -0.275 OA
ATOM     21  N   UNL     1       1.200   3.446  -0.057  0.00  0.00    -0.285 N 
ATOM     22  H   UNL     1       0.353   3.914  -0.121  0.00  0.00    +0.155 HD
BRANCH  21  23
ATOM     23  C   UNL     1       1.228   2.046  -0.075  0.00  0.00    +0.033 A 
ATOM     24  C   UNL     1       2.189   1.361   0.656  0.00  0.00    +0.024 A 
ATOM     25  C   UNL     1       2.215  -0.020   0.637  0.00  0.00    +0.017 A 
ATOM     26  C   UNL     1       1.284  -0.720  -0.111  0.00  0.00    +0.018 A 
ATOM     27  C   UNL     1       0.326  -0.039  -0.840  0.00  0.00    +0.017 A 
ATOM     28  C   UNL     1       0.296   1.341  -0.824  0.00  0.00    +0.024 A 
ATOM     29 BR   UNL     1       1.323  -2.611  -0.135  0.00  0.00    -0.050 Br
ENDBRANCH  21  23
ENDBRANCH  18  19
ENDBRANCH   6  18
TORSDOF 4
