REMARK  Name = ZINC09382685
REMARK  11 active torsions:
REMARK  status: ('A' for Active; 'I' for Inactive)
REMARK    1  A    between atoms: C_1  and  C_2
REMARK    2  A    between atoms: C_5  and  S_8
REMARK    3  A    between atoms: S_8  and  N_11
REMARK    4  A    between atoms: N_11  and  C_12
REMARK    5  A    between atoms: C_12  and  C_14
REMARK    6  A    between atoms: C_12  and  C_15
REMARK    7  A    between atoms: C_15  and  C_17
REMARK    8  A    between atoms: C_15  and  N_64
REMARK    9  A    between atoms: N_24  and  C_27
REMARK   10  A    between atoms: C_32  and  O_33
REMARK   11  A    between atoms: O_33  and  C_34
REMARK                            x       y       z     vdW  Elec       q    Type
REMARK                         _______ _______ _______ _____ _____    ______ ____
ROOT
ATOM      1  C   UNL     1       2.171   1.173  -0.827  0.00  0.00    -0.012 C 
ENDROOT
BRANCH   1   7
ATOM      2  C   UNL     1       3.411   3.175  -1.394  0.00  0.00    -0.059 C 
ATOM      3  C   UNL     1       4.751   3.890  -1.211  0.00  0.00    +0.086 C 
ATOM      4  N   UNL     1       5.826   3.066  -1.780  0.00  0.00    -0.331 N 
ATOM      5  C   UNL     1       5.881   1.752  -1.124  0.00  0.00    +0.086 C 
ATOM      6  C   UNL     1       4.541   1.036  -1.307  0.00  0.00    -0.059 C 
ATOM      7  N   UNL     1       3.473   1.865  -0.711  0.00  0.00    +0.388 N 
ATOM      8  H   UNL     1       3.683   2.017   0.282  0.00  0.00    -0.081 HD
BRANCH   4   9
ATOM      9  C   UNL     1       7.060   3.721  -1.695  0.00  0.00    +0.072 A 
ATOM     10  C   UNL     1       7.180   4.883  -0.947  0.00  0.00    +0.027 A 
ATOM     11  C   UNL     1       8.400   5.526  -0.861  0.00  0.00    +0.002 A 
ATOM     12  C   UNL     1       9.501   5.019  -1.526  0.00  0.00    +0.004 A 
ATOM     13  C   UNL     1       9.388   3.864  -2.278  0.00  0.00    +0.047 A 
ATOM     14  C   UNL     1       8.169   3.211  -2.366  0.00  0.00    +0.141 A 
BRANCH  14  15
ATOM     15  O   UNL     1       8.056   2.076  -3.106  0.00  0.00    -0.493 OA
ATOM     16  C   UNL     1       9.235   1.611  -3.766  0.00  0.00    +0.277 C 
ENDBRANCH  14  15
ENDBRANCH   4   9
ENDBRANCH   1   7
BRANCH   1  17
ATOM     17  C   UNL     1       2.239  -0.126  -0.066  0.00  0.00    -0.022 A 
ATOM     18  C   UNL     1       1.713  -1.333  -0.388  0.00  0.00    +0.009 A 
ATOM     19  C   UNL     1       1.906  -2.399   0.471  0.00  0.00    +0.008 A 
ATOM     20  C   UNL     1       2.606  -2.203   1.615  0.00  0.00    +0.045 A 
ATOM     21  S   UNL     1       3.026  -0.471   1.499  0.00  0.00    -0.103 S 
ENDBRANCH   1  17
BRANCH   1  22
ATOM     22  C   UNL     1       1.080   2.061  -0.226  0.00  0.00    +0.065 C 
ATOM     23  C   UNL     1       1.467   2.449   1.202  0.00  0.00    +0.024 C 
BRANCH  22  24
ATOM     24  N   UNL     1      -0.189   1.329  -0.206  0.00  0.00    -0.188 NA
ATOM     25  H   UNL     1      -0.195   0.372  -0.044  0.00  0.00    +0.148 HD
BRANCH  24  26
ATOM     26  S   UNL     1      -1.613   2.132  -0.467  0.00  0.00    +0.059 S 
ATOM     27  O   UNL     1      -2.645   1.157  -0.419  0.00  0.00    -0.153 OA
ATOM     28  O   UNL     1      -1.599   3.270   0.384  0.00  0.00    -0.153 OA
BRANCH  26  33
ATOM     29  C   UNL     1      -1.474   4.216  -6.128  0.00  0.00    +0.044 C 
ATOM     30  C   UNL     1      -1.509   3.696  -4.714  0.00  0.00    -0.050 A 
ATOM     31  C   UNL     1      -2.027   2.441  -4.452  0.00  0.00    +0.005 A 
ATOM     32  C   UNL     1      -2.059   1.964  -3.155  0.00  0.00    +0.029 A 
ATOM     33  C   UNL     1      -1.572   2.741  -2.121  0.00  0.00    +0.105 A 
ATOM     34  C   UNL     1      -1.059   3.997  -2.382  0.00  0.00    +0.029 A 
ATOM     35  C   UNL     1      -1.023   4.473  -3.680  0.00  0.00    +0.005 A 
ENDBRANCH  26  33
ENDBRANCH  24  26
ENDBRANCH  22  24
ENDBRANCH   1  22
TORSDOF 8
