REMARK  Name = ZINC39960771
REMARK  10 active torsions:
REMARK  status: ('A' for Active; 'I' for Inactive)
REMARK    1  A    between atoms: C_1  and  C_2
REMARK    2  A    between atoms: C_4  and  C_31
REMARK    3  A    between atoms: C_6  and  C_8
REMARK    4  A    between atoms: C_17  and  C_19
REMARK    5  A    between atoms: C_19  and  N_20
REMARK    6  A    between atoms: N_20  and  C_21
REMARK    7  A    between atoms: C_21  and  C_22
REMARK    8  A    between atoms: C_25  and  N_28
REMARK    9  A    between atoms: N_28  and  C_29
REMARK   10  A    between atoms: N_28  and  C_30
REMARK                            x       y       z     vdW  Elec       q    Type
REMARK                         _______ _______ _______ _____ _____    ______ ____
ROOT
ATOM      1  C   UNL     1       0.293  -2.591   2.394  0.00  0.00    +0.024 C 
ATOM      2  C   UNL     1      -0.722  -3.736   2.362  0.00  0.00    -0.069 C 
ATOM      3  N   UNL     1      -0.057  -5.004   2.670  0.00  0.00    +0.381 N 
ATOM      4  C   UNL     1       0.522  -4.969   4.015  0.00  0.00    -0.078 C 
ATOM      5  C   UNL     1       1.579  -3.865   4.102  0.00  0.00    -0.015 C 
ATOM      6  C   UNL     1       1.675  -3.160   2.743  0.00  0.00    -0.007 C 
ATOM      7  C   UNL     1       2.049  -4.206   1.684  0.00  0.00    -0.013 C 
ATOM      8  C   UNL     1       0.973  -5.302   1.672  0.00  0.00    -0.086 C 
ATOM      9  H   UNL     1      -0.747  -5.740   2.646  0.00  0.00    -0.082 HD
ENDROOT
BRANCH   1  15
ATOM     10  C   UNL     1      -1.866  -1.505  -1.856  0.00  0.00    +0.088 C 
ATOM     11  C   UNL     1      -0.658  -1.409  -0.961  0.00  0.00    +0.127 A 
ATOM     12  N   UNL     1       0.401  -0.751  -1.385  0.00  0.00    -0.232 NA
ATOM     13  C   UNL     1       1.486  -0.646  -0.620  0.00  0.00    +0.076 A 
ATOM     14  C   UNL     1       1.484  -1.246   0.642  0.00  0.00    +0.052 A 
ATOM     15  C   UNL     1       0.348  -1.926   1.043  0.00  0.00    +0.047 A 
ATOM     16  N   UNL     1      -0.693  -1.982   0.226  0.00  0.00    -0.237 NA
BRANCH  13  17
ATOM     17  C   UNL     1       2.677   0.096  -1.100  0.00  0.00    +0.014 A 
ATOM     18  C   UNL     1       3.811   0.196  -0.294  0.00  0.00    +0.011 A 
ATOM     19  C   UNL     1       4.916   0.886  -0.747  0.00  0.00    +0.001 A 
ATOM     20  C   UNL     1       4.902   1.479  -1.996  0.00  0.00    +0.001 A 
ATOM     21  C   UNL     1       3.781   1.384  -2.800  0.00  0.00    +0.016 A 
ATOM     22  C   UNL     1       2.670   0.690  -2.361  0.00  0.00    +0.027 A 
ATOM     23 BR   UNL     1       1.141   0.554  -3.465  0.00  0.00    -0.050 Br
ENDBRANCH  13  17
ENDBRANCH   1  15
BRANCH   8  24
ATOM     24  C   UNL     1       0.332  -5.371   0.285  0.00  0.00    -0.098 C 
BRANCH  24  25
ATOM     25  N   UNL     1      -0.755  -6.360   0.297  0.00  0.00    +0.381 N 
ATOM     26  H   UNL     1      -0.384  -7.265   0.541  0.00  0.00    -0.086 HD
ATOM     27  H   UNL     1      -1.450  -6.087   0.976  0.00  0.00    -0.086 HD
BRANCH  25  28
ATOM     28  C   UNL     1      -1.371  -6.426  -1.035  0.00  0.00    -0.047 C 
BRANCH  28  29
ATOM     29  C   UNL     1      -2.486  -7.440  -1.023  0.00  0.00    -0.064 A 
ATOM     30  C   UNL     1      -2.220  -8.762  -1.328  0.00  0.00    +0.003 A 
ATOM     31  C   UNL     1      -3.239  -9.694  -1.318  0.00  0.00    +0.023 A 
ATOM     32  C   UNL     1      -4.533  -9.301  -1.000  0.00  0.00    +0.029 A 
ATOM     33  C   UNL     1      -4.798  -7.972  -0.694  0.00  0.00    +0.023 A 
ATOM     34  C   UNL     1      -3.772  -7.047  -0.701  0.00  0.00    +0.003 A 
BRANCH  32  35
ATOM     35  N   UNL     1      -5.567 -10.241  -0.989  0.00  0.00    -0.336 N 
ATOM     36  C   UNL     1      -5.286 -11.642  -1.313  0.00  0.00    +0.129 C 
ATOM     37  C   UNL     1      -6.931  -9.825  -0.654  0.00  0.00    +0.129 C 
ENDBRANCH  32  35
ENDBRANCH  28  29
ENDBRANCH  25  28
ENDBRANCH  24  25
ENDBRANCH   8  24
TORSDOF 7
