REMARK  Name = ZINC63137027
REMARK  13 active torsions:
REMARK  status: ('A' for Active; 'I' for Inactive)
REMARK    1  A    between atoms: C_1  and  O_2
REMARK    2  A    between atoms: O_2  and  C_3
REMARK    3  A    between atoms: C_5  and  C_13
REMARK    4  A    between atoms: C_7  and  O_11
REMARK    5  A    between atoms: C_8  and  O_9
REMARK    6  A    between atoms: O_9  and  C_10
REMARK    7  A    between atoms: O_11  and  C_12
REMARK    8  A    between atoms: N_32  and  C_35
REMARK    9  A    between atoms: C_35  and  C_36
REMARK   10  A    between atoms: C_36  and  C_37
REMARK   11  A    between atoms: C_37  and  C_38
REMARK   12  A    between atoms: C_38  and  C_39
REMARK   13  A    between atoms: C_39  and  O_40
REMARK                            x       y       z     vdW  Elec       q    Type
REMARK                         _______ _______ _______ _____ _____    ______ ____
ROOT
ATOM      1  C   UNL     1       2.462   0.340   4.203  0.00  0.00    +0.134 C 
ATOM      2  C   UNL     1       3.987   0.321   4.062  0.00  0.00    +0.131 C 
ATOM      3  C   UNL     1       4.443  -1.087   4.419  0.00  0.00    -0.034 C 
ATOM      4  C   UNL     1       5.142  -1.530   3.381  0.00  0.00    -0.001 A 
ATOM      5  C   UNL     1       5.889  -2.780   3.164  0.00  0.00    +0.010 A 
ATOM      6  C   UNL     1       6.491  -2.916   1.953  0.00  0.00    +0.001 A 
ATOM      7  C   UNL     1       6.425  -1.946   0.948  0.00  0.00    +0.002 A 
ATOM      8  C   UNL     1       5.765  -0.766   1.063  0.00  0.00    +0.026 A 
ATOM      9  C   UNL     1       5.096  -0.505   2.294  0.00  0.00    +0.043 A 
ATOM     10  N   UNL     1       4.411   0.555   2.680  0.00  0.00    -0.375 N 
ATOM     11  C   UNL     1       4.039  -1.765   5.706  0.00  0.00    +0.065 C 
ATOM     12  C   UNL     1       2.511  -1.615   5.821  0.00  0.00    +0.167 C 
ATOM     13  N   UNL     1       2.125  -0.238   5.524  0.00  0.00    -0.279 N 
ATOM     14  C   UNL     1       1.475   0.537   6.399  0.00  0.00    +0.234 C 
ATOM     15  O   UNL     1       1.217   1.674   6.063  0.00  0.00    -0.274 OA
ATOM     16  C   UNL     1       1.044   0.102   7.761  0.00  0.00    +0.203 C 
ATOM     17  N   UNL     1       1.404  -1.279   8.036  0.00  0.00    -0.291 N 
ATOM     18  C   UNL     1       2.063  -2.057   7.175  0.00  0.00    +0.237 C 
ATOM     19  O   UNL     1       2.312  -3.195   7.511  0.00  0.00    -0.274 OA
ATOM     20  H   UNL     1       4.214   1.344   2.152  0.00  0.00    +0.160 HD
ENDROOT
BRANCH   1  23
ATOM     21  C   UNL     1       1.577  -2.591   1.989  0.00  0.00    +0.165 A 
ATOM     22  C   UNL     1       2.150  -1.827   2.994  0.00  0.00    +0.055 A 
ATOM     23  C   UNL     1       1.837  -0.486   3.109  0.00  0.00    -0.018 A 
ATOM     24  C   UNL     1       0.952   0.100   2.224  0.00  0.00    +0.055 A 
ATOM     25  C   UNL     1       0.374  -0.657   1.216  0.00  0.00    +0.165 A 
ATOM     26  C   UNL     1       0.691  -2.005   1.093  0.00  0.00    +0.204 A 
BRANCH  21  28
ATOM     27  C   UNL     1       2.803  -4.446   2.832  0.00  0.00    +0.277 C 
ATOM     28  O   UNL     1       1.885  -3.911   1.876  0.00  0.00    -0.491 OA
ENDBRANCH  21  28
BRANCH  26  29
ATOM     29  O   UNL     1       0.130  -2.750   0.101  0.00  0.00    -0.488 OA
ATOM     30  C   UNL     1      -1.109  -3.398   0.398  0.00  0.00    +0.277 C 
ENDBRANCH  26  29
BRANCH  25  31
ATOM     31  O   UNL     1      -0.497  -0.081   0.345  0.00  0.00    -0.491 OA
ATOM     32  C   UNL     1      -0.772   1.310   0.528  0.00  0.00    +0.277 C 
ENDBRANCH  25  31
ENDBRANCH   1  23
BRANCH  17  33
ATOM     33  C   UNL     1       1.024  -1.848   9.332  0.00  0.00    +0.108 C 
BRANCH  33  34
ATOM     34  C   UNL     1      -0.362  -2.485   9.223  0.00  0.00    +0.019 C 
BRANCH  34  35
ATOM     35  C   UNL     1      -0.758  -3.079  10.576  0.00  0.00    +0.004 C 
BRANCH  35  36
ATOM     36  C   UNL     1      -2.145  -3.716  10.467  0.00  0.00    +0.028 C 
BRANCH  36  37
ATOM     37  C   UNL     1      -2.541  -4.310  11.820  0.00  0.00    +0.156 C 
BRANCH  37  38
ATOM     38  O   UNL     1      -3.837  -4.905  11.718  0.00  0.00    -0.395 OA
ATOM     39  H   UNL     1      -4.152  -5.303  12.541  0.00  0.00    +0.209 HD
ENDBRANCH  37  38
ENDBRANCH  36  37
ENDBRANCH  35  36
ENDBRANCH  34  35
ENDBRANCH  33  34
ENDBRANCH  17  33
TORSDOF 10
