REMARK  Name = ZINC40983457
REMARK  11 active torsions:
REMARK  status: ('A' for Active; 'I' for Inactive)
REMARK    1  A    between atoms: C_1  and  C_2
REMARK    2  A    between atoms: C_2  and  C_3
REMARK    3  A    between atoms: C_3  and  C_4
REMARK    4  A    between atoms: C_4  and  S_5
REMARK    5  A    between atoms: S_5  and  C_6
REMARK    6  A    between atoms: C_11  and  C_27
REMARK    7  A    between atoms: C_13  and  C_17
REMARK    8  A    between atoms: C_14  and  C_16
REMARK    9  A    between atoms: N_19  and  C_20
REMARK   10  A    between atoms: C_23  and  C_26
REMARK   11  A    between atoms: C_31  and  O_33
REMARK                            x       y       z     vdW  Elec       q    Type
REMARK                         _______ _______ _______ _____ _____    ______ ____
ROOT
ATOM      1  C   UNL     1       1.619  -4.360  -2.448  0.00  0.00    +0.210 A 
ATOM      2  N   UNL     1       1.030  -5.099  -1.497  0.00  0.00    -0.187 NA
ATOM      3  C   UNL     1       1.168  -6.365  -1.781  0.00  0.00    +0.219 A 
ATOM      4  N   UNL     1       1.857  -6.464  -2.944  0.00  0.00    -0.220 N 
ATOM      5  N   UNL     1       2.135  -5.161  -3.355  0.00  0.00    -0.141 NA
ATOM      6  C   UNL     1       2.193  -7.735  -3.579  0.00  0.00    +0.177 C 
ATOM      7  C   UNL     1       1.929  -8.862  -2.617  0.00  0.00    +0.060 C 
ATOM      8  C   UNL     1       1.242  -8.704  -1.476  0.00  0.00    +0.018 C 
ATOM      9  N   UNL     1       0.732  -7.488  -1.091  0.00  0.00    -0.287 N 
ATOM     10  C   UNL     1       1.021  -9.901  -0.587  0.00  0.00    +0.061 C 
ATOM     11  H   UNL     1       0.092  -7.417  -0.365  0.00  0.00    +0.155 HD
ENDROOT
BRANCH   6  12
ATOM     12  C   UNL     1       1.347  -7.920  -4.813  0.00  0.00    -0.015 A 
ATOM     13  C   UNL     1      -0.032  -7.947  -4.707  0.00  0.00    +0.006 A 
ATOM     14  C   UNL     1      -0.810  -8.116  -5.837  0.00  0.00    +0.004 A 
ATOM     15  C   UNL     1      -0.213  -8.258  -7.074  0.00  0.00    +0.045 A 
ATOM     16  C   UNL     1       1.169  -8.231  -7.183  0.00  0.00    +0.117 A 
ATOM     17  C   UNL     1       1.949  -8.055  -6.048  0.00  0.00    +0.051 A 
BRANCH  16  18
ATOM     18  O   UNL     1       1.760  -8.370  -8.399  0.00  0.00    -0.507 OA
ATOM     19  H   UNL     1       1.904  -7.535  -8.864  0.00  0.00    +0.292 HD
ENDBRANCH  16  18
ENDBRANCH   6  12
BRANCH   7  20
ATOM     20  C   UNL     1       2.429 -10.148  -2.930  0.00  0.00    +0.248 C 
ATOM     21  O   UNL     1       3.615 -10.389  -2.800  0.00  0.00    -0.270 OA
ATOM     22  N   UNL     1       1.591 -11.107  -3.373  0.00  0.00    -0.282 N 
ATOM     23  H   UNL     1       0.659 -10.898  -3.539  0.00  0.00    +0.155 HD
BRANCH  22  24
ATOM     24  C   UNL     1       2.067 -12.403  -3.594  0.00  0.00    +0.034 A 
ATOM     25  C   UNL     1       1.250 -13.497  -3.340  0.00  0.00    +0.023 A 
ATOM     26  C   UNL     1       1.723 -14.776  -3.559  0.00  0.00    +0.005 A 
ATOM     27  C   UNL     1       3.008 -14.968  -4.031  0.00  0.00    -0.050 A 
ATOM     28  C   UNL     1       3.825 -13.881  -4.285  0.00  0.00    +0.005 A 
ATOM     29  C   UNL     1       3.356 -12.599  -4.074  0.00  0.00    +0.023 A 
ATOM     30  C   UNL     1       3.521 -16.365  -4.268  0.00  0.00    +0.044 C 
ENDBRANCH  22  24
ENDBRANCH   7  20
BRANCH   1  31
ATOM     31  S   UNL     1       1.686  -2.599  -2.481  0.00  0.00    -0.084 S 
BRANCH  31  32
ATOM     32  C   UNL     1       0.807  -2.098  -0.976  0.00  0.00    +0.077 C 
BRANCH  32  33
ATOM     33  C   UNL     1       0.791  -0.572  -0.879  0.00  0.00    +0.011 C 
BRANCH  33  35
ATOM     34  C   UNL     1       0.033   1.378   0.488  0.00  0.00    +0.004 C 
ATOM     35  C   UNL     1       0.050  -0.149   0.391  0.00  0.00    -0.003 C 
ENDBRANCH  33  35
ENDBRANCH  32  33
ENDBRANCH  31  32
ENDBRANCH   1  31
TORSDOF 8
