REMARK  Name = ZINC49181127
REMARK  6 active torsions:
REMARK  status: ('A' for Active; 'I' for Inactive)
REMARK    1  A    between atoms: C_1  and  C_2
REMARK    2  A    between atoms: C_6  and  C_24
REMARK    3  A    between atoms: C_8  and  O_22
REMARK    4  A    between atoms: C_11  and  C_13
REMARK    5  A    between atoms: O_22  and  C_23
REMARK    6  A    between atoms: C_24  and  C_25
REMARK                            x       y       z     vdW  Elec       q    Type
REMARK                         _______ _______ _______ _____ _____    ______ ____
ROOT
ATOM      1  C   UNL     1      -0.019   1.526   0.010  0.00  0.00    +0.016 C 
ATOM      2  C   UNL     1       0.002  -0.004   0.002  0.00  0.00    +0.065 C 
ATOM      3  C   UNL     1      -1.402  -0.566   0.121  0.00  0.00    +0.005 A 
ATOM      4  C   UNL     1      -2.427  -0.694  -0.792  0.00  0.00    +0.011 A 
ATOM      5  C   UNL     1      -3.629  -1.261  -0.409  0.00  0.00    -0.040 A 
ATOM      6  C   UNL     1      -3.799  -1.700   0.891  0.00  0.00    +0.053 A 
ATOM      7  C   UNL     1      -2.774  -1.570   1.811  0.00  0.00    +0.162 A 
ATOM      8  C   UNL     1      -1.558  -0.994   1.431  0.00  0.00    +0.166 A 
ATOM      9  O   UNL     1      -0.438  -0.754   2.167  0.00  0.00    -0.480 OA
ATOM     10  C   UNL     1       0.678  -0.555   1.280  0.00  0.00    +0.211 C 
ENDROOT
BRANCH  10  11
ATOM     11  C   UNL     1       1.374  -1.861   0.996  0.00  0.00    -0.003 A 
ATOM     12  C   UNL     1       0.643  -3.032   0.931  0.00  0.00    +0.011 A 
ATOM     13  C   UNL     1       1.278  -4.232   0.670  0.00  0.00    +0.050 A 
ATOM     14  C   UNL     1       2.649  -4.263   0.473  0.00  0.00    +0.166 A 
ATOM     15  C   UNL     1       3.385  -3.083   0.538  0.00  0.00    +0.167 A 
ATOM     16  C   UNL     1       2.742  -1.883   0.794  0.00  0.00    +0.056 A 
ATOM     17  O   UNL     1       4.699  -3.375   0.312  0.00  0.00    -0.453 OA
ATOM     18  C   UNL     1       4.817  -4.796   0.512  0.00  0.00    +0.466 C 
ATOM     19  O   UNL     1       3.502  -5.295   0.205  0.00  0.00    -0.453 OA
ENDBRANCH  10  11
BRANCH   7  20
ATOM     20  O   UNL     1      -2.949  -2.003   3.088  0.00  0.00    -0.491 OA
ATOM     21  C   UNL     1      -4.216  -2.581   3.409  0.00  0.00    +0.277 C 
ENDBRANCH   7  20
BRANCH   5  22
ATOM     22  C   UNL     1      -4.750  -1.401  -1.406  0.00  0.00    +0.061 C 
BRANCH  22  23
ATOM     23  C   UNL     1      -4.636  -2.730  -2.108  0.00  0.00    -0.030 C 
ATOM     24  C   UNL     1      -5.650  -3.559  -2.108  0.00  0.00    +0.004 C 
ENDBRANCH  22  23
ENDBRANCH   5  22
TORSDOF 4
