REMARK  Name = ZINC25155291
REMARK  8 active torsions:
REMARK  status: ('A' for Active; 'I' for Inactive)
REMARK    1  A    between atoms: C_1  and  C_2
REMARK    2  A    between atoms: C_8  and  C_29
REMARK    3  A    between atoms: C_12  and  C_13
REMARK    4  A    between atoms: N_15  and  C_16
REMARK    5  A    between atoms: C_16  and  C_17
REMARK    6  A    between atoms: C_17  and  C_19
REMARK    7  A    between atoms: C_17  and  N_24
REMARK    8  A    between atoms: C_29  and  C_30
REMARK                            x       y       z     vdW  Elec       q    Type
REMARK                         _______ _______ _______ _____ _____    ______ ____
ROOT
ATOM      1  C   UNL     1      -0.251   1.393  -0.044  0.00  0.00    +0.046 C 
ATOM      2  C   UNL     1      -0.043  -0.099  -0.024  0.00  0.00    -0.017 A 
ATOM      3  C   UNL     1       0.083  -0.804  -1.224  0.00  0.00    +0.076 A 
ATOM      4  C   UNL     1       0.045  -0.299  -2.615  0.00  0.00    +0.260 A 
ATOM      5  O   UNL     1      -0.115   0.887  -2.845  0.00  0.00    -0.267 OA
ATOM      6  N   UNL     1       0.193  -1.184  -3.620  0.00  0.00    -0.310 N 
ATOM      7  H   UNL     1       0.170  -0.869  -4.537  0.00  0.00    +0.170 HD
ATOM      8  C   UNL     1       0.372  -2.506  -3.375  0.00  0.00    +0.115 A 
ATOM      9  N   UNL     1       0.411  -2.984  -2.162  0.00  0.00    -0.226 NA
ATOM     10  C   UNL     1       0.276  -2.199  -1.100  0.00  0.00    +0.116 A 
ATOM     11  S   UNL     1       0.270  -2.458   0.656  0.00  0.00    -0.064 S 
ATOM     12  C   UNL     1       0.028  -0.764   1.165  0.00  0.00    +0.079 A 
ENDROOT
BRANCH  12  13
ATOM     13  C   UNL     1      -0.073  -0.222   2.523  0.00  0.00    +0.251 C 
ATOM     14  O   UNL     1      -0.242   0.971   2.692  0.00  0.00    -0.270 OA
ATOM     15  N   UNL     1       0.022  -1.045   3.586  0.00  0.00    -0.312 N 
ATOM     16  H   UNL     1       0.157  -1.997   3.452  0.00  0.00    +0.149 HD
BRANCH  15  17
ATOM     17  C   UNL     1      -0.078  -0.504   4.944  0.00  0.00    +0.097 C 
BRANCH  17  18
ATOM     18  C   UNL     1      -0.042  -1.652   5.955  0.00  0.00    +0.016 C 
BRANCH  18  19
ATOM     19  N   UNL     1      -0.275  -1.123   7.305  0.00  0.00    +0.387 N 
ATOM     20  C   UNL     1      -1.632  -0.524   7.393  0.00  0.00    -0.078 C 
ATOM     21  C   UNL     1      -1.931  -0.544   8.913  0.00  0.00    -0.020 C 
ATOM     22  C   UNL     1      -1.302  -1.880   9.371  0.00  0.00    -0.020 C 
ATOM     23  C   UNL     1      -0.256  -2.222   8.294  0.00  0.00    -0.078 C 
ATOM     24  H   UNL     1       0.425  -0.434   7.535  0.00  0.00    -0.081 HD
ENDBRANCH  18  19
BRANCH  18  25
ATOM     25  C   UNL     1       1.307  -2.323   5.905  0.00  0.00    +0.093 A 
ATOM     26  C   UNL     1       1.593  -3.466   5.256  0.00  0.00    +0.043 A 
ATOM     27  C   UNL     1       2.965  -3.728   5.473  0.00  0.00    +0.041 A 
ATOM     28  C   UNL     1       3.435  -2.730   6.242  0.00  0.00    +0.195 A 
ATOM     29  O   UNL     1       2.428  -1.878   6.495  0.00  0.00    -0.469 OA
ENDBRANCH  18  25
ENDBRANCH  17  18
ENDBRANCH  15  17
ENDBRANCH  12  13
BRANCH   8  30
ATOM     30  C   UNL     1       0.532  -3.450  -4.539  0.00  0.00    +0.109 C 
BRANCH  30  31
ATOM     31  C   UNL     1       0.717  -4.854  -4.025  0.00  0.00    -0.040 A 
ATOM     32  C   UNL     1       1.986  -5.330  -3.756  0.00  0.00    +0.004 A 
ATOM     33  C   UNL     1       2.156  -6.618  -3.285  0.00  0.00    +0.000 A 
ATOM     34  C   UNL     1       1.056  -7.431  -3.081  0.00  0.00    +0.000 A 
ATOM     35  C   UNL     1      -0.214  -6.954  -3.349  0.00  0.00    +0.000 A 
ATOM     36  C   UNL     1      -0.384  -5.664  -3.817  0.00  0.00    +0.004 A 
ENDBRANCH  30  31
ENDBRANCH   8  30
TORSDOF 7
