REMARK  Name = ZINC24310228
REMARK  6 active torsions:
REMARK  status: ('A' for Active; 'I' for Inactive)
REMARK    1  A    between atoms: C_1  and  C_2
REMARK    2  A    between atoms: C_9  and  C_11
REMARK    3  A    between atoms: N_13  and  N_14
REMARK    4  A    between atoms: C_15  and  C_17
REMARK    5  A    between atoms: C_17  and  C_18
REMARK    6  A    between atoms: C_18  and  N_19
REMARK                            x       y       z     vdW  Elec       q    Type
REMARK                         _______ _______ _______ _____ _____    ______ ____
ROOT
ATOM      1  N   UNL     1      -1.065   2.703   7.300  0.00  0.00    -0.234 N 
ATOM      2  C   UNL     1      -0.101   2.459   8.210  0.00  0.00    +0.231 C 
ATOM      3  O   UNL     1       0.954   1.973   7.860  0.00  0.00    -0.274 OA
ATOM      4  H   UNL     1      -2.022   3.143   7.617  0.00  0.00    +0.173 HD
ENDROOT
BRANCH   1   7
ATOM      5  C   UNL     1      -1.813   2.638   5.041  0.00  0.00    +0.267 C 
ATOM      6  O   UNL     1      -2.872   3.125   5.392  0.00  0.00    -0.268 OA
ATOM      7  N   UNL     1      -0.849   2.394   5.950  0.00  0.00    -0.230 N 
ATOM      8  H   UNL     1       0.108   1.954   5.633  0.00  0.00    +0.173 HD
BRANCH   5  16
ATOM      9  C   UNL     1      -2.989   1.574  -2.366  0.00  0.00    +0.008 C 
ATOM     10  C   UNL     1      -2.260   1.319  -1.046  0.00  0.00    -0.009 C 
ATOM     11  C   UNL     1      -0.766   1.600  -1.228  0.00  0.00    +0.009 C 
ATOM     12  C   UNL     1      -0.013   1.086   0.008  0.00  0.00    +0.043 C 
ATOM     13  C   UNL     1      -0.724   1.574   1.232  0.00  0.00    -0.006 A 
ATOM     14  C   UNL     1      -1.985   2.096   1.298  0.00  0.00    -0.036 A 
ATOM     15  C   UNL     1      -2.435   2.483   2.550  0.00  0.00    +0.024 A 
ATOM     16  C   UNL     1      -1.587   2.315   3.629  0.00  0.00    +0.076 A 
ATOM     17  S   UNL     1      -0.146   1.603   2.854  0.00  0.00    -0.088 S 
ATOM     18  C   UNL     1      -2.834   2.233   0.037  0.00  0.00    +0.039 C 
ENDBRANCH   5  16
ENDBRANCH   1   7
BRANCH   2  19
ATOM     19  C   UNL     1      -0.333   2.791   9.661  0.00  0.00    +0.117 C 
BRANCH  19  20
ATOM     20  C   UNL     1       0.909   2.419  10.474  0.00  0.00    +0.127 C 
BRANCH  20  21
ATOM     21  N   UNL     1       0.683   2.741  11.885  0.00  0.00    -0.224 N 
ATOM     22  C   UNL     1       0.151   1.886  12.783  0.00  0.00    +0.247 C 
ATOM     23  O   UNL     1      -0.217   0.749  12.583  0.00  0.00    -0.273 OA
ATOM     24  C   UNL     1       0.111   2.645  14.089  0.00  0.00    +0.113 C 
ATOM     25  C   UNL     1       0.970   1.946  15.137  0.00  0.00    +0.035 C 
ATOM     26  C   UNL     1       0.939   2.744  16.442  0.00  0.00    +0.003 C 
ATOM     27  C   UNL     1      -0.506   2.857  16.936  0.00  0.00    +0.000 C 
ATOM     28  C   UNL     1      -1.349   3.582  15.885  0.00  0.00    +0.003 C 
ATOM     29  C   UNL     1      -1.327   2.788  14.577  0.00  0.00    +0.035 C 
ATOM     30  N   UNL     1       0.674   3.960  13.755  0.00  0.00    -0.285 N 
ATOM     31  C   UNL     1       0.985   3.919  12.445  0.00  0.00    +0.309 C 
ATOM     32  O   UNL     1       1.480   4.849  11.839  0.00  0.00    -0.252 OA
ATOM     33  H   UNL     1       0.763   4.733  14.532  0.00  0.00    +0.151 HD
ENDBRANCH  20  21
ENDBRANCH  19  20
ENDBRANCH   2  19
TORSDOF 5
