REMARK  Name = ZINC55650538
REMARK  10 active torsions:
REMARK  status: ('A' for Active; 'I' for Inactive)
REMARK    1  A    between atoms: C_1  and  C_2
REMARK    2  A    between atoms: C_4  and  O_24
REMARK    3  A    between atoms: C_5  and  C_23
REMARK    4  A    between atoms: C_7  and  S_8
REMARK    5  A    between atoms: S_8  and  N_11
REMARK    6  A    between atoms: N_11  and  C_12
REMARK    7  A    between atoms: C_16  and  S_19
REMARK    8  A    between atoms: C_17  and  C_18
REMARK    9  A    between atoms: S_19  and  N_22
REMARK   10  A    between atoms: O_24  and  C_25
REMARK                            x       y       z     vdW  Elec       q    Type
REMARK                         _______ _______ _______ _____ _____    ______ ____
ROOT
ATOM      1  N   UNL     1       1.176   1.032   2.914  0.00  0.00    -0.216 N 
ATOM      2  H   UNL     1       1.870   0.868   3.572  0.00  0.00    +0.174 HD
ENDROOT
BRANCH   1   3
ATOM      3  C   UNL     1       1.215   2.189   2.132  0.00  0.00    +0.053 A 
ATOM      4  C   UNL     1       0.034   2.827   1.774  0.00  0.00    +0.025 A 
ATOM      5  C   UNL     1       0.076   3.971   1.002  0.00  0.00    +0.004 A 
ATOM      6  C   UNL     1       1.292   4.481   0.584  0.00  0.00    +0.029 A 
ATOM      7  C   UNL     1       2.469   3.849   0.939  0.00  0.00    +0.110 A 
ATOM      8  C   UNL     1       2.434   2.708   1.716  0.00  0.00    -0.002 A 
ATOM      9  C   UNL     1       3.719   2.023   2.108  0.00  0.00    +0.048 C 
BRANCH   7  10
ATOM     10  S   UNL     1       4.015   4.503   0.403  0.00  0.00    +0.056 S 
ATOM     11  O   UNL     1       4.747   3.416  -0.147  0.00  0.00    -0.153 OA
ATOM     12  O   UNL     1       3.723   5.679  -0.339  0.00  0.00    -0.153 OA
BRANCH  10  13
ATOM     13  N   UNL     1       4.836   4.989   1.757  0.00  0.00    -0.204 NA
ATOM     14  H   UNL     1       4.434   4.881   2.633  0.00  0.00    +0.144 HD
ATOM     15  H   UNL     1       5.719   5.381   1.673  0.00  0.00    +0.144 HD
ENDBRANCH  10  13
ENDBRANCH   7  10
ENDBRANCH   1   3
BRANCH   1  16
ATOM     16  S   UNL     1      -0.053  -0.059   2.718  0.00  0.00    +0.073 S 
ATOM     17  O   UNL     1      -1.267   0.668   2.852  0.00  0.00    -0.150 OA
ATOM     18  O   UNL     1       0.260  -1.176   3.538  0.00  0.00    -0.150 OA
BRANCH  16  25
ATOM     19  C   UNL     1       2.249  -1.630   1.548  0.00  0.00    +0.046 C 
ATOM     20  C   UNL     1       1.111  -1.337   0.606  0.00  0.00    -0.020 A 
ATOM     21  C   UNL     1       1.163  -1.786  -0.700  0.00  0.00    +0.051 A 
ATOM     22  C   UNL     1       0.114  -1.516  -1.567  0.00  0.00    +0.123 A 
ATOM     23  C   UNL     1      -0.985  -0.795  -1.120  0.00  0.00    -0.007 A 
ATOM     24  C   UNL     1      -1.031  -0.349   0.186  0.00  0.00    +0.036 A 
ATOM     25  C   UNL     1       0.013  -0.624   1.050  0.00  0.00    +0.112 A 
ATOM     26  C   UNL     1      -2.125  -0.499  -2.060  0.00  0.00    +0.047 C 
BRANCH  22  27
ATOM     27  O   UNL     1       0.163  -1.956  -2.852  0.00  0.00    -0.495 OA
ATOM     28  C   UNL     1       1.324  -2.691  -3.242  0.00  0.00    +0.277 C 
ENDBRANCH  22  27
ENDBRANCH  16  25
ENDBRANCH   1  16
TORSDOF 6
