REMARK  Name = ZINC13981343
REMARK  8 active torsions:
REMARK  status: ('A' for Active; 'I' for Inactive)
REMARK    1  A    between atoms: C_5  and  C_7
REMARK    2  A    between atoms: C_8  and  C_9
REMARK    3  A    between atoms: N_11  and  C_12
REMARK    4  A    between atoms: C_12  and  N_14
REMARK    5  A    between atoms: N_14  and  C_15
REMARK    6  A    between atoms: C_18  and  S_21
REMARK    7  A    between atoms: S_21  and  N_24
REMARK    8  A    between atoms: N_24  and  C_25
REMARK                            x       y       z     vdW  Elec       q    Type
REMARK                         _______ _______ _______ _____ _____    ______ ____
ROOT
ATOM      1  N   UNL     1      -2.345   0.934   0.018  0.00  0.00    -0.297 N 
ATOM      2  H   UNL     1      -1.619   1.193   0.607  0.00  0.00    +0.154 HD
ENDROOT
BRANCH   1   3
ATOM      3  C   UNL     1      -3.518   1.696  -0.023  0.00  0.00    +0.033 A 
ATOM      4  C   UNL     1      -3.445   3.082  -0.086  0.00  0.00    +0.025 A 
ATOM      5  C   UNL     1      -4.604   3.831  -0.133  0.00  0.00    +0.030 A 
ATOM      6  C   UNL     1      -5.836   3.203  -0.105  0.00  0.00    +0.105 A 
ATOM      7  C   UNL     1      -5.912   1.824  -0.035  0.00  0.00    +0.030 A 
ATOM      8  C   UNL     1      -4.756   1.069   0.005  0.00  0.00    +0.025 A 
BRANCH   6   9
ATOM      9  S   UNL     1      -7.313   4.163  -0.157  0.00  0.00    +0.059 S 
ATOM     10  O   UNL     1      -6.973   5.399  -0.769  0.00  0.00    -0.153 OA
ATOM     11  O   UNL     1      -8.332   3.314  -0.668  0.00  0.00    -0.153 OA
BRANCH   9  12
ATOM     12  N   UNL     1      -7.727   4.509   1.409  0.00  0.00    -0.187 NA
ATOM     13  H   UNL     1      -8.548   4.153   1.784  0.00  0.00    +0.148 HD
BRANCH  12  14
ATOM     14  C   UNL     1      -6.854   5.354   2.228  0.00  0.00    +0.077 C 
ATOM     15  C   UNL     1      -5.919   4.470   3.056  0.00  0.00    +0.020 C 
ATOM     16  C   UNL     1      -5.008   5.352   3.911  0.00  0.00    +0.002 C 
ATOM     17  C   UNL     1      -5.861   6.210   4.848  0.00  0.00    +0.000 C 
ATOM     18  C   UNL     1      -6.795   7.094   4.020  0.00  0.00    +0.002 C 
ATOM     19  C   UNL     1      -7.707   6.212   3.165  0.00  0.00    +0.020 C 
ENDBRANCH  12  14
ENDBRANCH   9  12
ENDBRANCH   6   9
ENDBRANCH   1   3
BRANCH   1  20
ATOM     20  C   UNL     1      -2.225  -0.160  -0.760  0.00  0.00    +0.141 C 
ATOM     21  S   UNL     1      -3.546  -0.679  -1.717  0.00  0.00    -0.018 S 
BRANCH  20  24
ATOM     22  C   UNL     1      -0.946  -1.942  -1.558  0.00  0.00    +0.242 C 
ATOM     23  O   UNL     1      -1.885  -2.311  -2.239  0.00  0.00    -0.270 OA
ATOM     24  N   UNL     1      -1.065  -0.845  -0.784  0.00  0.00    -0.264 N 
ATOM     25  H   UNL     1      -0.316  -0.551  -0.242  0.00  0.00    +0.157 HD
BRANCH  22  27
ATOM     26  C   UNL     1       0.430  -3.788  -2.355  0.00  0.00    +0.014 C 
ATOM     27  C   UNL     1       0.311  -2.689  -1.580  0.00  0.00    +0.068 C 
BRANCH  26  32
ATOM     28  C   UNL     1       3.958  -4.828  -1.622  0.00  0.00    +0.001 A 
ATOM     29  C   UNL     1       4.076  -5.955  -2.418  0.00  0.00    +0.001 A 
ATOM     30  C   UNL     1       3.012  -6.378  -3.193  0.00  0.00    +0.020 A 
ATOM     31  C   UNL     1       1.820  -5.682  -3.175  0.00  0.00    +0.048 A 
ATOM     32  C   UNL     1       1.694  -4.539  -2.377  0.00  0.00    -0.007 A 
ATOM     33  C   UNL     1       2.776  -4.119  -1.596  0.00  0.00    +0.009 A 
ATOM     34 CL   UNL     1       0.483  -6.219  -4.143  0.00  0.00    -0.083 Cl
ENDBRANCH  26  32
ENDBRANCH  22  27
ENDBRANCH  20  24
ENDBRANCH   1  20
TORSDOF 8
