REMARK  Name = ZINC01804302
REMARK  9 active torsions:
REMARK  status: ('A' for Active; 'I' for Inactive)
REMARK    1  A    between atoms: C_1  and  O_2
REMARK    2  A    between atoms: O_2  and  C_3
REMARK    3  A    between atoms: C_6  and  C_11
REMARK    4  A    between atoms: C_8  and  O_9
REMARK    5  A    between atoms: O_9  and  C_10
REMARK    6  A    between atoms: C_17  and  C_19
REMARK    7  A    between atoms: C_22  and  O_25
REMARK    8  A    between atoms: O_25  and  C_26
REMARK    9  A    between atoms: C_26  and  C_27
REMARK                            x       y       z     vdW  Elec       q    Type
REMARK                         _______ _______ _______ _____ _____    ______ ____
ROOT
ATOM      1  C   UNL     1       2.507  -2.501  -4.386  0.00  0.00    +0.294 C 
ATOM      2  N   UNL     1       3.551  -1.647  -4.908  0.00  0.00    -0.175 NA
ATOM      3  C   UNL     1       4.314  -2.408  -5.946  0.00  0.00    +0.138 C 
ATOM      4  C   UNL     1       5.429  -1.436  -6.216  0.00  0.00    +0.023 C 
ATOM      5  C   UNL     1       5.532  -0.720  -5.072  0.00  0.00    +0.047 C 
ATOM      6  N   UNL     1       4.562  -1.173  -4.145  0.00  0.00    -0.273 N 
ATOM      7  C   UNL     1       3.345  -2.669  -7.052  0.00  0.00    +0.018 A 
ATOM      8  C   UNL     1       3.751  -2.756  -8.366  0.00  0.00    +0.024 A 
ATOM      9  C   UNL     1       2.825  -3.011  -9.363  0.00  0.00    +0.018 A 
ATOM     10  C   UNL     1       1.491  -3.179  -9.037  0.00  0.00    +0.019 A 
ATOM     11  C   UNL     1       1.080  -3.088  -7.723  0.00  0.00    +0.047 A 
ATOM     12  C   UNL     1       2.002  -2.826  -6.715  0.00  0.00    +0.128 A 
ATOM     13  O   UNL     1       1.556  -2.698  -5.448  0.00  0.00    -0.468 OA
ATOM     14 BR   UNL     1       3.383  -3.130 -11.166  0.00  0.00    -0.050 Br
ATOM     15  H   UNL     1       4.612  -1.147  -3.177  0.00  0.00    +0.167 HD
ENDROOT
BRANCH   1  19
ATOM     16  C   UNL     1       0.606  -0.608  -1.056  0.00  0.00    +0.162 A 
ATOM     17  C   UNL     1       1.173   0.159  -2.062  0.00  0.00    +0.050 A 
ATOM     18  C   UNL     1       1.787  -0.456  -3.137  0.00  0.00    +0.012 A 
ATOM     19  C   UNL     1       1.837  -1.836  -3.212  0.00  0.00    +0.013 A 
ATOM     20  C   UNL     1       1.273  -2.606  -2.212  0.00  0.00    +0.058 A 
ATOM     21  C   UNL     1       0.662  -1.996  -1.129  0.00  0.00    +0.162 A 
BRANCH  16  23
ATOM     22  C   UNL     1      -0.017   1.425   0.010  0.00  0.00    +0.277 C 
ATOM     23  O   UNL     1       0.002  -0.004   0.002  0.00  0.00    -0.491 OA
ENDBRANCH  16  23
BRANCH  21  24
ATOM     24  O   UNL     1       0.112  -2.753  -0.142  0.00  0.00    -0.491 OA
ATOM     25  C   UNL     1       0.206  -4.171  -0.283  0.00  0.00    +0.277 C 
ENDBRANCH  21  24
ENDBRANCH   1  19
BRANCH   5  26
ATOM     26  C   UNL     1       6.508   0.366  -4.826  0.00  0.00    -0.003 A 
ATOM     27  C   UNL     1       7.416   0.728  -5.822  0.00  0.00    +0.013 A 
ATOM     28  C   UNL     1       8.323   1.740  -5.590  0.00  0.00    +0.046 A 
ATOM     29  C   UNL     1       8.334   2.398  -4.368  0.00  0.00    +0.121 A 
ATOM     30  C   UNL     1       7.433   2.041  -3.374  0.00  0.00    +0.046 A 
ATOM     31  C   UNL     1       6.518   1.034  -3.602  0.00  0.00    +0.013 A 
BRANCH  29  32
ATOM     32  O   UNL     1       9.230   3.395  -4.143  0.00  0.00    -0.488 OA
BRANCH  32  33
ATOM     33  C   UNL     1       9.186   4.030  -2.863  0.00  0.00    +0.256 C 
BRANCH  33  34
ATOM     34  C   UNL     1      10.245   5.101  -2.797  0.00  0.00    +0.006 C 
ATOM     35  C   UNL     1       9.954   6.279  -2.303  0.00  0.00    +0.007 C 
ENDBRANCH  33  34
ENDBRANCH  32  33
ENDBRANCH  29  32
ENDBRANCH   5  26
TORSDOF 7
