REMARK  Name = ZINC01611821
REMARK  19 active torsions:
REMARK  status: ('A' for Active; 'I' for Inactive)
REMARK    1  A    between atoms: C_1  and  C_2
REMARK    2  A    between atoms: C_2  and  C_3
REMARK    3  A    between atoms: C_3  and  C_5
REMARK    4  A    between atoms: C_3  and  C_6
REMARK    5  A    between atoms: C_6  and  C_8
REMARK    6  A    between atoms: C_9  and  O_35
REMARK    7  A    between atoms: C_10  and  C_25
REMARK    8  A    between atoms: C_11  and  O_24
REMARK    9  A    between atoms: C_18  and  C_19
REMARK   10  A    between atoms: C_19  and  C_21
REMARK   11  A    between atoms: C_19  and  O_23
REMARK   12  A    between atoms: C_21  and  C_22
REMARK   13  A    between atoms: C_25  and  C_26
REMARK   14  A    between atoms: C_27  and  C_28
REMARK   15  A    between atoms: C_27  and  C_29
REMARK   16  A    between atoms: C_29  and  C_30
REMARK   17  A    between atoms: C_30  and  C_31
REMARK   18  A    between atoms: C_32  and  C_33
REMARK   19  A    between atoms: C_32  and  C_34
REMARK                            x       y       z     vdW  Elec       q    Type
REMARK                         _______ _______ _______ _____ _____    ______ ____
ROOT
ATOM      1  C   UNL     1       0.208   5.119   6.066  0.00  0.00    +0.102 A 
ATOM      2  C   UNL     1       1.203   5.712   5.268  0.00  0.00    +0.138 A 
ATOM      3  C   UNL     1       1.530   5.166   4.036  0.00  0.00    +0.041 A 
ATOM      4  C   UNL     1       0.884   4.032   3.578  0.00  0.00    +0.135 A 
ATOM      5  C   UNL     1      -0.115   3.422   4.362  0.00  0.00    +0.066 A 
ATOM      6  C   UNL     1      -0.456   3.966   5.610  0.00  0.00    +0.157 A 
ATOM      7  O   UNL     1      -1.412   3.385   6.362  0.00  0.00    -0.421 OA
ATOM      8  C   UNL     1      -2.053   2.283   5.935  0.00  0.00    +0.338 A 
ATOM      9  O   UNL     1      -2.912   1.779   6.636  0.00  0.00    -0.245 OA
ATOM     10  C   UNL     1      -1.748   1.706   4.686  0.00  0.00    +0.099 A 
ATOM     11  C   UNL     1      -0.786   2.260   3.903  0.00  0.00    +0.002 A 
ENDROOT
BRANCH   1  12
ATOM     12  C   UNL     1      -0.135   5.698   7.364  0.00  0.00    +0.173 C 
ATOM     13  O   UNL     1      -1.060   6.479   7.454  0.00  0.00    -0.292 OA
BRANCH  12  14
ATOM     14  C   UNL     1       0.660   5.327   8.589  0.00  0.00    +0.057 C 
ATOM     15  C   UNL     1       1.766   6.361   8.811  0.00  0.00    +0.016 C 
BRANCH  14  17
ATOM     16  C   UNL     1       0.515   4.801  11.027  0.00  0.00    +0.004 C 
ATOM     17  C   UNL     1      -0.264   5.298   9.807  0.00  0.00    +0.008 C 
ENDBRANCH  14  17
ENDBRANCH  12  14
ENDBRANCH   1  12
BRANCH   4  18
ATOM     18  O   UNL     1       1.212   3.507   2.373  0.00  0.00    -0.506 OA
ATOM     19  H   UNL     1       0.695   3.860   1.636  0.00  0.00    +0.292 HD
ENDBRANCH   4  18
BRANCH   2  20
ATOM     20  O   UNL     1       1.844   6.822   5.704  0.00  0.00    -0.506 OA
ATOM     21  H   UNL     1       1.419   7.651   5.443  0.00  0.00    +0.292 HD
ENDBRANCH   2  20
BRANCH  11  22
ATOM     22  C   UNL     1      -0.441   1.653   2.567  0.00  0.00    +0.145 C 
BRANCH  22  23
ATOM     23  C   UNL     1      -1.200   2.390   1.462  0.00  0.00    +0.033 C 
ATOM     24  C   UNL     1      -0.756   1.859   0.097  0.00  0.00    +0.007 C 
ENDBRANCH  22  23
BRANCH  22  25
ATOM     25  O   UNL     1      -0.812   0.273   2.561  0.00  0.00    -0.387 OA
ATOM     26  H   UNL     1      -1.755   0.119   2.709  0.00  0.00    +0.210 HD
ENDBRANCH  22  25
ENDBRANCH  11  22
BRANCH   3  27
ATOM     27  C   UNL     1       2.598   5.812   3.191  0.00  0.00    +0.069 C 
BRANCH  27  28
ATOM     28  C   UNL     1       1.969   6.840   2.287  0.00  0.00    -0.023 C 
ATOM     29  C   UNL     1       2.419   8.070   2.281  0.00  0.00    -0.076 C 
ATOM     30  C   UNL     1       3.630   8.433   3.101  0.00  0.00    +0.039 C 
BRANCH  29  31
ATOM     31  C   UNL     1       1.726   9.123   1.454  0.00  0.00    +0.034 C 
BRANCH  31  32
ATOM     32  C   UNL     1       0.725   9.881   2.329  0.00  0.00    +0.031 C 
BRANCH  32  33
ATOM     33  C   UNL     1       0.032  10.933   1.502  0.00  0.00    -0.028 C 
ATOM     34  C   UNL     1      -1.276  10.973   1.455  0.00  0.00    -0.080 C 
ATOM     35  C   UNL     1      -2.090  10.040   2.315  0.00  0.00    +0.038 C 
ATOM     36  C   UNL     1      -1.968  11.951   0.541  0.00  0.00    +0.038 C 
ENDBRANCH  32  33
ENDBRANCH  31  32
ENDBRANCH  29  31
ENDBRANCH  27  28
ENDBRANCH   3  27
TORSDOF 13
