REMARK  Name = ZINC63646842
REMARK  7 active torsions:
REMARK  status: ('A' for Active; 'I' for Inactive)
REMARK    1  A    between atoms: C_1  and  O_2
REMARK    2  A    between atoms: O_2  and  C_3
REMARK    3  A    between atoms: C_8  and  C_9
REMARK    4  A    between atoms: C_12  and  S_15
REMARK    5  A    between atoms: S_15  and  C_16
REMARK    6  A    between atoms: C_16  and  C_17
REMARK    7  A    between atoms: C_25  and  C_28
REMARK                            x       y       z     vdW  Elec       q    Type
REMARK                         _______ _______ _______ _____ _____    ______ ____
ROOT
ATOM      1  S   UNL     1      -0.810  -6.252   1.558  0.00  0.00    -0.080 S 
ENDROOT
BRANCH   1   5
ATOM      2  C   UNL     1       0.064  -2.829  -0.053  0.00  0.00    +0.186 A 
ATOM      3  N   UNL     1       0.055  -4.170  -0.014  0.00  0.00    -0.201 NA
ATOM      4  H   UNL     1      -1.431  -3.472   2.610  0.00  0.00    +0.191 HD
ATOM      5  C   UNL     1      -0.555  -4.576   1.077  0.00  0.00    +0.185 A 
ATOM      6  N   UNL     1      -0.955  -3.484   1.765  0.00  0.00    -0.253 N 
ATOM      7  N   UNL     1      -0.540  -2.369   1.019  0.00  0.00    -0.151 NA
BRANCH   2  13
ATOM      8  C   UNL     1       0.606  -0.607  -1.055  0.00  0.00    +0.131 A 
ATOM      9  C   UNL     1       1.173   0.159  -2.062  0.00  0.00    +0.046 A 
ATOM     10  C   UNL     1       1.786  -0.456  -3.137  0.00  0.00    +0.004 A 
ATOM     11  C   UNL     1       1.838  -1.836  -3.215  0.00  0.00    +0.001 A 
ATOM     12  C   UNL     1       1.277  -2.611  -2.220  0.00  0.00    +0.015 A 
ATOM     13  C   UNL     1       0.662  -2.002  -1.129  0.00  0.00    +0.062 A 
BRANCH   8  15
ATOM     14  C   UNL     1      -0.017   1.425   0.010  0.00  0.00    +0.277 C 
ATOM     15  O   UNL     1       0.002  -0.004   0.002  0.00  0.00    -0.494 OA
ENDBRANCH   8  15
ENDBRANCH   2  13
ENDBRANCH   1   5
BRANCH   1  16
ATOM     16  C   UNL     1      -0.046  -7.213   0.222  0.00  0.00    +0.133 C 
BRANCH  16  17
ATOM     17  C   UNL     1      -0.195  -8.684   0.512  0.00  0.00    +0.060 A 
ATOM     18  C   UNL     1      -1.102  -9.438  -0.174  0.00  0.00    +0.096 A 
ATOM     19  C   UNL     1      -1.215 -10.806   0.097  0.00  0.00    +0.272 A 
ATOM     20  O   UNL     1      -2.031 -11.482  -0.507  0.00  0.00    -0.266 OA
ATOM     21  N   UNL     1      -0.409 -11.386   1.039  0.00  0.00    -0.206 N 
ATOM     22  C   UNL     1       0.444 -10.546   1.706  0.00  0.00    +0.191 A 
ATOM     23  N   UNL     1       0.561  -9.271   1.440  0.00  0.00    -0.226 NA
ATOM     24  S   UNL     1       1.243 -11.592   2.912  0.00  0.00    -0.062 S 
ATOM     25  C   UNL     1       0.135 -13.050   2.691  0.00  0.00    +0.156 C 
ATOM     26  N   UNL     1      -0.390 -12.719   1.341  0.00  0.00    -0.266 N 
ATOM     27  H   UNL     1      -1.297 -13.136   1.193  0.00  0.00    +0.168 HD
BRANCH  25  28
ATOM     28  C   UNL     1       0.923 -14.361   2.685  0.00  0.00    +0.021 C 
ATOM     29  C   UNL     1       0.368 -15.524   3.510  0.00  0.00    +0.006 C 
ATOM     30  C   UNL     1       1.615 -14.776   3.985  0.00  0.00    +0.006 C 
ENDBRANCH  25  28
ENDBRANCH  16  17
ENDBRANCH   1  16
TORSDOF 6
