REMARK  Name = ZINC64340215
REMARK  12 active torsions:
REMARK  status: ('A' for Active; 'I' for Inactive)
REMARK    1  A    between atoms: C_1  and  C_2
REMARK    2  A    between atoms: C_2  and  C_4
REMARK    3  A    between atoms: C_2  and  N_21
REMARK    4  A    between atoms: N_6  and  N_7
REMARK    5  A    between atoms: C_8  and  C_10
REMARK    6  A    between atoms: C_13  and  C_15
REMARK    7  A    between atoms: N_21  and  S_22
REMARK    8  A    between atoms: S_22  and  C_25
REMARK    9  A    between atoms: C_28  and  C_31
REMARK   10  A    between atoms: C_31  and  C_32
REMARK   11  A    between atoms: C_31  and  C_33
REMARK   12  A    between atoms: C_31  and  C_34
REMARK                            x       y       z     vdW  Elec       q    Type
REMARK                         _______ _______ _______ _____ _____    ______ ____
ROOT
ATOM      1  C   UNL     1      -1.412  -0.526   0.013  0.00  0.00    +0.247 C 
ATOM      2  O   UNL     1      -1.790  -1.233   0.922  0.00  0.00    -0.273 OA
ATOM      3  N   UNL     1      -2.256  -0.206  -0.988  0.00  0.00    -0.233 N 
ATOM      4  H   UNL     1      -1.953   0.360  -1.716  0.00  0.00    +0.173 HD
ENDROOT
BRANCH   3   5
ATOM      5  N   UNL     1      -3.570  -0.691  -0.978  0.00  0.00    -0.229 N 
ATOM      6  C   UNL     1      -4.414  -0.371  -1.980  0.00  0.00    +0.276 C 
ATOM      7  O   UNL     1      -4.034   0.339  -2.892  0.00  0.00    -0.267 OA
ATOM      8  H   UNL     1      -3.873  -1.257  -0.251  0.00  0.00    +0.173 HD
BRANCH   6   9
ATOM      9  C   UNL     1      -5.790  -0.879  -1.969  0.00  0.00    +0.132 C 
ATOM     10  N   UNL     1      -6.351  -1.641  -1.067  0.00  0.00    -0.148 NA
ATOM     11  N   UNL     1      -7.568  -1.935  -1.308  0.00  0.00    -0.153 NA
ATOM     12  C   UNL     1      -8.037  -1.419  -2.420  0.00  0.00    +0.077 C 
ATOM     13  C   UNL     1      -6.877  -0.628  -3.002  0.00  0.00    +0.120 C 
BRANCH  12  14
ATOM     14  C   UNL     1      -9.388  -1.568  -2.975  0.00  0.00    -0.002 A 
ATOM     15  C   UNL     1      -9.723  -0.949  -4.186  0.00  0.00    +0.010 A 
ATOM     16  C   UNL     1     -10.993  -1.095  -4.701  0.00  0.00    +0.001 A 
ATOM     17  C   UNL     1     -11.936  -1.850  -4.025  0.00  0.00    +0.000 A 
ATOM     18  C   UNL     1     -11.613  -2.465  -2.828  0.00  0.00    +0.001 A 
ATOM     19  C   UNL     1     -10.347  -2.335  -2.301  0.00  0.00    +0.010 A 
ENDBRANCH  12  14
ENDBRANCH   6   9
ENDBRANCH   3   5
BRANCH   1  21
ATOM     20  C   UNL     1      -0.019   1.526   0.010  0.00  0.00    +0.035 C 
ATOM     21  C   UNL     1       0.002  -0.004   0.002  0.00  0.00    +0.160 C 
BRANCH  21  22
ATOM     22  N   UNL     1       0.711  -0.489   1.189  0.00  0.00    -0.178 NA
ATOM     23  H   UNL     1       0.236  -0.593   2.029  0.00  0.00    +0.149 HD
BRANCH  22  24
ATOM     24  S   UNL     1       2.322  -0.861   1.097  0.00  0.00    +0.059 S 
ATOM     25  O   UNL     1       2.719  -1.271   2.398  0.00  0.00    -0.153 OA
ATOM     26  O   UNL     1       2.483  -1.690  -0.045  0.00  0.00    -0.153 OA
BRANCH  24  27
ATOM     27  C   UNL     1       3.183   0.638   0.757  0.00  0.00    +0.105 A 
ATOM     28  C   UNL     1       3.403   1.027  -0.551  0.00  0.00    +0.029 A 
ATOM     29  C   UNL     1       4.079   2.203  -0.819  0.00  0.00    +0.006 A 
ATOM     30  C   UNL     1       4.535   2.990   0.222  0.00  0.00    -0.042 A 
ATOM     31  C   UNL     1       4.315   2.601   1.530  0.00  0.00    +0.006 A 
ATOM     32  C   UNL     1       3.635   1.427   1.798  0.00  0.00    +0.029 A 
BRANCH  30  33
ATOM     33  C   UNL     1       5.273   4.271  -0.069  0.00  0.00    -0.013 C 
ATOM     34  C   UNL     1       4.370   5.208  -0.873  0.00  0.00    +0.015 C 
ATOM     35  C   UNL     1       5.664   4.945   1.248  0.00  0.00    +0.015 C 
ATOM     36  C   UNL     1       6.534   3.961  -0.877  0.00  0.00    +0.015 C 
ENDBRANCH  30  33
ENDBRANCH  24  27
ENDBRANCH  22  24
ENDBRANCH  21  22
ENDBRANCH   1  21
TORSDOF 8
