REMARK  Name = ZINC35531332
REMARK  6 active torsions:
REMARK  status: ('A' for Active; 'I' for Inactive)
REMARK    1  A    between atoms: C_1  and  C_2
REMARK    2  A    between atoms: C_2  and  C_19
REMARK    3  A    between atoms: N_5  and  S_8
REMARK    4  A    between atoms: S_8  and  C_11
REMARK    5  A    between atoms: N_21  and  C_22
REMARK    6  A    between atoms: C_22  and  C_23
REMARK                            x       y       z     vdW  Elec       q    Type
REMARK                         _______ _______ _______ _____ _____    ______ ____
ROOT
ATOM      1  C   UNL     1      -0.019   1.526   0.010  0.00  0.00    +0.021 C 
ATOM      2  C   UNL     1       0.002  -0.004   0.002  0.00  0.00    +0.047 C 
ATOM      3  C   UNL     1       0.717  -0.497  -1.258  0.00  0.00    +0.033 C 
ATOM      4  C   UNL     1       0.705  -2.029  -1.280  0.00  0.00    +0.110 C 
ATOM      5  N   UNL     1       1.285  -2.525  -0.025  0.00  0.00    -0.177 NA
ATOM      6  C   UNL     1       0.731  -2.043   1.248  0.00  0.00    +0.110 C 
ATOM      7  C   UNL     1       0.742  -0.511   1.242  0.00  0.00    +0.033 C 
ENDROOT
BRANCH   2   8
ATOM      8  C   UNL     1      -1.412  -0.525   0.013  0.00  0.00    +0.219 C 
ATOM      9  O   UNL     1      -1.790  -1.233   0.923  0.00  0.00    -0.275 OA
ATOM     10  N   UNL     1      -2.256  -0.206  -0.987  0.00  0.00    -0.311 N 
ATOM     11  H   UNL     1      -1.954   0.360  -1.715  0.00  0.00    +0.149 HD
BRANCH  10  12
ATOM     12  C   UNL     1      -3.631  -0.712  -0.976  0.00  0.00    +0.139 C 
BRANCH  12  13
ATOM     13  C   UNL     1      -4.360  -0.213  -2.197  0.00  0.00    -0.027 A 
ATOM     14  C   UNL     1      -5.042   0.989  -2.149  0.00  0.00    +0.009 A 
ATOM     15  C   UNL     1      -5.712   1.451  -3.266  0.00  0.00    +0.050 A 
ATOM     16  C   UNL     1      -5.702   0.710  -4.437  0.00  0.00    +0.166 A 
ATOM     17  C   UNL     1      -5.015  -0.500  -4.485  0.00  0.00    +0.167 A 
ATOM     18  C   UNL     1      -4.341  -0.955  -3.363  0.00  0.00    +0.054 A 
ATOM     19  O   UNL     1      -5.155  -1.032  -5.734  0.00  0.00    -0.453 OA
ATOM     20  C   UNL     1      -6.270  -0.339  -6.325  0.00  0.00    +0.466 C 
ATOM     21  O   UNL     1      -6.272   0.937  -5.657  0.00  0.00    -0.453 OA
ENDBRANCH  12  13
ENDBRANCH  10  12
ENDBRANCH   2   8
BRANCH   5  22
ATOM     22  S   UNL     1       2.539  -3.606  -0.043  0.00  0.00    +0.061 S 
ATOM     23  O   UNL     1       2.499  -4.295   1.199  0.00  0.00    -0.153 OA
ATOM     24  O   UNL     1       2.474  -4.282  -1.291  0.00  0.00    -0.153 OA
BRANCH  22  25
ATOM     25  C   UNL     1       4.033  -2.672  -0.053  0.00  0.00    +0.107 A 
ATOM     26  C   UNL     1       4.603  -2.295  -1.255  0.00  0.00    +0.031 A 
ATOM     27  C   UNL     1       5.774  -1.562  -1.265  0.00  0.00    +0.042 A 
ATOM     28  C   UNL     1       6.378  -1.205  -0.071  0.00  0.00    +0.142 A 
ATOM     29  C   UNL     1       5.806  -1.583   1.132  0.00  0.00    +0.078 A 
ATOM     30  C   UNL     1       4.630  -2.312   1.140  0.00  0.00    +0.051 A 
ATOM     31 CL   UNL     1       6.560  -1.137   2.631  0.00  0.00    -0.081 Cl
ATOM     32  F   UNL     1       7.523  -0.489  -0.080  0.00  0.00    -0.204 F 
ENDBRANCH  22  25
ENDBRANCH   5  22
TORSDOF 5
