REMARK  Name = ZINC35126567
REMARK  9 active torsions:
REMARK  status: ('A' for Active; 'I' for Inactive)
REMARK    1  A    between atoms: C_1  and  C_2
REMARK    2  A    between atoms: C_2  and  C_3
REMARK    3  A    between atoms: C_3  and  C_30
REMARK    4  A    between atoms: N_4  and  N_5
REMARK    5  A    between atoms: C_15  and  C_17
REMARK    6  A    between atoms: C_15  and  C_18
REMARK    7  A    between atoms: N_21  and  C_22
REMARK    8  A    between atoms: C_25  and  O_28
REMARK    9  A    between atoms: O_28  and  C_29
REMARK                            x       y       z     vdW  Elec       q    Type
REMARK                         _______ _______ _______ _____ _____    ______ ____
ROOT
ATOM      1  N   UNL     1       0.933  -2.598   2.913  0.00  0.00    -0.206 N 
ATOM      2  C   UNL     1       0.182  -2.837   4.038  0.00  0.00    +0.224 A 
ATOM      3  N   UNL     1      -1.118  -3.019   3.925  0.00  0.00    -0.207 NA
ATOM      4  C   UNL     1      -1.869  -3.252   4.995  0.00  0.00    +0.118 A 
ATOM      5  C   UNL     1      -1.325  -3.317   6.290  0.00  0.00    +0.076 A 
ATOM      6  C   UNL     1      -2.278  -3.581   7.366  0.00  0.00    -0.018 A 
ATOM      7  C   UNL     1      -3.573  -3.736   7.017  0.00  0.00    +0.021 A 
ATOM      8  S   UNL     1      -3.601  -3.541   5.258  0.00  0.00    -0.071 S 
ATOM      9  C   UNL     1      -4.714  -4.012   7.946  0.00  0.00    +0.203 C 
ATOM     10  O   UNL     1      -4.166  -4.398   9.217  0.00  0.00    -0.368 OA
ATOM     11  C   UNL     1      -3.139  -3.520   9.685  0.00  0.00    +0.068 C 
ATOM     12  C   UNL     1      -1.876  -3.686   8.836  0.00  0.00    +0.071 C 
ATOM     13  C   UNL     1      -3.628  -2.073   9.592  0.00  0.00    +0.041 C 
ATOM     14  C   UNL     1      -2.816  -3.850  11.144  0.00  0.00    +0.041 C 
ATOM     15  C   UNL     1       0.089  -3.117   6.383  0.00  0.00    +0.268 A 
ATOM     16  O   UNL     1       0.649  -3.156   7.465  0.00  0.00    -0.266 OA
ATOM     17  N   UNL     1       0.793  -2.890   5.259  0.00  0.00    -0.247 N 
ATOM     18  H   UNL     1       1.877  -2.390   2.996  0.00  0.00    +0.177 HD
ENDROOT
BRANCH  17  19
ATOM     19  C   UNL     1       2.180  -2.697   5.343  0.00  0.00    +0.053 A 
ATOM     20  C   UNL     1       3.039  -3.783   5.239  0.00  0.00    +0.030 A 
ATOM     21  C   UNL     1       4.404  -3.593   5.321  0.00  0.00    +0.047 A 
ATOM     22  C   UNL     1       4.917  -2.317   5.508  0.00  0.00    +0.120 A 
ATOM     23  C   UNL     1       4.059  -1.232   5.612  0.00  0.00    +0.047 A 
ATOM     24  C   UNL     1       2.694  -1.420   5.524  0.00  0.00    +0.030 A 
BRANCH  22  25
ATOM     25  O   UNL     1       6.261  -2.131   5.590  0.00  0.00    -0.495 OA
ATOM     26  C   UNL     1       6.720  -0.791   5.782  0.00  0.00    +0.277 C 
ENDBRANCH  22  25
ENDBRANCH  17  19
BRANCH   1  28
ATOM     27  C   UNL     1       1.037  -2.430   0.599  0.00  0.00    +0.034 C 
ATOM     28  N   UNL     1       0.336  -2.654   1.647  0.00  0.00    -0.189 NA
ATOM     29  C   UNL     1       2.503  -2.107   0.727  0.00  0.00    +0.062 C 
BRANCH  27  31
ATOM     30  C   UNL     1       0.425  -1.102  -1.403  0.00  0.00    +0.010 C 
ATOM     31  C   UNL     1       0.395  -2.491  -0.763  0.00  0.00    +0.049 C 
ENDBRANCH  27  31
ENDBRANCH   1  28
TORSDOF 4
