REMARK  Name = ZINC13321957
REMARK  6 active torsions:
REMARK  status: ('A' for Active; 'I' for Inactive)
REMARK    1  A    between atoms: C_1  and  C_2
REMARK    2  A    between atoms: C_2  and  C_3
REMARK    3  A    between atoms: C_6  and  C_8
REMARK    4  A    between atoms: N_9  and  N_10
REMARK    5  A    between atoms: C_11  and  C_13
REMARK    6  A    between atoms: C_22  and  O_23
REMARK                            x       y       z     vdW  Elec       q    Type
REMARK                         _______ _______ _______ _____ _____    ______ ____
ROOT
ATOM      1  N   UNL     1       1.188   2.014   0.002  0.00  0.00    -0.203 N 
ATOM      2  C   UNL     1       1.170   3.361   0.009  0.00  0.00    +0.267 C 
ATOM      3  O   UNL     1       0.108   3.955   0.022  0.00  0.00    -0.268 OA
ATOM      4  H   UNL     1       2.035   1.540  -0.009  0.00  0.00    +0.178 HD
ENDROOT
BRANCH   2   5
ATOM      5  C   UNL     1       2.433   4.113   0.001  0.00  0.00    +0.087 A 
ATOM      6  C   UNL     1       3.066   4.497  -1.260  0.00  0.00    -0.002 A 
ATOM      7  C   UNL     1       2.490   4.174  -2.494  0.00  0.00    +0.009 A 
ATOM      8  C   UNL     1       3.109   4.555  -3.648  0.00  0.00    +0.001 A 
ATOM      9  C   UNL     1       4.305   5.267  -3.615  0.00  0.00    +0.001 A 
ATOM     10  C   UNL     1       4.890   5.602  -2.431  0.00  0.00    +0.008 A 
ATOM     11  C   UNL     1       4.279   5.226  -1.223  0.00  0.00    -0.017 A 
ATOM     12  C   UNL     1       4.854   5.554   0.018  0.00  0.00    +0.012 A 
ATOM     13  C   UNL     1       4.256   5.186   1.181  0.00  0.00    +0.047 A 
ATOM     14  C   UNL     1       3.057   4.472   1.197  0.00  0.00    +0.130 A 
BRANCH  14  15
ATOM     15  O   UNL     1       2.495   4.125   2.381  0.00  0.00    -0.506 OA
ATOM     16  H   UNL     1       2.783   3.265   2.716  0.00  0.00    +0.292 HD
ENDBRANCH  14  15
ENDBRANCH   2   5
BRANCH   1  18
ATOM     17  C   UNL     1       0.002  -0.004   0.002  0.00  0.00    +0.145 C 
ATOM     18  N   UNL     1      -0.016   1.297   0.009  0.00  0.00    -0.187 NA
BRANCH  17  22
ATOM     19  C   UNL     1      -3.781  -1.711   0.030  0.00  0.00    -0.010 A 
ATOM     20  C   UNL     1      -2.750  -2.596   0.015  0.00  0.00    +0.012 A 
ATOM     21  C   UNL     1      -1.458  -2.124   0.005  0.00  0.00    +0.017 A 
ATOM     22  C   UNL     1      -1.258  -0.754   0.010  0.00  0.00    +0.032 A 
ATOM     23  S   UNL     1      -2.934  -0.140   0.037  0.00  0.00    -0.092 S 
BRANCH  19  25
ATOM     24  C   UNL     1      -5.749  -2.087   1.490  0.00  0.00    +0.009 C 
ATOM     25  C   UNL     1      -5.262  -1.986   0.043  0.00  0.00    +0.039 C 
ENDBRANCH  19  25
ENDBRANCH  17  22
ENDBRANCH   1  18
TORSDOF 5
