REMARK  Name = ZINC38984872
REMARK  8 active torsions:
REMARK  status: ('A' for Active; 'I' for Inactive)
REMARK    1  A    between atoms: C_3  and  C_8
REMARK    2  A    between atoms: C_5  and  O_7
REMARK    3  A    between atoms: N_9  and  N_10
REMARK    4  A    between atoms: C_11  and  C_13
REMARK    5  A    between atoms: C_16  and  C_19
REMARK    6  A    between atoms: C_23  and  O_25
REMARK    7  A    between atoms: O_25  and  C_26
REMARK    8  A    between atoms: C_26  and  C_27
REMARK                            x       y       z     vdW  Elec       q    Type
REMARK                         _______ _______ _______ _____ _____    ______ ____
ROOT
ATOM      1  C   UNL     1       6.113   6.301  -0.025  0.00  0.00    +0.240 C 
ATOM      2  C   UNL     1       6.657   6.420  -1.438  0.00  0.00    +0.041 C 
ATOM      3  C   UNL     1       6.675   7.747  -1.666  0.00  0.00    +0.092 C 
ATOM      4  N   UNL     1       6.215   8.422  -0.579  0.00  0.00    -0.153 NA
ATOM      5  N   UNL     1       5.886   7.701   0.370  0.00  0.00    -0.170 NA
ENDROOT
BRANCH   3   6
ATOM      6  C   UNL     1       7.132   8.384  -2.926  0.00  0.00    +0.005 A 
ATOM      7  C   UNL     1       7.581   7.595  -3.984  0.00  0.00    +0.010 A 
ATOM      8  C   UNL     1       8.005   8.189  -5.156  0.00  0.00    +0.004 A 
ATOM      9  C   UNL     1       7.986   9.566  -5.283  0.00  0.00    +0.046 A 
ATOM     10  C   UNL     1       7.541  10.358  -4.234  0.00  0.00    +0.122 A 
ATOM     11  C   UNL     1       7.108   9.770  -3.057  0.00  0.00    +0.055 A 
BRANCH  10  12
ATOM     12  O   UNL     1       7.525  11.711  -4.364  0.00  0.00    -0.487 OA
BRANCH  12  13
ATOM     13  C   UNL     1       7.980  12.249  -5.607  0.00  0.00    +0.264 C 
BRANCH  13  14
ATOM     14  C   UNL     1       7.891  13.753  -5.566  0.00  0.00    -0.010 A 
ATOM     15  C   UNL     1       6.733  14.387  -5.974  0.00  0.00    +0.008 A 
ATOM     16  C   UNL     1       6.650  15.767  -5.937  0.00  0.00    +0.020 A 
ATOM     17  C   UNL     1       7.727  16.512  -5.491  0.00  0.00    +0.041 A 
ATOM     18  C   UNL     1       8.886  15.876  -5.082  0.00  0.00    +0.020 A 
ATOM     19  C   UNL     1       8.965  14.497  -5.115  0.00  0.00    +0.008 A 
ATOM     20 CL   UNL     1       7.624  18.244  -5.444  0.00  0.00    -0.084 Cl
ENDBRANCH  13  14
ENDBRANCH  12  13
ENDBRANCH  10  12
ENDBRANCH   3   6
BRANCH   1  22
ATOM     21  N   UNL     1       4.838   4.181  -0.023  0.00  0.00    -0.205 N 
ATOM     22  C   UNL     1       4.819   5.529  -0.016  0.00  0.00    +0.263 C 
ATOM     23  O   UNL     1       3.760   6.120  -0.003  0.00  0.00    -0.271 OA
ATOM     24  H   UNL     1       5.685   3.709  -0.034  0.00  0.00    +0.177 HD
BRANCH  21  26
ATOM     25  C   UNL     1       3.654   2.166  -0.022  0.00  0.00    +0.138 C 
ATOM     26  N   UNL     1       3.635   3.464  -0.015  0.00  0.00    -0.188 NA
BRANCH  25  29
ATOM     27  C   UNL     1      -0.017   1.378   0.010  0.00  0.00    +0.004 A 
ATOM     28  C   UNL     1       1.166   2.089   0.002  0.00  0.00    +0.010 A 
ATOM     29  C   UNL     1       2.387   1.411  -0.013  0.00  0.00    -0.002 A 
ATOM     30  C   UNL     1       2.404   0.015  -0.021  0.00  0.00    +0.054 A 
ATOM     31  C   UNL     1       1.211  -0.688  -0.013  0.00  0.00    +0.117 A 
ATOM     32  C   UNL     1       0.002  -0.004   0.002  0.00  0.00    +0.045 A 
BRANCH  31  33
ATOM     33  O   UNL     1       1.223  -2.046  -0.021  0.00  0.00    -0.507 OA
ATOM     34  H   UNL     1       1.235  -2.445   0.860  0.00  0.00    +0.292 HD
ENDBRANCH  31  33
ENDBRANCH  25  29
ENDBRANCH  21  26
ENDBRANCH   1  22
TORSDOF 8
