REMARK  Name = ZINC13064937
REMARK  14 active torsions:
REMARK  status: ('A' for Active; 'I' for Inactive)
REMARK    1  A    between atoms: C_1  and  C_2
REMARK    2  A    between atoms: C_2  and  C_3
REMARK    3  A    between atoms: C_3  and  C_5
REMARK    4  A    between atoms: C_3  and  N_75
REMARK    5  A    between atoms: N_9  and  C_10
REMARK    6  A    between atoms: C_10  and  C_11
REMARK    7  A    between atoms: C_11  and  C_12
REMARK    8  A    between atoms: C_18  and  C_19
REMARK    9  A    between atoms: C_18  and  N_75
REMARK   10  A    between atoms: C_22  and  C_25
REMARK   11  A    between atoms: C_26  and  C_27
REMARK   12  A    between atoms: C_26  and  N_75
REMARK   13  A    between atoms: C_30  and  C_40
REMARK   14  A    between atoms: C_32  and  C_39
REMARK                            x       y       z     vdW  Elec       q    Type
REMARK                         _______ _______ _______ _____ _____    ______ ____
ROOT
ATOM      1  N   UNL     1       0.080   0.173   0.348  0.00  0.00    +0.392 N 
ATOM      2  H   UNL     1       0.769  -0.252   0.979  0.00  0.00    -0.080 HD
ENDROOT
BRANCH   1   3
ATOM      3  C   UNL     1      -1.278  -0.184   0.811  0.00  0.00    +0.003 C 
BRANCH   3   4
ATOM      4  C   UNL     1      -1.567   0.539   2.101  0.00  0.00    +0.138 A 
ATOM      5  N   UNL     1      -0.757   0.669   3.123  0.00  0.00    -0.115 NA
ATOM      6  N   UNL     1      -1.366   1.353   4.029  0.00  0.00    -0.023 NA
ATOM      7  N   UNL     1      -2.546   1.657   3.614  0.00  0.00    -0.044 NA
ATOM      8  N   UNL     1      -2.708   1.173   2.429  0.00  0.00    -0.231 N 
BRANCH   8   9
ATOM      9  C   UNL     1      -3.908   1.291   1.598  0.00  0.00    +0.152 C 
BRANCH   9  10
ATOM     10  C   UNL     1      -4.840   0.110   1.877  0.00  0.00    +0.058 C 
BRANCH  10  11
ATOM     11  C   UNL     1      -6.075   0.232   1.021  0.00  0.00    -0.046 A 
ATOM     12  C   UNL     1      -7.181   0.911   1.496  0.00  0.00    +0.004 A 
ATOM     13  C   UNL     1      -8.311   1.027   0.709  0.00  0.00    +0.000 A 
ATOM     14  C   UNL     1      -8.339   0.454  -0.549  0.00  0.00    +0.000 A 
ATOM     15  C   UNL     1      -7.236  -0.231  -1.021  0.00  0.00    +0.000 A 
ATOM     16  C   UNL     1      -6.103  -0.342  -0.236  0.00  0.00    +0.004 A 
ENDBRANCH  10  11
ENDBRANCH   9  10
ENDBRANCH   8   9
ENDBRANCH   3   4
BRANCH   3  18
ATOM     17  C   UNL     1      -0.364  -2.071   2.170  0.00  0.00    +0.002 C 
ATOM     18  C   UNL     1      -1.335  -1.694   1.049  0.00  0.00    -0.011 C 
ENDBRANCH   3  18
ENDBRANCH   1   3
BRANCH   1  19
ATOM     19  C   UNL     1       0.250   1.641   0.370  0.00  0.00    -0.042 C 
BRANCH  19  20
ATOM     20  C   UNL     1       1.723   1.957   0.339  0.00  0.00    -0.064 A 
ATOM     21  C   UNL     1       2.457   1.942   1.511  0.00  0.00    +0.002 A 
ATOM     22  C   UNL     1       3.810   2.228   1.482  0.00  0.00    +0.003 A 
ATOM     23  C   UNL     1       4.426   2.537   0.284  0.00  0.00    -0.050 A 
ATOM     24  C   UNL     1       3.691   2.556  -0.886  0.00  0.00    +0.003 A 
ATOM     25  C   UNL     1       2.339   2.267  -0.859  0.00  0.00    +0.002 A 
ATOM     26  C   UNL     1       5.899   2.853   0.254  0.00  0.00    +0.044 C 
ENDBRANCH  19  20
ENDBRANCH   1  19
BRANCH   1  27
ATOM     27  C   UNL     1       0.299  -0.341  -1.020  0.00  0.00    -0.036 C 
BRANCH  27  28
ATOM     28  C   UNL     1      -0.747   0.199  -1.961  0.00  0.00    +0.001 A 
ATOM     29  C   UNL     1      -0.497   1.325  -2.674  0.00  0.00    +0.017 A 
ATOM     30  C   UNL     1      -1.534   1.824  -3.580  0.00  0.00    +0.002 A 
ATOM     31  C   UNL     1      -1.334   2.980  -4.341  0.00  0.00    -0.041 A 
ATOM     32  C   UNL     1      -2.321   3.419  -5.177  0.00  0.00    +0.007 A 
ATOM     33  C   UNL     1      -3.520   2.728  -5.279  0.00  0.00    -0.048 A 
ATOM     34  C   UNL     1      -3.739   1.586  -4.538  0.00  0.00    +0.029 A 
ATOM     35  C   UNL     1      -2.748   1.120  -3.680  0.00  0.00    +0.050 A 
ATOM     36  N   UNL     1      -2.939  -0.020  -2.928  0.00  0.00    -0.322 N 
ATOM     37  H   UNL     1      -3.777  -0.504  -2.998  0.00  0.00    +0.169 HD
ATOM     38  C   UNL     1      -1.980  -0.473  -2.103  0.00  0.00    +0.251 A 
ATOM     39  O   UNL     1      -2.182  -1.487  -1.457  0.00  0.00    -0.268 OA
ATOM     40  C   UNL     1      -4.595   3.231  -6.208  0.00  0.00    +0.044 C 
ATOM     41  C   UNL     1      -0.036   3.739  -4.238  0.00  0.00    +0.044 C 
ENDBRANCH  27  28
ENDBRANCH   1  27
TORSDOF 10
