REMARK  Name = ZINC00208345
REMARK  2 active torsions:
REMARK  status: ('A' for Active; 'I' for Inactive)
REMARK    1  A    between atoms: C_4  and  N_7
REMARK    2  A    between atoms: C_8  and  C_19
REMARK                            x       y       z     vdW  Elec       q    Type
REMARK                         _______ _______ _______ _____ _____    ______ ____
ROOT
ATOM      1  N   UNL     1       2.393  -0.046  -0.250  0.00  0.00    -0.244 N 
ATOM      2  C   UNL     1       1.107  -0.707  -0.473  0.00  0.00    +0.198 C 
ATOM      3  N   UNL     1       0.025   0.058   0.157  0.00  0.00    -0.321 N 
ATOM      4  C   UNL     1       0.019   1.442   0.024  0.00  0.00    +0.041 A 
ATOM      5  C   UNL     1      -1.157   2.172   0.052  0.00  0.00    +0.024 A 
ATOM      6  C   UNL     1      -1.113   3.547  -0.079  0.00  0.00    +0.002 A 
ATOM      7  C   UNL     1       0.099   4.201  -0.230  0.00  0.00    +0.001 A 
ATOM      8  C   UNL     1       1.280   3.490  -0.260  0.00  0.00    +0.015 A 
ATOM      9  C   UNL     1       1.250   2.102  -0.136  0.00  0.00    +0.058 A 
ATOM     10  C   UNL     1       2.483   1.297  -0.176  0.00  0.00    +0.254 C 
ATOM     11  O   UNL     1       3.571   1.838  -0.142  0.00  0.00    -0.270 OA
ATOM     12  H   UNL     1      -0.672  -0.393   0.657  0.00  0.00    +0.148 HD
ENDROOT
BRANCH   2  13
ATOM     13  C   UNL     1       0.849  -0.810  -1.954  0.00  0.00    -0.005 A 
ATOM     14  C   UNL     1       1.911  -0.899  -2.835  0.00  0.00    +0.011 A 
ATOM     15  C   UNL     1       1.679  -0.994  -4.194  0.00  0.00    +0.050 A 
ATOM     16  C   UNL     1       0.380  -0.999  -4.678  0.00  0.00    +0.166 A 
ATOM     17  C   UNL     1      -0.689  -0.909  -3.790  0.00  0.00    +0.167 A 
ATOM     18  C   UNL     1      -0.450  -0.820  -2.429  0.00  0.00    +0.056 A 
ATOM     19  O   UNL     1      -1.852  -0.934  -4.505  0.00  0.00    -0.453 OA
ATOM     20  C   UNL     1      -1.477  -0.629  -5.861  0.00  0.00    +0.466 C 
ATOM     21  O   UNL     1      -0.112  -1.081  -5.948  0.00  0.00    -0.453 OA
ENDBRANCH   2  13
BRANCH   1  25
ATOM     22  C   UNL     1       5.838  -2.353   0.161  0.00  0.00    +0.000 A 
ATOM     23  C   UNL     1       5.762  -1.397  -0.835  0.00  0.00    +0.002 A 
ATOM     24  C   UNL     1       4.622  -0.630  -0.974  0.00  0.00    +0.023 A 
ATOM     25  C   UNL     1       3.550  -0.821  -0.113  0.00  0.00    +0.039 A 
ATOM     26  C   UNL     1       3.630  -1.779   0.890  0.00  0.00    +0.023 A 
ATOM     27  C   UNL     1       4.772  -2.545   1.021  0.00  0.00    +0.002 A 
ENDBRANCH   1  25
TORSDOF 2
