REMARK  Name = ZINC17158262
REMARK  7 active torsions:
REMARK  status: ('A' for Active; 'I' for Inactive)
REMARK    1  A    between atoms: C_1  and  C_2
REMARK    2  A    between atoms: C_2  and  C_4
REMARK    3  A    between atoms: C_2  and  C_16
REMARK    4  A    between atoms: C_9  and  O_14
REMARK    5  A    between atoms: O_14  and  C_15
REMARK    6  A    between atoms: N_18  and  N_19
REMARK    7  A    between atoms: C_20  and  C_22
REMARK                            x       y       z     vdW  Elec       q    Type
REMARK                         _______ _______ _______ _____ _____    ______ ____
ROOT
ATOM      1  C   UNL     1      -0.578  -4.804   1.210  0.00  0.00    +0.236 C 
ATOM      2  O   UNL     1      -1.044  -4.028   2.017  0.00  0.00    -0.274 OA
ATOM      3  N   UNL     1      -0.679  -6.132   1.416  0.00  0.00    -0.234 N 
ATOM      4  H   UNL     1      -0.257  -6.836   0.684  0.00  0.00    +0.173 HD
ENDROOT
BRANCH   3   5
ATOM      5  N   UNL     1      -1.322  -6.616   2.563  0.00  0.00    -0.234 N 
ATOM      6  C   UNL     1      -1.422  -7.944   2.770  0.00  0.00    +0.235 C 
ATOM      7  O   UNL     1      -0.957  -8.720   1.962  0.00  0.00    -0.274 OA
ATOM      8  H   UNL     1      -1.744  -5.912   3.296  0.00  0.00    +0.173 HD
BRANCH   6   9
ATOM      9  C   UNL     1      -2.113  -8.464   4.004  0.00  0.00    +0.049 C 
ATOM     10  C   UNL     1      -1.388  -7.951   5.249  0.00  0.00    +0.019 C 
ATOM     11  C   UNL     1      -2.090  -8.479   6.502  0.00  0.00    -0.009 C 
ATOM     12  C   UNL     1      -2.066 -10.009   6.493  0.00  0.00    +0.007 C 
ATOM     13  C   UNL     1      -2.791 -10.523   5.247  0.00  0.00    -0.009 C 
ATOM     14  C   UNL     1      -2.090  -9.994   3.994  0.00  0.00    +0.019 C 
ATOM     15  C   UNL     1      -4.241 -10.035   5.264  0.00  0.00    +0.007 C 
ATOM     16  C   UNL     1      -4.265  -8.505   5.273  0.00  0.00    -0.009 C 
ATOM     17  C   UNL     1      -3.540  -7.992   6.519  0.00  0.00    +0.007 C 
ATOM     18  C   UNL     1      -3.563  -7.977   4.020  0.00  0.00    +0.019 C 
ENDBRANCH   6   9
ENDBRANCH   3   5
BRANCH   1  20
ATOM     19  C   UNL     1      -0.613  -4.797  -1.270  0.00  0.00    +0.022 C 
ATOM     20  C   UNL     1       0.113  -4.284  -0.024  0.00  0.00    +0.103 C 
BRANCH  20  21
ATOM     21  C   UNL     1       0.089  -2.777  -0.015  0.00  0.00    -0.035 A 
ATOM     22  C   UNL     1      -1.134  -2.109   0.001  0.00  0.00    +0.005 A 
ATOM     23  C   UNL     1      -1.190  -0.749   0.009  0.00  0.00    +0.009 A 
ATOM     24  C   UNL     1       0.002  -0.004   0.002  0.00  0.00    -0.014 A 
ATOM     25  C   UNL     1      -0.017   1.400   0.010  0.00  0.00    +0.054 A 
ATOM     26  C   UNL     1       1.161   2.091   0.002  0.00  0.00    +0.121 A 
ATOM     27  C   UNL     1       2.387   1.419  -0.013  0.00  0.00    +0.046 A 
ATOM     28  C   UNL     1       2.439   0.060  -0.021  0.00  0.00    +0.012 A 
ATOM     29  C   UNL     1       1.246  -0.683  -0.013  0.00  0.00    -0.017 A 
ATOM     30  C   UNL     1       1.264  -2.088  -0.022  0.00  0.00    +0.013 A 
BRANCH  26  31
ATOM     31  O   UNL     1       1.141   3.450   0.009  0.00  0.00    -0.495 OA
ATOM     32  C   UNL     1       2.405   4.117   0.001  0.00  0.00    +0.277 C 
ENDBRANCH  26  31
ENDBRANCH  20  21
ENDBRANCH   1  20
TORSDOF 5
