REMARK  Name = ZINC12794804
REMARK  9 active torsions:
REMARK  status: ('A' for Active; 'I' for Inactive)
REMARK    1  A    between atoms: C_1  and  C_2
REMARK    2  A    between atoms: C_2  and  C_3
REMARK    3  A    between atoms: C_2  and  C_4
REMARK    4  A    between atoms: C_2  and  C_5
REMARK    5  A    between atoms: C_8  and  O_31
REMARK    6  A    between atoms: C_9  and  N_11
REMARK    7  A    between atoms: C_12  and  C_14
REMARK    8  A    between atoms: C_14  and  C_15
REMARK    9  A    between atoms: C_15  and  C_16
REMARK                            x       y       z     vdW  Elec       q    Type
REMARK                         _______ _______ _______ _____ _____    ______ ____
ROOT
ATOM      1  C   UNL     1       0.146   0.104  -4.884  0.00  0.00    +0.104 C 
ENDROOT
BRANCH   1   3
ATOM      2  N   UNL     1      -0.033   0.008  -2.419  0.00  0.00    -0.283 N 
ATOM      3  C   UNL     1       0.061  -0.658  -3.587  0.00  0.00    +0.218 C 
ATOM      4  O   UNL     1       0.078  -1.871  -3.594  0.00  0.00    -0.275 OA
ATOM      5  H   UNL     1      -0.111   0.974  -2.417  0.00  0.00    +0.155 HD
BRANCH   2  10
ATOM      6  C   UNL     1      -0.592  -2.642   0.072  0.00  0.00    -0.040 A 
ATOM      7  C   UNL     1       0.007  -2.087   1.188  0.00  0.00    +0.008 A 
ATOM      8  C   UNL     1       0.598  -0.840   1.112  0.00  0.00    +0.047 A 
ATOM      9  C   UNL     1       0.591  -0.141  -0.084  0.00  0.00    +0.138 A 
ATOM     10  C   UNL     1      -0.017  -0.697  -1.207  0.00  0.00    +0.076 A 
ATOM     11  C   UNL     1      -0.603  -1.951  -1.125  0.00  0.00    +0.031 A 
BRANCH   6  13
ATOM     12  C   UNL     1      -1.085  -4.544   1.584  0.00  0.00    +0.015 C 
ATOM     13  C   UNL     1      -1.235  -4.002   0.162  0.00  0.00    -0.013 C 
ATOM     14  C   UNL     1      -2.720  -3.888  -0.187  0.00  0.00    +0.015 C 
ATOM     15  C   UNL     1      -0.551  -4.954  -0.822  0.00  0.00    +0.015 C 
ENDBRANCH   6  13
BRANCH   9  16
ATOM     16  O   UNL     1       1.171   1.086  -0.160  0.00  0.00    -0.505 OA
ATOM     17  H   UNL     1       2.106   1.065  -0.406  0.00  0.00    +0.292 HD
ENDBRANCH   9  16
ENDBRANCH   2  10
ENDBRANCH   1   3
BRANCH   1  18
ATOM     18  C   UNL     1       0.244  -0.882  -6.050  0.00  0.00    +0.083 C 
BRANCH  18  19
ATOM     19  C   UNL     1       0.329  -0.120  -7.347  0.00  0.00    +0.111 A 
ATOM     20  N   UNL     1       0.423  -0.803  -8.517  0.00  0.00    -0.310 N 
ATOM     21  H   UNL     1       0.436  -1.773  -8.501  0.00  0.00    +0.170 HD
ATOM     22  C   UNL     1       0.501  -0.162  -9.697  0.00  0.00    +0.260 A 
ATOM     23  O   UNL     1       0.585  -0.789 -10.739  0.00  0.00    -0.267 OA
ATOM     24  C   UNL     1       0.482   1.272  -9.710  0.00  0.00    +0.075 A 
ATOM     25  C   UNL     1       0.555   2.171 -10.861  0.00  0.00    -0.023 A 
ATOM     26  C   UNL     1       0.518   3.496 -10.605  0.00  0.00    -0.004 A 
ATOM     27  S   UNL     1       0.387   3.620  -8.842  0.00  0.00    -0.073 S 
ATOM     28  C   UNL     1       0.382   1.889  -8.453  0.00  0.00    +0.116 A 
ATOM     29  N   UNL     1       0.305   1.186  -7.326  0.00  0.00    -0.227 NA
ATOM     30  C   UNL     1       0.576   4.614 -11.601  0.00  0.00    +0.043 C 
ATOM     31  C   UNL     1       1.059   4.043 -12.943  0.00  0.00    +0.005 C 
ATOM     32  C   UNL     1       0.259   2.774 -13.252  0.00  0.00    +0.005 C 
ATOM     33  C   UNL     1       0.666   1.655 -12.293  0.00  0.00    +0.037 C 
ENDBRANCH  18  19
ENDBRANCH   1  18
TORSDOF 6
