REMARK  Name = ZINC51148573
REMARK  9 active torsions:
REMARK  status: ('A' for Active; 'I' for Inactive)
REMARK    1  A    between atoms: C_1  and  C_2
REMARK    2  A    between atoms: C_6  and  C_19
REMARK    3  A    between atoms: C_7  and  O_8
REMARK    4  A    between atoms: O_8  and  C_9
REMARK    5  A    between atoms: C_9  and  C_10
REMARK    6  A    between atoms: C_11  and  C_18
REMARK    7  A    between atoms: N_13  and  C_17
REMARK    8  A    between atoms: C_14  and  N_15
REMARK    9  A    between atoms: N_15  and  N_16
REMARK                            x       y       z     vdW  Elec       q    Type
REMARK                         _______ _______ _______ _____ _____    ______ ____
ROOT
ATOM      1  C   UNL     1      -0.842   1.050   4.483  0.00  0.00    +0.053 A 
ATOM      2  C   UNL     1      -0.688   0.567   5.786  0.00  0.00    +0.068 A 
ATOM      3  N   UNL     1      -0.347   1.566   6.558  0.00  0.00    -0.175 NA
ATOM      4  N   UNL     1      -0.270   2.724   5.774  0.00  0.00    -0.252 N 
ATOM      5  C   UNL     1      -0.574   2.385   4.500  0.00  0.00    +0.137 A 
ATOM      6  C   UNL     1       0.081   4.065   6.248  0.00  0.00    +0.174 C 
ATOM      7  C   UNL     1      -0.883  -0.862   6.225  0.00  0.00    +0.068 C 
ENDROOT
BRANCH   5   8
ATOM      8  N   UNL     1      -0.608   3.245   3.406  0.00  0.00    -0.267 N 
ATOM      9  H   UNL     1      -0.331   2.929   2.532  0.00  0.00    +0.167 HD
BRANCH   8  10
ATOM     10  N   UNL     1      -1.032   4.534   3.563  0.00  0.00    -0.255 NA
ATOM     11  H   UNL     1      -0.924   5.057   2.708  0.00  0.00    +0.140 HD
ATOM     12  H   UNL     1      -1.988   4.563   3.887  0.00  0.00    +0.140 HD
ENDBRANCH   8  10
ENDBRANCH   5   8
BRANCH   1  13
ATOM     13  C   UNL     1      -1.230   0.238   3.275  0.00  0.00    +0.269 C 
BRANCH  13  14
ATOM     14  O   UNL     1      -0.053  -0.277   2.650  0.00  0.00    -0.487 OA
BRANCH  14  21
ATOM     15  C   UNL     1      -0.079   1.050   0.157  0.00  0.00    +0.047 C 
ATOM     16  C   UNL     1      -0.249  -0.442   0.284  0.00  0.00    -0.007 A 
ATOM     17  C   UNL     1      -0.421  -1.217  -0.846  0.00  0.00    +0.027 A 
ATOM     18  C   UNL     1      -0.578  -2.587  -0.729  0.00  0.00    +0.042 A 
ATOM     19  C   UNL     1      -0.562  -3.183   0.519  0.00  0.00    +0.027 A 
ATOM     20  C   UNL     1      -0.391  -2.411   1.652  0.00  0.00    -0.007 A 
ATOM     21  C   UNL     1      -0.228  -1.038   1.537  0.00  0.00    +0.127 A 
ATOM     22  C   UNL     1      -0.375  -3.060   3.012  0.00  0.00    +0.047 C 
ATOM     23 CL   UNL     1      -0.794  -3.559  -2.151  0.00  0.00    -0.084 Cl
ENDBRANCH  14  21
ENDBRANCH  13  14
ENDBRANCH   1  13
TORSDOF 5
