REMARK  Name = ZINC39468239
REMARK  5 active torsions:
REMARK  status: ('A' for Active; 'I' for Inactive)
REMARK    1  A    between atoms: C_1  and  S_2
REMARK    2  A    between atoms: S_2  and  P_3
REMARK    3  A    between atoms: C_11  and  O_28
REMARK    4  A    between atoms: C_12  and  C_21
REMARK    5  A    between atoms: C_21  and  C_22
REMARK                            x       y       z     vdW  Elec       q    Type
REMARK                         _______ _______ _______ _____ _____    ______ ____
ROOT
ATOM      1  P   UNL     1       1.054  -0.512   1.771  0.00  0.00    +0.314 P 
ATOM      2  O   UNL     1       2.436   0.014   1.714  0.00  0.00    -0.262 OA
ATOM      3  N   UNL     1       1.070  -2.150   1.977  0.00  0.00    -0.283 NA
ATOM      4  N   UNL     1      -0.071  -2.747   2.469  0.00  0.00    +0.398 N 
ATOM      5  C   UNL     1       0.263  -4.168   2.657  0.00  0.00    -0.046 C 
ATOM      6  C   UNL     1      -0.932  -4.946   3.189  0.00  0.00    +0.008 C 
ATOM      7  C   UNL     1      -2.083  -4.876   2.222  0.00  0.00    +0.021 C 
ATOM      8  C   UNL     1      -3.326  -5.088   2.664  0.00  0.00    +0.116 C 
ATOM      9  C   UNL     1      -3.544  -5.399   4.091  0.00  0.00    -0.006 C 
ATOM     10  C   UNL     1      -2.626  -5.058   4.988  0.00  0.00    -0.016 C 
ATOM     11  C   UNL     1      -1.374  -4.351   4.530  0.00  0.00    +0.016 C 
ATOM     12  C   UNL     1      -1.677  -2.866   4.327  0.00  0.00    -0.003 C 
ATOM     13  C   UNL     1      -0.458  -2.142   3.745  0.00  0.00    -0.020 C 
ATOM     14  C   UNL     1      -0.848  -0.668   3.572  0.00  0.00    +0.157 C 
ATOM     15  O   UNL     1       0.280   0.074   3.076  0.00  0.00    -0.312 OA
ATOM     16  H   UNL     1       1.856  -2.675   1.758  0.00  0.00    +0.112 HD
ATOM     17  H   UNL     1      -0.822  -2.647   1.803  0.00  0.00    -0.055 HD
ENDROOT
BRANCH   1  19
ATOM     18  C   UNL     1      -0.022   1.810   0.012  0.00  0.00    +0.096 C 
ATOM     19  S   UNL     1       0.002  -0.004   0.002  0.00  0.00    -0.059 S 
ENDBRANCH   1  19
BRANCH   8  20
ATOM     20  O   UNL     1      -4.380  -5.018   1.809  0.00  0.00    -0.507 OA
ATOM     21  H   UNL     1      -4.133  -4.808   0.898  0.00  0.00    +0.292 HD
ENDBRANCH   8  20
BRANCH   9  22
ATOM     22  C   UNL     1      -4.803  -6.101   4.527  0.00  0.00    +0.073 C 
BRANCH  22  23
ATOM     23  C   UNL     1      -5.899  -5.087   4.731  0.00  0.00    -0.043 A 
ATOM     24  C   UNL     1      -6.070  -4.494   5.968  0.00  0.00    +0.004 A 
ATOM     25  C   UNL     1      -7.075  -3.563   6.155  0.00  0.00    +0.000 A 
ATOM     26  C   UNL     1      -7.909  -3.226   5.105  0.00  0.00    +0.000 A 
ATOM     27  C   UNL     1      -7.737  -3.818   3.868  0.00  0.00    +0.000 A 
ATOM     28  C   UNL     1      -6.729  -4.746   3.680  0.00  0.00    +0.004 A 
ENDBRANCH  22  23
ENDBRANCH   9  22
TORSDOF 4
