REMARK  Name = ZINC01215081
REMARK  6 active torsions:
REMARK  status: ('A' for Active; 'I' for Inactive)
REMARK    1  A    between atoms: C_9  and  O_25
REMARK    2  A    between atoms: C_10  and  C_11
REMARK    3  A    between atoms: N_12  and  N_13
REMARK    4  A    between atoms: C_14  and  C_16
REMARK    5  A    between atoms: C_16  and  O_17
REMARK    6  A    between atoms: O_17  and  C_18
REMARK                            x       y       z     vdW  Elec       q    Type
REMARK                         _______ _______ _______ _____ _____    ______ ____
ROOT
ATOM      1  C   UNL     1      -8.343   1.004   0.047  0.00  0.00    +0.142 C 
ATOM      2  N   UNL     1      -7.136   0.522   0.038  0.00  0.00    -0.187 NA
ENDROOT
BRANCH   1  12
ATOM      3  C   UNL     1     -13.470   1.551   0.073  0.00  0.00    +0.001 A 
ATOM      4  C   UNL     1     -12.401   2.444   0.073  0.00  0.00    +0.001 A 
ATOM      5  C   UNL     1     -11.114   1.996   0.065  0.00  0.00    +0.009 A 
ATOM      6  C   UNL     1     -10.861   0.619   0.057  0.00  0.00    -0.006 A 
ATOM      7  C   UNL     1     -11.945  -0.293   0.057  0.00  0.00    -0.017 A 
ATOM      8  C   UNL     1     -13.259   0.205   0.065  0.00  0.00    +0.008 A 
ATOM      9  C   UNL     1     -11.689  -1.675   0.047  0.00  0.00    +0.012 A 
ATOM     10  C   UNL     1     -10.414  -2.146   0.038  0.00  0.00    +0.046 A 
ATOM     11  C   UNL     1      -9.314  -1.289   0.033  0.00  0.00    +0.126 A 
ATOM     12  C   UNL     1      -9.497   0.094   0.047  0.00  0.00    +0.044 A 
BRANCH  11  13
ATOM     13  O   UNL     1      -8.058  -1.803   0.018  0.00  0.00    -0.506 OA
ATOM     14  H   UNL     1      -7.687  -1.960   0.897  0.00  0.00    +0.292 HD
ENDBRANCH  11  13
ENDBRANCH   1  12
BRANCH   2  15
ATOM     15  N   UNL     1      -6.035   1.389   0.038  0.00  0.00    -0.204 N 
ATOM     16  C   UNL     1      -4.783   0.890   0.029  0.00  0.00    +0.270 C 
ATOM     17  O   UNL     1      -4.609  -0.311   0.022  0.00  0.00    -0.270 OA
ATOM     18  H   UNL     1      -6.174   2.349   0.044  0.00  0.00    +0.177 HD
BRANCH  16  19
ATOM     19  C   UNL     1      -3.600   1.823   0.029  0.00  0.00    +0.326 C 
BRANCH  19  20
ATOM     20  O   UNL     1      -2.392   1.059   0.019  0.00  0.00    -0.483 OA
BRANCH  20  21
ATOM     21  C   UNL     1      -1.223   1.754   0.017  0.00  0.00    +0.123 A 
ATOM     22  C   UNL     1      -0.013   1.076   0.008  0.00  0.00    +0.046 A 
ATOM     23  C   UNL     1       1.174   1.783   0.000  0.00  0.00    +0.005 A 
ATOM     24  C   UNL     1       1.157   3.166   0.008  0.00  0.00    +0.020 A 
ATOM     25  C   UNL     1      -0.049   3.844   0.023  0.00  0.00    +0.044 A 
ATOM     26  C   UNL     1      -1.239   3.140   0.031  0.00  0.00    +0.065 A 
ATOM     27 CL   UNL     1      -0.068   5.580   0.032  0.00  0.00    -0.083 Cl
ENDBRANCH  20  21
ENDBRANCH  19  20
ENDBRANCH  16  19
ENDBRANCH   2  15
TORSDOF 6
