REMARK  Name = ZINC08850601
REMARK  7 active torsions:
REMARK  status: ('A' for Active; 'I' for Inactive)
REMARK    1  A    between atoms: C_4  and  C_7
REMARK    2  A    between atoms: C_9  and  C_12
REMARK    3  A    between atoms: C_12  and  C_13
REMARK    4  A    between atoms: C_13  and  C_14
REMARK    5  A    between atoms: C_14  and  N_15
REMARK    6  A    between atoms: C_18  and  C_22
REMARK    7  A    between atoms: C_18  and  C_28
REMARK                            x       y       z     vdW  Elec       q    Type
REMARK                         _______ _______ _______ _____ _____    ______ ____
ROOT
ATOM      1  N   UNL     1       0.946   1.869  -0.620  0.00  0.00    -0.224 N 
ATOM      2  C   UNL     1      -0.243   1.246  -0.738  0.00  0.00    +0.256 C 
ATOM      3  O   UNL     1      -0.473   0.213  -1.331  0.00  0.00    -0.272 OA
ATOM      4  C   UNL     1      -1.235   2.107   0.018  0.00  0.00    +0.164 C 
ATOM      5  N   UNL     1      -0.411   3.216   0.530  0.00  0.00    -0.278 N 
ATOM      6  C   UNL     1       0.845   2.991   0.103  0.00  0.00    +0.310 C 
ATOM      7  O   UNL     1       1.783   3.724   0.347  0.00  0.00    -0.252 OA
ATOM      8  H   UNL     1      -0.715   3.965   1.066  0.00  0.00    +0.152 HD
ENDROOT
BRANCH   4   9
ATOM      9  C   UNL     1      -2.305   2.623  -0.909  0.00  0.00    -0.011 A 
ATOM     10  C   UNL     1      -2.957   1.753  -1.763  0.00  0.00    +0.006 A 
ATOM     11  C   UNL     1      -3.942   2.224  -2.610  0.00  0.00    +0.000 A 
ATOM     12  C   UNL     1      -4.268   3.568  -2.611  0.00  0.00    +0.000 A 
ATOM     13  C   UNL     1      -3.612   4.439  -1.760  0.00  0.00    +0.000 A 
ATOM     14  C   UNL     1      -2.631   3.966  -0.910  0.00  0.00    +0.006 A 
ENDBRANCH   4   9
BRANCH   4  15
ATOM     15  C   UNL     1      -1.846   1.335   1.159  0.00  0.00    -0.011 A 
ATOM     16  C   UNL     1      -2.405   0.091   0.930  0.00  0.00    +0.006 A 
ATOM     17  C   UNL     1      -2.962  -0.620   1.977  0.00  0.00    +0.000 A 
ATOM     18  C   UNL     1      -2.968  -0.082   3.251  0.00  0.00    +0.000 A 
ATOM     19  C   UNL     1      -2.415   1.164   3.478  0.00  0.00    +0.000 A 
ATOM     20  C   UNL     1      -1.854   1.872   2.432  0.00  0.00    +0.006 A 
ENDBRANCH   4  15
BRANCH   1  21
ATOM     21  C   UNL     1       2.194   1.379  -1.209  0.00  0.00    +0.118 C 
BRANCH  21  22
ATOM     22  C   UNL     1       2.356   1.958  -2.616  0.00  0.00    +0.029 C 
BRANCH  22  23
ATOM     23  C   UNL     1       3.660   1.446  -3.231  0.00  0.00    +0.100 C 
BRANCH  23  26
ATOM     24  C   UNL     1       4.314   3.238  -6.278  0.00  0.00    +0.202 A 
ATOM     25  N   UNL     1       4.415   3.139  -4.933  0.00  0.00    -0.191 NA
ATOM     26  C   UNL     1       3.819   2.016  -4.617  0.00  0.00    +0.228 A 
ATOM     27  O   UNL     1       3.383   1.468  -5.756  0.00  0.00    -0.338 OA
ATOM     28  N   UNL     1       3.669   2.180  -6.696  0.00  0.00    -0.056 NA
BRANCH  24  32
ATOM     29  C   UNL     1       5.815   6.398  -8.696  0.00  0.00    +0.000 A 
ATOM     30  C   UNL     1       5.148   5.338  -9.284  0.00  0.00    +0.001 A 
ATOM     31  C   UNL     1       4.659   4.309  -8.503  0.00  0.00    +0.012 A 
ATOM     32  C   UNL     1       4.838   4.341  -7.122  0.00  0.00    +0.022 A 
ATOM     33  C   UNL     1       5.505   5.414  -6.535  0.00  0.00    +0.012 A 
ATOM     34  C   UNL     1       5.995   6.434  -7.325  0.00  0.00    +0.001 A 
ENDBRANCH  24  32
ENDBRANCH  23  26
ENDBRANCH  22  23
ENDBRANCH  21  22
ENDBRANCH   1  21
TORSDOF 7
