REMARK  Name = ZINC63648833
REMARK  12 active torsions:
REMARK  status: ('A' for Active; 'I' for Inactive)
REMARK    1  A    between atoms: C_1  and  C_2
REMARK    2  A    between atoms: C_5  and  N_9
REMARK    3  A    between atoms: C_6  and  C_8
REMARK    4  A    between atoms: C_12  and  C_29
REMARK    5  A    between atoms: N_16  and  C_17
REMARK    6  A    between atoms: N_16  and  C_22
REMARK    7  A    between atoms: C_17  and  C_18
REMARK    8  A    between atoms: C_18  and  N_19
REMARK    9  A    between atoms: N_19  and  C_20
REMARK   10  A    between atoms: N_19  and  C_21
REMARK   11  A    between atoms: C_22  and  C_23
REMARK   12  A    between atoms: C_29  and  C_30
REMARK                            x       y       z     vdW  Elec       q    Type
REMARK                         _______ _______ _______ _____ _____    ______ ____
ROOT
ATOM      1  N   UNL     1       0.060  -4.177   0.006  0.00  0.00    -0.212 N 
ATOM      2  C   UNL     1      -1.035  -4.962   0.083  0.00  0.00    +0.249 C 
ATOM      3  O   UNL     1      -2.187  -4.608   0.217  0.00  0.00    -0.273 OA
ATOM      4  C   UNL     1      -0.514  -6.380  -0.036  0.00  0.00    +0.173 C 
ATOM      5  N   UNL     1       0.941  -6.213  -0.178  0.00  0.00    -0.349 N 
ATOM      6  C   UNL     1       1.193  -4.941  -0.151  0.00  0.00    +0.171 C 
ATOM      7  N   UNL     1       2.457  -4.413  -0.263  0.00  0.00    -0.302 N 
ATOM      8  H   UNL     1       1.593  -6.925  -0.277  0.00  0.00    +0.163 HD
ENDROOT
BRANCH   1  13
ATOM      9  C   UNL     1      -0.003   1.491   0.271  0.00  0.00    +0.044 C 
ATOM     10  C   UNL     1       0.014  -0.014   0.201  0.00  0.00    -0.050 A 
ATOM     11  C   UNL     1       0.083  -0.647  -1.027  0.00  0.00    +0.005 A 
ATOM     12  C   UNL     1       0.098  -2.026  -1.095  0.00  0.00    +0.024 A 
ATOM     13  C   UNL     1       0.045  -2.777   0.072  0.00  0.00    +0.047 A 
ATOM     14  C   UNL     1      -0.023  -2.139   1.303  0.00  0.00    -0.028 A 
ATOM     15  C   UNL     1      -0.033  -0.759   1.364  0.00  0.00    +0.008 A 
ATOM     16  C   UNL     1      -0.081  -2.951   2.571  0.00  0.00    +0.046 C 
ENDBRANCH   1  13
BRANCH   7  17
ATOM     17  C   UNL     1       2.836  -3.244   0.535  0.00  0.00    +0.089 C 
BRANCH  17  18
ATOM     18  C   UNL     1       3.306  -3.700   1.917  0.00  0.00    -0.060 C 
BRANCH  18  19
ATOM     19  N   UNL     1       3.575  -2.525   2.756  0.00  0.00    +0.377 N 
ATOM     20  C   UNL     1       3.910  -2.961   4.118  0.00  0.00    -0.097 C 
ATOM     21  C   UNL     1       4.701  -1.769   2.193  0.00  0.00    -0.097 C 
ATOM     22  H   UNL     1       2.755  -1.936   2.783  0.00  0.00    -0.083 HD
ENDBRANCH  18  19
ENDBRANCH  17  18
ENDBRANCH   7  17
BRANCH   7  23
ATOM     23  C   UNL     1       3.426  -5.020  -1.179  0.00  0.00    +0.142 C 
BRANCH  23  24
ATOM     24  C   UNL     1       3.393  -4.292  -2.498  0.00  0.00    -0.030 A 
ATOM     25  C   UNL     1       2.460  -4.639  -3.457  0.00  0.00    +0.005 A 
ATOM     26  C   UNL     1       2.430  -3.971  -4.667  0.00  0.00    +0.000 A 
ATOM     27  C   UNL     1       3.334  -2.956  -4.918  0.00  0.00    +0.000 A 
ATOM     28  C   UNL     1       4.267  -2.608  -3.959  0.00  0.00    +0.000 A 
ATOM     29  C   UNL     1       4.294  -3.273  -2.747  0.00  0.00    +0.005 A 
ENDBRANCH  23  24
ENDBRANCH   7  23
BRANCH   4  30
ATOM     30  C   UNL     1      -1.101  -7.066  -1.271  0.00  0.00    +0.069 C 
BRANCH  30  31
ATOM     31  C   UNL     1      -0.638  -8.499  -1.318  0.00  0.00    -0.045 A 
ATOM     32  C   UNL     1       0.535  -8.825  -1.973  0.00  0.00    +0.004 A 
ATOM     33  C   UNL     1       0.960 -10.140  -2.017  0.00  0.00    +0.000 A 
ATOM     34  C   UNL     1       0.213 -11.128  -1.404  0.00  0.00    +0.000 A 
ATOM     35  C   UNL     1      -0.959 -10.803  -0.748  0.00  0.00    +0.000 A 
ATOM     36  C   UNL     1      -1.382  -9.487  -0.701  0.00  0.00    +0.004 A 
ENDBRANCH  30  31
ENDBRANCH   4  30
TORSDOF 8
