REMARK  Name = ZINC08489148
REMARK  5 active torsions:
REMARK  status: ('A' for Active; 'I' for Inactive)
REMARK    1  A    between atoms: C_1  and  C_2
REMARK    2  A    between atoms: C_8  and  C_9
REMARK    3  A    between atoms: C_8  and  N_53
REMARK    4  A    between atoms: C_10  and  O_30
REMARK    5  A    between atoms: C_17  and  C_18
REMARK                            x       y       z     vdW  Elec       q    Type
REMARK                         _______ _______ _______ _____ _____    ______ ____
ROOT
ATOM      1  C   UNL     1       5.303   8.574  -0.004  0.00  0.00    +0.020 A 
ATOM      2  C   UNL     1       6.557   9.163  -0.013  0.00  0.00    +0.122 A 
ATOM      3  C   UNL     1       7.707   8.379  -0.028  0.00  0.00    +0.046 A 
ATOM      4  C   UNL     1       7.610   7.016  -0.033  0.00  0.00    +0.019 A 
ATOM      5  C   UNL     1       6.355   6.409  -0.024  0.00  0.00    +0.068 A 
ATOM      6  C   UNL     1       5.188   7.191  -0.010  0.00  0.00    +0.144 A 
ATOM      7  O   UNL     1       4.115   6.371  -0.010  0.00  0.00    -0.451 OA
ATOM      8  C   UNL     1       4.487   5.069  -0.014  0.00  0.00    +0.176 C 
ATOM      9  C   UNL     1       3.643   4.000  -0.011  0.00  0.00    +0.060 C 
ATOM     10  C   UNL     1       5.906   5.005  -0.027  0.00  0.00    +0.231 C 
ATOM     11  O   UNL     1       6.603   4.004  -0.038  0.00  0.00    -0.283 OA
ENDROOT
BRANCH   9  12
ATOM     12  C   UNL     1       2.197   4.210   0.003  0.00  0.00    +0.004 A 
ATOM     13  C   UNL     1       1.538   5.421   0.015  0.00  0.00    +0.091 A 
ATOM     14  N   UNL     1       0.199   5.207   0.027  0.00  0.00    -0.360 N 
ATOM     15  H   UNL     1      -0.473   5.907   0.037  0.00  0.00    +0.165 HD
ATOM     16  C   UNL     1      -0.076   3.854   0.023  0.00  0.00    +0.047 A 
ATOM     17  C   UNL     1       1.150   3.170   0.008  0.00  0.00    +0.007 A 
ATOM     18  C   UNL     1       1.173   1.778   0.000  0.00  0.00    +0.010 A 
ATOM     19  C   UNL     1      -0.013   1.076   0.008  0.00  0.00    +0.001 A 
ATOM     20  C   UNL     1      -1.225   1.750   0.017  0.00  0.00    +0.002 A 
ATOM     21  C   UNL     1      -1.262   3.127   0.030  0.00  0.00    +0.026 A 
ENDBRANCH   9  12
BRANCH   2  22
ATOM     22  O   UNL     1       6.665  10.516  -0.007  0.00  0.00    -0.506 OA
ATOM     23  H   UNL     1       6.705  10.904   0.878  0.00  0.00    +0.292 HD
ENDBRANCH   2  22
BRANCH   1  24
ATOM     24  C   UNL     1       4.066   9.434   0.012  0.00  0.00    -0.036 C 
BRANCH  24  31
ATOM     25  C   UNL     1       1.061  11.961   2.974  0.00  0.00    +0.005 C 
ATOM     26  C   UNL     1       2.143  10.882   2.907  0.00  0.00    -0.031 C 
ATOM     27  C   UNL     1       3.324  11.286   3.793  0.00  0.00    -0.001 C 
ATOM     28  C   UNL     1       4.426  10.230   3.674  0.00  0.00    -0.018 C 
ATOM     29  C   UNL     1       4.841  10.095   2.207  0.00  0.00    -0.078 C 
ATOM     30  C   UNL     1       2.624  10.729   1.463  0.00  0.00    -0.075 C 
ATOM     31  N   UNL     1       3.666   9.681   1.412  0.00  0.00    +0.383 N 
ATOM     32  H   UNL     1       3.285   8.813   1.808  0.00  0.00    -0.081 HD
ENDBRANCH  24  31
ENDBRANCH   1  24
TORSDOF 4
