REMARK  Name = ZINC07539806
REMARK  8 active torsions:
REMARK  status: ('A' for Active; 'I' for Inactive)
REMARK    1  A    between atoms: C_3  and  S_23
REMARK    2  A    between atoms: C_6  and  C_7
REMARK    3  A    between atoms: C_7  and  C_8
REMARK    4  A    between atoms: C_8  and  N_44
REMARK    5  A    between atoms: C_9  and  C_10
REMARK    6  A    between atoms: C_9  and  N_44
REMARK    7  A    between atoms: C_13  and  C_15
REMARK    8  A    between atoms: S_23  and  N_26
REMARK                            x       y       z     vdW  Elec       q    Type
REMARK                         _______ _______ _______ _____ _____    ______ ____
ROOT
ATOM      1  N   UNL     1       5.961  -4.149   1.321  0.00  0.00    +0.384 N 
ATOM      2  H   UNL     1       6.600  -3.501   1.798  0.00  0.00    -0.085 HD
ATOM      3  H   UNL     1       5.058  -4.159   1.808  0.00  0.00    -0.085 HD
ENDROOT
BRANCH   1   4
ATOM      4  C   UNL     1       6.540  -5.505   1.341  0.00  0.00    -0.077 C 
BRANCH   4   5
ATOM      5  C   UNL     1       6.738  -5.945   2.793  0.00  0.00    +0.016 C 
BRANCH   5  11
ATOM      6  C   UNL     1       6.500  -8.436   2.848  0.00  0.00    +0.005 A 
ATOM      7  C   UNL     1       7.042  -9.707   2.870  0.00  0.00    +0.029 A 
ATOM      8  C   UNL     1       8.415  -9.873   2.875  0.00  0.00    +0.105 A 
ATOM      9  C   UNL     1       9.245  -8.768   2.854  0.00  0.00    +0.029 A 
ATOM     10  C   UNL     1       8.702  -7.497   2.827  0.00  0.00    +0.005 A 
ATOM     11  C   UNL     1       7.330  -7.331   2.822  0.00  0.00    -0.049 A 
BRANCH   8  12
ATOM     12  S   UNL     1       9.106 -11.493   2.908  0.00  0.00    +0.056 S 
ATOM     13  O   UNL     1       8.121 -12.367   2.373  0.00  0.00    -0.153 OA
ATOM     14  O   UNL     1      10.412 -11.389   2.356  0.00  0.00    -0.153 OA
BRANCH  12  15
ATOM     15  N   UNL     1       9.297 -11.912   4.499  0.00  0.00    -0.204 NA
ATOM     16  H   UNL     1       9.038 -11.292   5.198  0.00  0.00    +0.144 HD
ATOM     17  H   UNL     1       9.668 -12.778   4.731  0.00  0.00    +0.144 HD
ENDBRANCH  12  15
ENDBRANCH   8  12
ENDBRANCH   5  11
ENDBRANCH   4   5
ENDBRANCH   1   4
BRANCH   1  18
ATOM     18  C   UNL     1       5.759  -3.698  -0.069  0.00  0.00    -0.007 C 
BRANCH  18  19
ATOM     19  C   UNL     1       5.168  -2.312  -0.058  0.00  0.00    +0.089 A 
ATOM     20  C   UNL     1       5.866  -1.160  -0.059  0.00  0.00    +0.043 A 
ATOM     21  C   UNL     1       4.928  -0.108  -0.045  0.00  0.00    +0.050 A 
ATOM     22  C   UNL     1       3.696  -0.683  -0.037  0.00  0.00    +0.135 A 
ATOM     23  O   UNL     1       3.857  -2.020  -0.039  0.00  0.00    -0.462 OA
BRANCH  22  24
ATOM     24  C   UNL     1       2.404   0.035  -0.021  0.00  0.00    +0.019 A 
ATOM     25  C   UNL     1       2.379   1.431  -0.013  0.00  0.00    +0.014 A 
ATOM     26  C   UNL     1       1.171   2.096   0.002  0.00  0.00    +0.040 A 
ATOM     27  C   UNL     1      -0.017   1.382   0.010  0.00  0.00    +0.142 A 
ATOM     28  C   UNL     1       0.002  -0.004   0.002  0.00  0.00    +0.077 A 
ATOM     29  C   UNL     1       1.206  -0.680  -0.013  0.00  0.00    +0.034 A 
ATOM     30 CL   UNL     1      -1.490  -0.891   0.011  0.00  0.00    -0.081 Cl
ATOM     31  F   UNL     1      -1.197   2.040   0.019  0.00  0.00    -0.204 F 
ENDBRANCH  22  24
ENDBRANCH  18  19
ENDBRANCH   1  18
TORSDOF 8
