REMARK  Name = ZINC12390630
REMARK  5 active torsions:
REMARK  status: ('A' for Active; 'I' for Inactive)
REMARK    1  A    between atoms: C_9  and  S_14
REMARK    2  A    between atoms: S_14  and  C_15
REMARK    3  A    between atoms: C_15  and  C_16
REMARK    4  A    between atoms: C_16  and  C_17
REMARK    5  A    between atoms: N_19  and  C_20
REMARK                            x       y       z     vdW  Elec       q    Type
REMARK                         _______ _______ _______ _____ _____    ______ ____
ROOT
ATOM      1  C   UNL     1       6.035   2.938   0.279  0.00  0.00    +0.079 C 
ENDROOT
BRANCH   1   2
ATOM      2  S   UNL     1       7.600   3.847   0.406  0.00  0.00    -0.148 S 
BRANCH   2  11
ATOM      3  C   UNL     1      13.896   0.346  -0.656  0.00  0.00    +0.000 A 
ATOM      4  C   UNL     1      13.234  -0.113  -1.782  0.00  0.00    +0.002 A 
ATOM      5  C   UNL     1      11.899   0.166  -1.943  0.00  0.00    +0.023 A 
ATOM      6  C   UNL     1      11.184   0.910  -0.988  0.00  0.00    +0.037 A 
ATOM      7  C   UNL     1      11.850   1.371   0.127  0.00  0.00    -0.026 A 
ATOM      8  C   UNL     1      13.206   1.078   0.282  0.00  0.00    +0.005 A 
ATOM      9  C   UNL     1      11.241   2.187   1.220  0.00  0.00    +0.038 C 
ATOM     10  C   UNL     1      10.198   3.173   0.792  0.00  0.00    +0.028 C 
ATOM     11  C   UNL     1       8.858   2.543   0.499  0.00  0.00    +0.133 C 
ATOM     12  C   UNL     1       8.867   1.788  -0.782  0.00  0.00    +0.230 C 
ATOM     13  O   UNL     1       7.846   1.820  -1.435  0.00  0.00    -0.274 OA
ATOM     14  N   UNL     1       9.853   1.097  -1.280  0.00  0.00    -0.284 N 
ATOM     15  H   UNL     1       9.578   0.583  -2.056  0.00  0.00    +0.155 HD
ENDBRANCH   2  11
ENDBRANCH   1   2
BRANCH   1  16
ATOM     16  C   UNL     1       4.875   3.931   0.193  0.00  0.00    +0.107 C 
BRANCH  16  17
ATOM     17  C   UNL     1       3.574   3.177   0.088  0.00  0.00    +0.218 C 
ATOM     18  O   UNL     1       3.576   1.964   0.082  0.00  0.00    -0.275 OA
ATOM     19  N   UNL     1       2.410   3.850  -0.000  0.00  0.00    -0.285 N 
ATOM     20  H   UNL     1       2.413   4.817  -0.076  0.00  0.00    +0.155 HD
BRANCH  19  21
ATOM     21  C   UNL     1       1.200   3.155   0.018  0.00  0.00    +0.043 A 
ATOM     22  C   UNL     1       1.118   1.915   0.615  0.00  0.00    +0.024 A 
ATOM     23  C   UNL     1      -0.085   1.217   0.638  0.00  0.00    +0.004 A 
ATOM     24  C   UNL     1      -1.210   1.733   0.069  0.00  0.00    +0.028 A 
ATOM     25  C   UNL     1      -1.172   2.996  -0.546  0.00  0.00    +0.073 A 
ATOM     26  C   UNL     1       0.049   3.715  -0.574  0.00  0.00    +0.022 A 
ATOM     27  C   UNL     1       0.085   4.976  -1.195  0.00  0.00    +0.013 A 
ATOM     28  C   UNL     1      -1.069   5.455  -1.748  0.00  0.00    +0.020 A 
ATOM     29  C   UNL     1      -2.236   4.698  -1.686  0.00  0.00    +0.111 A 
ATOM     30  N   UNL     1      -2.266   3.523  -1.107  0.00  0.00    -0.255 NA
ENDBRANCH  19  21
ENDBRANCH  16  17
ENDBRANCH   1  16
TORSDOF 5
