REMARK  Name = ZINC10566853
REMARK  12 active torsions:
REMARK  status: ('A' for Active; 'I' for Inactive)
REMARK    1  A    between atoms: C_1  and  C_2
REMARK    2  A    between atoms: C_2  and  C_3
REMARK    3  A    between atoms: C_3  and  C_4
REMARK    4  A    between atoms: C_4  and  N_5
REMARK    5  A    between atoms: C_6  and  N_31
REMARK    6  A    between atoms: C_7  and  N_14
REMARK    7  A    between atoms: N_14  and  C_15
REMARK    8  A    between atoms: N_14  and  C_19
REMARK    9  A    between atoms: C_15  and  C_16
REMARK   10  A    between atoms: C_16  and  O_17
REMARK   11  A    between atoms: O_17  and  C_18
REMARK   12  A    between atoms: C_19  and  C_20
REMARK                            x       y       z     vdW  Elec       q    Type
REMARK                         _______ _______ _______ _____ _____    ______ ____
ROOT
ATOM      1  N   UNL     1      -1.462  -4.444   2.381  0.00  0.00    -0.317 N 
ENDROOT
BRANCH   1   4
ATOM      2  N   UNL     1      -1.103  -0.996   1.176  0.00  0.00    -0.280 N 
ATOM      3  C   UNL     1      -1.205  -2.067   2.034  0.00  0.00    +0.127 A 
ATOM      4  C   UNL     1      -1.355  -3.327   1.521  0.00  0.00    +0.134 A 
ATOM      5  C   UNL     1      -1.401  -3.494   0.125  0.00  0.00    +0.277 A 
ATOM      6  O   UNL     1      -1.534  -4.606  -0.356  0.00  0.00    -0.266 OA
ATOM      7  N   UNL     1      -1.297  -2.416  -0.677  0.00  0.00    -0.273 N 
ATOM      8  H   UNL     1      -1.326  -2.533  -1.670  0.00  0.00    +0.173 HD
ATOM      9  C   UNL     1      -1.156  -1.184  -0.156  0.00  0.00    +0.331 A 
ATOM     10  O   UNL     1      -1.070  -0.226  -0.899  0.00  0.00    -0.246 OA
BRANCH   3  11
ATOM     11  N   UNL     1      -1.157  -1.873   3.396  0.00  0.00    -0.343 N 
ATOM     12  H   UNL     1      -1.051  -0.978   3.755  0.00  0.00    +0.144 HD
ATOM     13  H   UNL     1      -1.229  -2.631   3.997  0.00  0.00    +0.144 HD
ENDBRANCH   3  11
BRANCH   2  14
ATOM     14  C   UNL     1      -0.943   0.356   1.714  0.00  0.00    +0.128 C 
BRANCH  14  15
ATOM     15  C   UNL     1       0.547   0.668   1.874  0.00  0.00    +0.021 C 
BRANCH  15  17
ATOM     16  C   UNL     1       2.204   2.393   2.596  0.00  0.00    +0.004 C 
ATOM     17  C   UNL     1       0.715   2.081   2.437  0.00  0.00    -0.002 C 
ENDBRANCH  15  17
ENDBRANCH  14  15
ENDBRANCH   2  14
ENDBRANCH   1   4
BRANCH   1  18
ATOM     18  C   UNL     1      -0.328  -5.359   2.200  0.00  0.00    +0.133 C 
BRANCH  18  19
ATOM     19  C   UNL     1      -0.224  -6.290   3.410  0.00  0.00    +0.178 C 
BRANCH  19  20
ATOM     20  O   UNL     1      -1.337  -7.186   3.418  0.00  0.00    -0.381 OA
ATOM     21  C   UNL     1      -1.372  -8.058   4.550  0.00  0.00    +0.194 C 
ENDBRANCH  19  20
ENDBRANCH  18  19
ENDBRANCH   1  18
BRANCH   1  22
ATOM     22  C   UNL     1      -2.739  -5.143   2.180  0.00  0.00    +0.141 C 
BRANCH  22  23
ATOM     23  C   UNL     1      -3.876  -4.230   2.559  0.00  0.00    -0.013 A 
ATOM     24  C   UNL     1      -4.622  -3.611   1.574  0.00  0.00    +0.055 A 
ATOM     25  C   UNL     1      -5.673  -2.774   1.920  0.00  0.00    +0.162 A 
ATOM     26  C   UNL     1      -5.968  -2.552   3.260  0.00  0.00    +0.163 A 
ATOM     27  C   UNL     1      -5.212  -3.171   4.244  0.00  0.00    +0.065 A 
ATOM     28  C   UNL     1      -4.168  -4.008   3.893  0.00  0.00    +0.026 A 
ATOM     29 BR   UNL     1      -3.139  -4.849   5.237  0.00  0.00    -0.050 Br
ATOM     30  O   UNL     1      -6.995  -1.735   3.622  0.00  0.00    -0.485 OA
ATOM     31  C   UNL     1      -7.491  -0.843   2.618  0.00  0.00    +0.270 C 
ATOM     32  C   UNL     1      -7.672  -1.637   1.317  0.00  0.00    +0.270 C 
ATOM     33  O   UNL     1      -6.399  -2.173   0.938  0.00  0.00    -0.485 OA
ENDBRANCH  22  23
ENDBRANCH   1  22
TORSDOF 10
