REMARK  Name = ZINC01442109
REMARK  15 active torsions:
REMARK  status: ('A' for Active; 'I' for Inactive)
REMARK    1  A    between atoms: C_1  and  C_2
REMARK    2  A    between atoms: C_2  and  O_3
REMARK    3  A    between atoms: O_3  and  C_4
REMARK    4  A    between atoms: C_4  and  C_6
REMARK    5  A    between atoms: C_7  and  C_40
REMARK    6  A    between atoms: C_11  and  C_13
REMARK    7  A    between atoms: C_15  and  O_23
REMARK    8  A    between atoms: C_16  and  O_21
REMARK    9  A    between atoms: C_17  and  O_19
REMARK   10  A    between atoms: O_19  and  C_20
REMARK   11  A    between atoms: O_21  and  C_22
REMARK   12  A    between atoms: O_23  and  C_24
REMARK   13  A    between atoms: C_28  and  C_30
REMARK   14  A    between atoms: C_30  and  O_39
REMARK   15  A    between atoms: N_31  and  C_32
REMARK                            x       y       z     vdW  Elec       q    Type
REMARK                         _______ _______ _______ _____ _____    ______ ____
ROOT
ATOM      1  C   UNL     1       1.439  -2.365  -2.404  0.00  0.00    +0.083 C 
ATOM      2  C   UNL     1       1.659  -3.709  -2.474  0.00  0.00    +0.053 C 
ATOM      3  N   UNL     1       2.317  -4.245  -3.502  0.00  0.00    -0.230 NA
ATOM      4  C   UNL     1       2.984  -3.495  -4.352  0.00  0.00    +0.169 C 
ATOM      5  N   UNL     1       3.002  -2.127  -4.236  0.00  0.00    -0.235 N 
ATOM      6  C   UNL     1       1.883  -1.473  -3.538  0.00  0.00    +0.153 C 
ATOM      7  C   UNL     1       4.014  -1.398  -4.718  0.00  0.00    +0.247 C 
ATOM      8  O   UNL     1       3.925  -0.189  -4.603  0.00  0.00    -0.270 OA
ATOM      9  C   UNL     1       5.164  -1.889  -5.340  0.00  0.00    +0.088 C 
ATOM     10  C   UNL     1       5.274  -3.158  -5.826  0.00  0.00    +0.082 C 
ATOM     11  S   UNL     1       3.861  -4.220  -5.705  0.00  0.00    -0.048 S 
ATOM     12  C   UNL     1       1.148  -4.602  -1.373  0.00  0.00    +0.066 C 
ENDROOT
BRANCH   6  13
ATOM     13  C   UNL     1       0.737  -1.263  -4.495  0.00  0.00    -0.015 A 
ATOM     14  C   UNL     1       0.427  -2.238  -5.424  0.00  0.00    +0.055 A 
ATOM     15  C   UNL     1      -0.626  -2.049  -6.306  0.00  0.00    +0.165 A 
ATOM     16  C   UNL     1      -1.371  -0.876  -6.254  0.00  0.00    +0.204 A 
ATOM     17  C   UNL     1      -1.056   0.102  -5.318  0.00  0.00    +0.165 A 
ATOM     18  C   UNL     1      -0.005  -0.098  -4.436  0.00  0.00    +0.055 A 
BRANCH  17  19
ATOM     19  O   UNL     1      -1.782   1.251  -5.264  0.00  0.00    -0.491 OA
ATOM     20  C   UNL     1      -1.402   2.212  -4.277  0.00  0.00    +0.277 C 
ENDBRANCH  17  19
BRANCH  16  21
ATOM     21  O   UNL     1      -2.405  -0.686  -7.119  0.00  0.00    -0.488 OA
ATOM     22  C   UNL     1      -3.693  -1.138  -6.697  0.00  0.00    +0.277 C 
ENDBRANCH  16  21
BRANCH  15  23
ATOM     23  O   UNL     1      -0.929  -3.008  -7.220  0.00  0.00    -0.491 OA
ATOM     24  C   UNL     1      -0.121  -4.187  -7.216  0.00  0.00    +0.277 C 
ENDBRANCH  15  23
ENDBRANCH   6  13
BRANCH   1  25
ATOM     25  C   UNL     1       0.797  -1.814  -1.284  0.00  0.00    +0.339 C 
ATOM     26  O   UNL     1       1.454  -1.280  -0.408  0.00  0.00    -0.245 OA
BRANCH  25  27
ATOM     27  O   UNL     1      -0.548  -1.877  -1.177  0.00  0.00    -0.462 OA
BRANCH  27  29
ATOM     28  C   UNL     1      -2.653  -1.462  -0.066  0.00  0.00    +0.048 C 
ATOM     29  C   UNL     1      -1.133  -1.295  -0.010  0.00  0.00    +0.229 C 
ENDBRANCH  27  29
ENDBRANCH  25  27
ENDBRANCH   1  25
BRANCH  10  30
ATOM     30  C   UNL     1       6.530  -3.633  -6.434  0.00  0.00    +0.227 C 
ATOM     31  N   UNL     1       6.614  -4.855  -6.894  0.00  0.00    -0.213 NA
BRANCH  31  32
ATOM     32  C   UNL     1       7.814  -5.339  -7.333  0.00  0.00    +0.068 A 
ATOM     33  C   UNL     1       8.925  -5.334  -6.485  0.00  0.00    +0.029 A 
ATOM     34  C   UNL     1      10.133  -5.825  -6.935  0.00  0.00    +0.022 A 
ATOM     35  C   UNL     1      10.246  -6.322  -8.223  0.00  0.00    +0.041 A 
ATOM     36  C   UNL     1       9.149  -6.329  -9.068  0.00  0.00    +0.022 A 
ATOM     37  C   UNL     1       7.934  -5.846  -8.630  0.00  0.00    +0.029 A 
ATOM     38 CL   UNL     1      11.771  -6.937  -8.780  0.00  0.00    -0.084 Cl
ENDBRANCH  31  32
BRANCH  30  39
ATOM     39  O   UNL     1       7.598  -2.804  -6.516  0.00  0.00    -0.492 OA
ATOM     40  H   UNL     1       8.395  -3.224  -6.866  0.00  0.00    +0.294 HD
ENDBRANCH  30  39
ENDBRANCH  10  30
TORSDOF 10
