REMARK  Name = ZINC19597730
REMARK  7 active torsions:
REMARK  status: ('A' for Active; 'I' for Inactive)
REMARK    1  A    between atoms: C_1  and  C_2
REMARK    2  A    between atoms: C_2  and  C_3
REMARK    3  A    between atoms: C_6  and  C_9
REMARK    4  A    between atoms: C_9  and  C_10
REMARK    5  A    between atoms: C_10  and  C_11
REMARK    6  A    between atoms: C_18  and  C_25
REMARK    7  A    between atoms: C_20  and  O_21
REMARK                            x       y       z     vdW  Elec       q    Type
REMARK                         _______ _______ _______ _____ _____    ______ ____
ROOT
ATOM      1  C   UNL     1      -2.683   2.932   7.241  0.00  0.00    +0.218 C 
ATOM      2  O   UNL     1      -3.672   3.626   7.142  0.00  0.00    -0.275 OA
ATOM      3  N   UNL     1      -2.210   2.603   8.460  0.00  0.00    -0.285 N 
ATOM      4  C   UNL     1      -2.801   3.138   9.605  0.00  0.00    +0.037 A 
ATOM      5  C   UNL     1      -2.011   3.440  10.714  0.00  0.00    +0.024 A 
ATOM      6  C   UNL     1      -2.573   3.969  11.839  0.00  0.00    +0.013 A 
ATOM      7  C   UNL     1      -3.953   4.199  11.885  0.00  0.00    +0.021 A 
ATOM      8  C   UNL     1      -4.584   4.761  13.082  0.00  0.00    -0.033 A 
ATOM      9  C   UNL     1      -5.927   4.961  13.065  0.00  0.00    +0.091 A 
ATOM     10  C   UNL     1      -6.672   4.629  11.914  0.00  0.00    +0.285 A 
ATOM     11  O   UNL     1      -6.088   4.115  10.821  0.00  0.00    -0.425 OA
ATOM     12  C   UNL     1      -4.757   3.891  10.772  0.00  0.00    +0.141 A 
ATOM     13  C   UNL     1      -4.169   3.359   9.634  0.00  0.00    +0.070 A 
ATOM     14  C   UNL     1      -3.765   5.107  14.298  0.00  0.00    +0.045 C 
ATOM     15  H   UNL     1      -1.359   1.913   8.551  0.00  0.00    +0.155 HD
ENDROOT
BRANCH  10  16
ATOM     16  O   UNL     1      -7.876   4.814  11.913  0.00  0.00    -0.480 OA
ATOM     17  H   UNL     1      -8.470   4.559  11.023  0.00  0.00    +0.295 HD
ENDBRANCH  10  16
BRANCH   1  18
ATOM     18  C   UNL     1      -1.982   2.437   6.002  0.00  0.00    +0.101 C 
BRANCH  18  19
ATOM     19  C   UNL     1      -2.717   2.950   4.762  0.00  0.00    +0.044 C 
BRANCH  19  23
ATOM     20  C   UNL     1      -0.733   1.548   1.248  0.00  0.00    -0.048 A 
ATOM     21  C   UNL     1      -0.362   2.752   1.817  0.00  0.00    +0.004 A 
ATOM     22  C   UNL     1      -1.007   3.208   2.952  0.00  0.00    +0.004 A 
ATOM     23  C   UNL     1      -2.016   2.455   3.523  0.00  0.00    -0.047 A 
ATOM     24  C   UNL     1      -2.383   1.248   2.957  0.00  0.00    +0.004 A 
ATOM     25  C   UNL     1      -1.741   0.794   1.820  0.00  0.00    +0.004 A 
BRANCH  20  27
ATOM     26  C   UNL     1      -0.769   1.566  -1.231  0.00  0.00    +0.009 C 
ATOM     27  C   UNL     1      -0.033   1.053   0.009  0.00  0.00    +0.032 C 
ENDBRANCH  20  27
ENDBRANCH  19  23
ENDBRANCH  18  19
ENDBRANCH   1  18
TORSDOF 5
