REMARK  Name = ZINC28658365
REMARK  8 active torsions:
REMARK  status: ('A' for Active; 'I' for Inactive)
REMARK    1  A    between atoms: C_1  and  N_2
REMARK    2  A    between atoms: C_3  and  C_13
REMARK    3  A    between atoms: C_13  and  S_14
REMARK    4  A    between atoms: S_14  and  C_15
REMARK    5  A    between atoms: N_16  and  C_17
REMARK    6  A    between atoms: C_17  and  C_18
REMARK    7  A    between atoms: C_23  and  O_24
REMARK    8  A    between atoms: O_24  and  C_25
REMARK                            x       y       z     vdW  Elec       q    Type
REMARK                         _______ _______ _______ _____ _____    ______ ____
ROOT
ATOM      1  C   UNL     1      -5.173  -2.692  -0.071  0.00  0.00    +0.126 C 
ATOM      2  N   UNL     1      -4.939  -3.970   0.037  0.00  0.00    -0.364 N 
ATOM      3  N   UNL     1      -6.466  -2.238  -0.198  0.00  0.00    -0.339 N 
ATOM      4  H   UNL     1      -7.301  -2.953  -0.209  0.00  0.00    +0.144 HD
ATOM      5  H   UNL     1      -6.663  -1.160  -0.290  0.00  0.00    +0.144 HD
ATOM      6  H   UNL     1      -3.912  -4.329   0.202  0.00  0.00    +0.162 HD
ENDROOT
BRANCH   1   7
ATOM      7  S   UNL     1      -3.835  -1.546  -0.053  0.00  0.00    -0.085 S 
BRANCH   7   8
ATOM      8  C   UNL     1      -2.444  -2.690   0.131  0.00  0.00    +0.151 C 
BRANCH   8  11
ATOM      9  C   UNL     1      -0.018  -4.059   0.407  0.00  0.00    +0.153 C 
ATOM     10  N   UNL     1       0.009  -2.598   0.305  0.00  0.00    -0.299 N 
ATOM     11  C   UNL     1      -1.155  -1.911   0.170  0.00  0.00    +0.123 A 
ATOM     12  N   UNL     1      -1.214  -0.618   0.074  0.00  0.00    -0.233 NA
ATOM     13  C   UNL     1      -0.095   0.149   0.102  0.00  0.00    +0.078 A 
ATOM     14  C   UNL     1      -0.157   1.540  -0.001  0.00  0.00    +0.028 A 
ATOM     15  C   UNL     1       1.004   2.279   0.032  0.00  0.00    +0.002 A 
ATOM     16  C   UNL     1       2.239   1.658   0.168  0.00  0.00    +0.001 A 
ATOM     17  C   UNL     1       2.326   0.287   0.271  0.00  0.00    +0.015 A 
ATOM     18  C   UNL     1       1.163  -0.479   0.239  0.00  0.00    +0.065 A 
ATOM     19  C   UNL     1       1.194  -1.945   0.346  0.00  0.00    +0.262 A 
ATOM     20  O   UNL     1       2.245  -2.548   0.466  0.00  0.00    -0.267 OA
ENDBRANCH   8  11
ENDBRANCH   7   8
ENDBRANCH   1   7
BRANCH   2  21
ATOM     21  C   UNL     1      -6.043  -4.928  -0.060  0.00  0.00    +0.153 C 
BRANCH  21  22
ATOM     22  C   UNL     1      -5.865  -5.776  -1.293  0.00  0.00    +0.013 A 
ATOM     23  C   UNL     1      -6.585  -5.491  -2.438  0.00  0.00    +0.009 A 
ATOM     24  C   UNL     1      -6.419  -6.265  -3.571  0.00  0.00    +0.001 A 
ATOM     25  C   UNL     1      -5.540  -7.333  -3.559  0.00  0.00    +0.004 A 
ATOM     26  C   UNL     1      -4.823  -7.626  -2.415  0.00  0.00    +0.046 A 
ATOM     27  C   UNL     1      -4.984  -6.847  -1.278  0.00  0.00    +0.125 A 
BRANCH  27  28
ATOM     28  O   UNL     1      -4.279  -7.133  -0.152  0.00  0.00    -0.495 OA
ATOM     29  C   UNL     1      -3.390  -8.250  -0.209  0.00  0.00    +0.277 C 
ENDBRANCH  27  28
ENDBRANCH  21  22
ENDBRANCH   2  21
TORSDOF 6
