REMARK  Name = ZINC12139875
REMARK  19 active torsions:
REMARK  status: ('A' for Active; 'I' for Inactive)
REMARK    1  A    between atoms: C_1  and  C_2
REMARK    2  A    between atoms: C_6  and  C_41
REMARK    3  A    between atoms: C_8  and  O_11
REMARK    4  A    between atoms: O_11  and  P_12
REMARK    5  A    between atoms: P_12  and  C_14
REMARK    6  A    between atoms: P_12  and  O_27
REMARK    7  A    between atoms: C_14  and  C_16
REMARK    8  A    between atoms: C_14  and  O_26
REMARK    9  A    between atoms: C_19  and  O_24
REMARK   10  A    between atoms: C_20  and  O_22
REMARK   11  A    between atoms: O_22  and  C_23
REMARK   12  A    between atoms: O_24  and  C_25
REMARK   13  A    between atoms: O_27  and  C_28
REMARK   14  A    between atoms: C_31  and  C_40
REMARK   15  A    between atoms: C_35  and  C_37
REMARK   16  A    between atoms: C_37  and  C_38
REMARK   17  A    between atoms: C_37  and  C_39
REMARK   18  A    between atoms: C_41  and  C_42
REMARK   19  A    between atoms: C_41  and  C_43
REMARK                            x       y       z     vdW  Elec       q    Type
REMARK                         _______ _______ _______ _____ _____    ______ ____
ROOT
ATOM      1  P   UNL     1      -0.821   0.942   2.074  0.00  0.00    +0.366 P 
ATOM      2  O   UNL     1       0.299   0.232   2.732  0.00  0.00    -0.255 OA
ENDROOT
BRANCH   1   3
ATOM      3  O   UNL     1      -0.267   1.750   0.796  0.00  0.00    -0.302 OA
BRANCH   3   9
ATOM      4  C   UNL     1      -0.280   5.442  -1.370  0.00  0.00    +0.007 C 
ATOM      5  C   UNL     1       0.032   3.996  -0.978  0.00  0.00    -0.012 C 
ATOM      6  C   UNL     1       1.039   3.406  -1.967  0.00  0.00    +0.004 C 
ATOM      7  C   UNL     1       1.351   1.960  -1.575  0.00  0.00    +0.006 C 
ATOM      8  C   UNL     1       1.943   1.930  -0.164  0.00  0.00    +0.021 C 
ATOM      9  C   UNL     1       0.935   2.521   0.824  0.00  0.00    +0.132 C 
ATOM     10  C   UNL     1       0.624   3.966   0.432  0.00  0.00    +0.035 C 
BRANCH   8  11
ATOM     11  C   UNL     1       2.255   0.484   0.227  0.00  0.00    -0.012 C 
ATOM     12  C   UNL     1       3.184  -0.138  -0.816  0.00  0.00    +0.007 C 
ATOM     13  C   UNL     1       2.938   0.463   1.596  0.00  0.00    +0.007 C 
ENDBRANCH   8  11
ENDBRANCH   3   9
ENDBRANCH   1   3
BRANCH   1  14
ATOM     14  C   UNL     1      -1.576   2.111   3.252  0.00  0.00    +0.258 C 
BRANCH  14  15
ATOM     15  C   UNL     1      -0.491   2.820   4.020  0.00  0.00    -0.004 A 
ATOM     16  C   UNL     1       0.148   2.177   5.064  0.00  0.00    +0.010 A 
ATOM     17  C   UNL     1       1.148   2.822   5.769  0.00  0.00    +0.050 A 
ATOM     18  C   UNL     1       1.504   4.119   5.436  0.00  0.00    +0.162 A 
ATOM     19  C   UNL     1       0.857   4.768   4.389  0.00  0.00    +0.162 A 
ATOM     20  C   UNL     1      -0.140   4.114   3.683  0.00  0.00    +0.056 A 
BRANCH  19  21
ATOM     21  O   UNL     1       1.203   6.041   4.059  0.00  0.00    -0.491 OA
ATOM     22  C   UNL     1       0.451   6.669   3.018  0.00  0.00    +0.277 C 
ENDBRANCH  19  21
BRANCH  18  23
ATOM     23  O   UNL     1       2.483   4.757   6.132  0.00  0.00    -0.491 OA
ATOM     24  C   UNL     1       3.103   4.029   7.194  0.00  0.00    +0.277 C 
ENDBRANCH  18  23
ENDBRANCH  14  15
BRANCH  14  25
ATOM     25  O   UNL     1      -2.414   1.396   4.162  0.00  0.00    -0.375 OA
ATOM     26  H   UNL     1      -1.949   0.727   4.682  0.00  0.00    +0.211 HD
ENDBRANCH  14  25
ENDBRANCH   1  14
BRANCH   1  27
ATOM     27  O   UNL     1      -1.926  -0.127   1.596  0.00  0.00    -0.302 OA
BRANCH  27  28
ATOM     28  C   UNL     1      -1.632  -1.205   0.705  0.00  0.00    +0.132 C 
ATOM     29  C   UNL     1      -2.342  -0.971  -0.630  0.00  0.00    +0.035 C 
ATOM     30  C   UNL     1      -3.853  -0.898  -0.399  0.00  0.00    -0.012 C 
ATOM     31  C   UNL     1      -4.339  -2.213   0.213  0.00  0.00    +0.004 C 
ATOM     32  C   UNL     1      -3.630  -2.447   1.548  0.00  0.00    +0.006 C 
ATOM     33  C   UNL     1      -2.119  -2.520   1.317  0.00  0.00    +0.021 C 
ATOM     34  C   UNL     1      -4.562  -0.664  -1.734  0.00  0.00    +0.007 C 
BRANCH  33  35
ATOM     35  C   UNL     1      -1.409  -2.754   2.652  0.00  0.00    -0.012 C 
ATOM     36  C   UNL     1      -1.896  -4.069   3.265  0.00  0.00    +0.007 C 
ATOM     37  C   UNL     1       0.101  -2.827   2.421  0.00  0.00    +0.007 C 
ENDBRANCH  33  35
ENDBRANCH  27  28
ENDBRANCH   1  27
TORSDOF 11
