REMARK  Name = ZINC33308164
REMARK  3 active torsions:
REMARK  status: ('A' for Active; 'I' for Inactive)
REMARK    1  A    between atoms: C_6  and  C_7
REMARK    2  A    between atoms: N_8  and  N_9
REMARK    3  A    between atoms: C_10  and  C_12
REMARK                            x       y       z     vdW  Elec       q    Type
REMARK                         _______ _______ _______ _____ _____    ______ ____
ROOT
ATOM      1  N   UNL     1      -1.649  -2.335   1.128  0.00  0.00    -0.207 N 
ATOM      2  C   UNL     1      -1.905  -1.027   0.931  0.00  0.00    +0.236 C 
ATOM      3  O   UNL     1      -1.737  -0.233   1.832  0.00  0.00    -0.274 OA
ATOM      4  H   UNL     1      -1.801  -3.055   0.311  0.00  0.00    +0.177 HD
ENDROOT
BRANCH   2   5
ATOM      5  C   UNL     1      -2.401  -0.550  -0.410  0.00  0.00    +0.083 C 
ATOM      6  C   UNL     1      -3.708  -1.159  -0.942  0.00  0.00    +0.005 C 
ATOM      7  C   UNL     1      -3.682   0.274  -0.435  0.00  0.00    +0.005 C 
ATOM      8  C   UNL     1      -4.377   0.632   0.870  0.00  0.00    +0.004 C 
ATOM      9  C   UNL     1      -4.552  -0.611   1.742  0.00  0.00    +0.000 C 
ATOM     10  C   UNL     1      -5.292  -1.678   0.929  0.00  0.00    +0.000 C 
ATOM     11  C   UNL     1      -4.323  -2.271  -0.094  0.00  0.00    +0.004 C 
ENDBRANCH   2   5
BRANCH   1  13
ATOM     12  C   UNL     1      -0.821  -4.013   2.529  0.00  0.00    +0.138 C 
ATOM     13  N   UNL     1      -1.187  -2.778   2.375  0.00  0.00    -0.188 NA
BRANCH  12  19
ATOM     14  C   UNL     1      -0.238  -6.182   1.456  0.00  0.00    +0.010 A 
ATOM     15  C   UNL     1       0.201  -6.905   0.367  0.00  0.00    +0.016 A 
ATOM     16  C   UNL     1       0.548  -6.254  -0.805  0.00  0.00    +0.018 A 
ATOM     17  C   UNL     1       0.451  -4.876  -0.894  0.00  0.00    +0.016 A 
ATOM     18  C   UNL     1       0.006  -4.142   0.185  0.00  0.00    +0.010 A 
ATOM     19  C   UNL     1      -0.345  -4.792   1.371  0.00  0.00    -0.005 A 
ATOM     20 BR   UNL     1       1.158  -7.253  -2.291  0.00  0.00    -0.050 Br
ENDBRANCH  12  19
ENDBRANCH   1  13
TORSDOF 3
