REMARK  Name = ZINC08994392
REMARK  7 active torsions:
REMARK  status: ('A' for Active; 'I' for Inactive)
REMARK    1  A    between atoms: C_1  and  C_2
REMARK    2  A    between atoms: C_2  and  N_55
REMARK    3  A    between atoms: C_15  and  C_17
REMARK    4  A    between atoms: C_18  and  O_32
REMARK    5  A    between atoms: C_20  and  O_31
REMARK    6  A    between atoms: N_21  and  C_24
REMARK    7  A    between atoms: C_28  and  C_30
REMARK                            x       y       z     vdW  Elec       q    Type
REMARK                         _______ _______ _______ _____ _____    ______ ____
ROOT
ATOM      1  C   UNL     1       0.134  -4.174   0.077  0.00  0.00    +0.071 A 
ATOM      2  C   UNL     1       1.365  -4.794  -0.045  0.00  0.00    +0.224 A 
ATOM      3  N   UNL     1       2.474  -4.054  -0.149  0.00  0.00    -0.161 NA
ATOM      4  C   UNL     1       2.421  -2.741  -0.139  0.00  0.00    +0.306 A 
ATOM      5  N   UNL     1       1.237  -2.082  -0.021  0.00  0.00    -0.231 N 
ATOM      6  C   UNL     1       0.085  -2.775   0.093  0.00  0.00    +0.267 A 
ATOM      7  O   UNL     1      -0.982  -2.192   0.204  0.00  0.00    -0.267 OA
ENDROOT
BRANCH   1  20
ATOM      8  C   UNL     1      -3.203  -5.193   1.444  0.00  0.00    -0.073 C 
ATOM      9  C   UNL     1      -4.099  -4.560   0.371  0.00  0.00    +0.019 C 
ATOM     10  C   UNL     1      -3.337  -4.558  -0.930  0.00  0.00    -0.022 A 
ATOM     11  C   UNL     1      -3.825  -4.367  -2.278  0.00  0.00    +0.003 A 
ATOM     12  C   UNL     1      -5.098  -4.128  -2.803  0.00  0.00    +0.010 A 
ATOM     13  C   UNL     1      -5.193  -3.997  -4.167  0.00  0.00    +0.001 A 
ATOM     14  C   UNL     1      -4.087  -4.095  -4.995  0.00  0.00    +0.002 A 
ATOM     15  C   UNL     1      -2.815  -4.331  -4.502  0.00  0.00    +0.026 A 
ATOM     16  C   UNL     1      -2.688  -4.468  -3.122  0.00  0.00    +0.047 A 
ATOM     17  N   UNL     1      -1.606  -4.700  -2.321  0.00  0.00    -0.359 N 
ATOM     18  H   UNL     1      -0.694  -4.812  -2.634  0.00  0.00    +0.166 HD
ATOM     19  C   UNL     1      -2.001  -4.753  -1.012  0.00  0.00    +0.011 A 
ATOM     20  C   UNL     1      -1.128  -4.989   0.197  0.00  0.00    +0.021 C 
ATOM     21  N   UNL     1      -1.875  -4.543   1.398  0.00  0.00    +0.388 N 
ATOM     22  H   UNL     1      -2.004  -3.526   1.350  0.00  0.00    -0.080 HD
BRANCH  21  24
ATOM     23  C   UNL     1      -1.790  -4.211   3.818  0.00  0.00    -0.017 C 
ATOM     24  C   UNL     1      -1.110  -4.873   2.618  0.00  0.00    -0.081 C 
ENDBRANCH  21  24
ENDBRANCH   1  20
BRANCH   5  25
ATOM     25  C   UNL     1       1.215  -0.680  -0.013  0.00  0.00    +0.055 A 
ATOM     26  C   UNL     1       1.322   0.010   1.187  0.00  0.00    +0.026 A 
ATOM     27  C   UNL     1       1.300   1.391   1.192  0.00  0.00    +0.002 A 
ATOM     28  C   UNL     1       1.170   2.086   0.003  0.00  0.00    +0.003 A 
ATOM     29  C   UNL     1       1.062   1.401  -1.193  0.00  0.00    -0.048 A 
ATOM     30  C   UNL     1       1.085   0.020  -1.205  0.00  0.00    +0.029 A 
ATOM     31  C   UNL     1       0.921   2.162  -2.486  0.00  0.00    +0.044 C 
ENDBRANCH   5  25
BRANCH   4  32
ATOM     32  O   UNL     1       3.564  -2.033  -0.247  0.00  0.00    -0.479 OA
ATOM     33  H   UNL     1       4.386  -2.536  -0.329  0.00  0.00    +0.295 HD
ENDBRANCH   4  32
BRANCH   2  34
ATOM     34  O   UNL     1       1.447  -6.145  -0.058  0.00  0.00    -0.492 OA
ATOM     35  H   UNL     1       2.348  -6.484  -0.146  0.00  0.00    +0.294 HD
ENDBRANCH   2  34
TORSDOF 5
