REMARK  Name = ZINC36294913
REMARK  4 active torsions:
REMARK  status: ('A' for Active; 'I' for Inactive)
REMARK    1  A    between atoms: C_3  and  C_6
REMARK    2  A    between atoms: C_7  and  C_24
REMARK    3  A    between atoms: C_9  and  C_14
REMARK    4  A    between atoms: C_24  and  C_25
REMARK                            x       y       z     vdW  Elec       q    Type
REMARK                         _______ _______ _______ _____ _____    ______ ____
ROOT
ATOM      1  C   UNL     1       3.575   0.619  -0.029  0.00  0.00    +0.129 A 
ATOM      2  C   UNL     1       4.357  -0.306   0.584  0.00  0.00    +0.069 A 
ATOM      3  N   UNL     1       5.682   0.025   0.322  0.00  0.00    -0.289 N 
ATOM      4  C   UNL     1       6.942  -0.463   0.622  0.00  0.00    +0.063 A 
ATOM      5  C   UNL     1       8.041   0.165   0.163  0.00  0.00    +0.075 A 
ATOM      6  S   UNL     1       7.334   1.526  -0.752  0.00  0.00    -0.057 S 
ATOM      7  C   UNL     1       5.621   1.154  -0.451  0.00  0.00    +0.179 A 
ATOM      8  N   UNL     1       4.383   1.497  -0.660  0.00  0.00    -0.218 NA
ENDROOT
BRANCH   4   9
ATOM      9  C   UNL     1       7.082  -1.679   1.452  0.00  0.00    +0.003 A 
ATOM     10  C   UNL     1       6.622  -2.908   0.977  0.00  0.00    +0.014 A 
ATOM     11  C   UNL     1       6.752  -4.040   1.753  0.00  0.00    +0.050 A 
ATOM     12  C   UNL     1       7.341  -3.963   3.008  0.00  0.00    +0.162 A 
ATOM     13  C   UNL     1       7.804  -2.742   3.487  0.00  0.00    +0.163 A 
ATOM     14  C   UNL     1       7.680  -1.603   2.710  0.00  0.00    +0.059 A 
ATOM     15  O   UNL     1       8.391  -2.652   4.712  0.00  0.00    -0.485 OA
ATOM     16  C   UNL     1       8.169  -3.741   5.614  0.00  0.00    +0.270 C 
ATOM     17  C   UNL     1       8.386  -5.052   4.847  0.00  0.00    +0.270 C 
ATOM     18  O   UNL     1       7.456  -5.094   3.759  0.00  0.00    -0.485 OA
ENDBRANCH   4   9
BRANCH   1  21
ATOM     19  C   UNL     1      -0.016   1.343   0.009  0.00  0.00    +0.042 A 
ATOM     20  C   UNL     1       1.326   1.774  -0.001  0.00  0.00    +0.051 A 
ATOM     21  C   UNL     1       2.097   0.654  -0.015  0.00  0.00    +0.155 A 
ATOM     22  O   UNL     1       1.281  -0.417  -0.012  0.00  0.00    -0.461 OA
ATOM     23  C   UNL     1       0.002  -0.004   0.002  0.00  0.00    +0.196 A 
ENDBRANCH   1  21
BRANCH   2  24
ATOM     24  C   UNL     1       3.876  -1.478   1.400  0.00  0.00    +0.174 C 
BRANCH  24  25
ATOM     25  C   UNL     1       3.750  -1.075   2.810  0.00  0.00    +0.069 C 
ATOM     26  N   UNL     1       3.653  -0.764   3.898  0.00  0.00    -0.196 NA
ENDBRANCH  24  25
ENDBRANCH   2  24
TORSDOF 4
