REMARK  Name = ZINC61813380
REMARK  3 active torsions:
REMARK  status: ('A' for Active; 'I' for Inactive)
REMARK    1  A    between atoms: C_4  and  C_13
REMARK    2  A    between atoms: C_6  and  N_7
REMARK    3  A    between atoms: C_13  and  N_15
REMARK                            x       y       z     vdW  Elec       q    Type
REMARK                         _______ _______ _______ _____ _____    ______ ____
ROOT
ATOM      1  C   UNL     1      -0.017   1.389   0.010  0.00  0.00    +0.047 A 
ATOM      2  C   UNL     1       1.180   2.082   0.002  0.00  0.00    +0.113 A 
ATOM      3  N   UNL     1       2.332   1.445  -0.013  0.00  0.00    -0.253 NA
ATOM      4  C   UNL     1       2.398   0.118  -0.021  0.00  0.00    +0.094 A 
ATOM      5  C   UNL     1       1.236  -0.649  -0.014  0.00  0.00    +0.058 A 
ATOM      6  C   UNL     1       0.002  -0.004   0.002  0.00  0.00    +0.069 A 
ENDROOT
BRANCH   6   7
ATOM      7  N   UNL     1      -1.190  -0.737   0.010  0.00  0.00    -0.239 N 
ATOM      8  C   UNL     1      -2.446  -0.225  -0.076  0.00  0.00    +0.129 A 
ATOM      9  C   UNL     1      -3.314  -1.262  -0.033  0.00  0.00    +0.056 A 
ATOM     10  C   UNL     1      -2.572  -2.443   0.082  0.00  0.00    +0.150 A 
ATOM     11  N   UNL     1      -1.301  -2.131   0.102  0.00  0.00    -0.174 NA
ATOM     12 BR   UNL     1      -5.199  -1.137  -0.115  0.00  0.00    -0.047 Br
ENDBRANCH   6   7
BRANCH   4  13
ATOM     13  C   UNL     1       3.717  -0.550  -0.037  0.00  0.00    +0.095 C 
ATOM     14  S   UNL     1       3.811  -2.259  -0.047  0.00  0.00    -0.034 S 
BRANCH  13  15
ATOM     15  N   UNL     1       4.846   0.187  -0.045  0.00  0.00    -0.351 N 
ATOM     16  H   UNL     1       4.792   1.156  -0.039  0.00  0.00    +0.143 HD
ATOM     17  H   UNL     1       5.711  -0.251  -0.056  0.00  0.00    +0.143 HD
ENDBRANCH  13  15
ENDBRANCH   4  13
TORSDOF 3
