REMARK  Name = ZINC65587235
REMARK  5 active torsions:
REMARK  status: ('A' for Active; 'I' for Inactive)
REMARK    1  A    between atoms: C_3  and  C_8
REMARK    2  A    between atoms: C_8  and  C_14
REMARK    3  A    between atoms: C_14  and  N_15
REMARK    4  A    between atoms: N_15  and  C_16
REMARK    5  A    between atoms: C_21  and  N_22
REMARK                            x       y       z     vdW  Elec       q    Type
REMARK                         _______ _______ _______ _____ _____    ______ ____
ROOT
ATOM      1  N   UNL     1       2.184   3.736   1.453  0.00  0.00    -0.341 N 
ATOM      2  H   UNL     1       1.473   3.578   0.812  0.00  0.00    +0.146 HD
ENDROOT
BRANCH   1   3
ATOM      3  C   UNL     1       2.196   4.906   2.206  0.00  0.00    +0.060 A 
ATOM      4  C   UNL     1       3.126   5.059   3.222  0.00  0.00    +0.053 A 
ATOM      5  C   UNL     1       3.135   6.232   3.973  0.00  0.00    +0.080 A 
ATOM      6  C   UNL     1       2.193   7.247   3.684  0.00  0.00    +0.067 A 
ATOM      7  C   UNL     1       1.266   7.071   2.657  0.00  0.00    +0.050 A 
ATOM      8  C   UNL     1       1.275   5.917   1.927  0.00  0.00    +0.148 A 
ATOM      9  C   UNL     1       2.229   8.470   4.495  0.00  0.00    +0.259 A 
ATOM     10  O   UNL     1       1.446   9.382   4.299  0.00  0.00    -0.267 OA
ATOM     11  N   UNL     1       3.165   8.546   5.469  0.00  0.00    -0.313 N 
ATOM     12  H   UNL     1       3.217   9.339   6.024  0.00  0.00    +0.170 HD
ATOM     13  C   UNL     1       4.032   7.521   5.678  0.00  0.00    +0.199 A 
ATOM     14  N   UNL     1       4.026   6.427   4.978  0.00  0.00    -0.237 NA
BRANCH   8  15
ATOM     15  N   UNL     1       0.295   5.735   0.832  0.00  0.00    +0.058 N 
ATOM     16  O   UNL     1       0.627   5.179  -0.189  0.00  0.00    -0.126 OA
ATOM     17  O   UNL     1      -0.836   6.141   0.960  0.00  0.00    -0.126 OA
ENDBRANCH   8  15
ENDBRANCH   1   3
BRANCH   1  18
ATOM     18  C   UNL     1       3.245   2.741   1.628  0.00  0.00    +0.113 C 
BRANCH  18  19
ATOM     19  C   UNL     1       3.056   1.609   0.616  0.00  0.00    +0.015 C 
ATOM     20  C   UNL     1       3.119   2.175  -0.806  0.00  0.00    +0.041 C 
ATOM     21  C   UNL     1       4.509   2.770  -1.049  0.00  0.00    +0.160 C 
ATOM     22  O   UNL     1       5.500   1.762  -0.839  0.00  0.00    -0.380 OA
ATOM     23  C   UNL     1       5.519   1.229   0.487  0.00  0.00    +0.160 C 
ATOM     24  C   UNL     1       4.170   0.573   0.791  0.00  0.00    +0.041 C 
BRANCH  19  27
ATOM     25  C   UNL     1      -0.486   0.422   0.063  0.00  0.00    +0.003 A 
ATOM     26  C   UNL     1       0.743   1.024  -0.140  0.00  0.00    +0.004 A 
ATOM     27  C   UNL     1       1.717   0.953   0.838  0.00  0.00    -0.037 A 
ATOM     28  C   UNL     1       1.465   0.281   2.019  0.00  0.00    +0.042 A 
ATOM     29  C   UNL     1       0.236  -0.322   2.222  0.00  0.00    +0.124 A 
ATOM     30  C   UNL     1      -0.740  -0.250   1.242  0.00  0.00    +0.038 A 
ATOM     31  F   UNL     1      -0.012  -0.980   3.376  0.00  0.00    -0.205 F 
ENDBRANCH  19  27
ENDBRANCH  18  19
ENDBRANCH   1  18
TORSDOF 5
