REMARK  Name = ZINC63063197
REMARK  7 active torsions:
REMARK  status: ('A' for Active; 'I' for Inactive)
REMARK    1  A    between atoms: C_1  and  C_2
REMARK    2  A    between atoms: C_7  and  O_8
REMARK    3  A    between atoms: O_8  and  C_9
REMARK    4  A    between atoms: N_12  and  C_16
REMARK    5  A    between atoms: C_16  and  C_17
REMARK    6  A    between atoms: C_16  and  C_18
REMARK    7  A    between atoms: C_16  and  C_19
REMARK                            x       y       z     vdW  Elec       q    Type
REMARK                         _______ _______ _______ _____ _____    ______ ____
ROOT
ATOM      1  C   UNL     1      -0.059  -0.757   3.525  0.00  0.00    +0.287 A 
ATOM      2  C   UNL     1      -0.177  -0.085   4.822  0.00  0.00    +0.314 A 
ATOM      3  O   UNL     1      -0.202   1.133   4.894  0.00  0.00    -0.262 OA
ATOM      4  N   UNL     1      -0.258  -0.845   5.936  0.00  0.00    -0.304 N 
ATOM      5  C   UNL     1      -0.227  -2.202   5.816  0.00  0.00    +0.109 A 
ATOM      6  C   UNL     1      -0.117  -2.788   4.604  0.00  0.00    +0.132 A 
ATOM      7  N   UNL     1      -0.040  -2.071   3.485  0.00  0.00    -0.215 NA
ENDROOT
BRANCH   4   8
ATOM      8  C   UNL     1      -0.377  -0.219   7.255  0.00  0.00    +0.040 C 
ATOM      9  C   UNL     1      -1.648   0.632   7.303  0.00  0.00    +0.034 C 
ATOM     10  C   UNL     1      -0.450  -1.305   8.331  0.00  0.00    +0.034 C 
ATOM     11  C   UNL     1       0.842   0.669   7.510  0.00  0.00    +0.034 C 
ENDBRANCH   4   8
BRANCH   1  12
ATOM     12  O   UNL     1       0.025  -0.033   2.381  0.00  0.00    -0.434 OA
BRANCH  12  19
ATOM     13  C   UNL     1       2.507  -0.976   1.416  0.00  0.00    +0.047 C 
ATOM     14  C   UNL     1       1.213  -1.192   0.676  0.00  0.00    -0.007 A 
ATOM     15  C   UNL     1       1.208  -1.879  -0.523  0.00  0.00    +0.022 A 
ATOM     16  C   UNL     1       0.020  -2.077  -1.203  0.00  0.00    +0.018 A 
ATOM     17  C   UNL     1      -1.166  -1.588  -0.685  0.00  0.00    +0.019 A 
ATOM     18  C   UNL     1      -1.166  -0.900   0.513  0.00  0.00    +0.048 A 
ATOM     19  C   UNL     1       0.024  -0.705   1.199  0.00  0.00    +0.133 A 
ATOM     20 BR   UNL     1       0.017  -3.017  -2.844  0.00  0.00    -0.050 Br
ENDBRANCH  12  19
ENDBRANCH   1  12
TORSDOF 3
