REMARK  Name = ZINC29621991
REMARK  6 active torsions:
REMARK  status: ('A' for Active; 'I' for Inactive)
REMARK    1  A    between atoms: C_1  and  S_2
REMARK    2  A    between atoms: S_2  and  N_5
REMARK    3  A    between atoms: N_5  and  C_6
REMARK    4  A    between atoms: C_9  and  O_12
REMARK    5  A    between atoms: O_12  and  C_13
REMARK    6  A    between atoms: C_15  and  C_22
REMARK                            x       y       z     vdW  Elec       q    Type
REMARK                         _______ _______ _______ _____ _____    ______ ____
ROOT
ATOM      1  C   UNL     1      -4.727   5.175  -0.175  0.00  0.00    +0.232 A 
ATOM      2  C   UNL     1      -5.920   5.935  -0.284  0.00  0.00    +0.077 A 
ATOM      3  C   UNL     1      -7.122   5.673  -1.069  0.00  0.00    +0.004 A 
ATOM      4  C   UNL     1      -8.145   6.558  -1.009  0.00  0.00    +0.056 A 
ATOM      5  S   UNL     1      -7.548   7.808   0.114  0.00  0.00    -0.076 S 
ATOM      6  C   UNL     1      -5.954   7.122   0.477  0.00  0.00    +0.116 A 
ATOM      7  N   UNL     1      -4.936   7.483   1.232  0.00  0.00    -0.228 NA
ATOM      8  C   UNL     1      -3.852   6.734   1.293  0.00  0.00    +0.226 A 
ATOM      9  N   UNL     1      -3.755   5.607   0.610  0.00  0.00    -0.201 NA
ENDROOT
BRANCH   3  10
ATOM     10  C   UNL     1      -7.222   4.460  -1.915  0.00  0.00    -0.017 A 
ATOM     11  C   UNL     1      -6.199   4.144  -2.808  0.00  0.00    +0.008 A 
ATOM     12  C   UNL     1      -6.295   3.010  -3.589  0.00  0.00    +0.001 A 
ATOM     13  C   UNL     1      -7.409   2.195  -3.497  0.00  0.00    +0.000 A 
ATOM     14  C   UNL     1      -8.430   2.508  -2.617  0.00  0.00    +0.001 A 
ATOM     15  C   UNL     1      -8.343   3.635  -1.826  0.00  0.00    +0.008 A 
ENDBRANCH   3  10
BRANCH   1  16
ATOM     16  O   UNL     1      -4.587   4.017  -0.864  0.00  0.00    -0.437 OA
BRANCH  16  20
ATOM     17  C   UNL     1      -1.021   1.966  -0.504  0.00  0.00    +0.048 A 
ATOM     18  C   UNL     1      -1.957   1.918   0.521  0.00  0.00    +0.028 A 
ATOM     19  C   UNL     1      -3.147   2.609   0.403  0.00  0.00    +0.048 A 
ATOM     20  C   UNL     1      -3.413   3.341  -0.745  0.00  0.00    +0.131 A 
ATOM     21  C   UNL     1      -2.481   3.386  -1.772  0.00  0.00    +0.048 A 
ATOM     22  C   UNL     1      -1.288   2.700  -1.653  0.00  0.00    +0.028 A 
BRANCH  17  23
ATOM     23  N   UNL     1       0.187   1.271  -0.383  0.00  0.00    -0.221 N 
ATOM     24  H   UNL     1       0.568   0.679  -1.228  0.00  0.00    +0.173 HD
BRANCH  23  26
ATOM     25  C   UNL     1       1.455   3.094   1.244  0.00  0.00    +0.218 C 
ATOM     26  S   UNL     1       1.043   1.340   1.033  0.00  0.00    +0.040 S 
ATOM     27  O   UNL     1       0.121   0.930   2.034  0.00  0.00    -0.155 OA
ATOM     28  O   UNL     1       2.221   0.587   0.781  0.00  0.00    -0.155 OA
ENDBRANCH  23  26
ENDBRANCH  17  23
ENDBRANCH  16  20
ENDBRANCH   1  16
TORSDOF 5
