REMARK  Name = ZINC36497679
REMARK  9 active torsions:
REMARK  status: ('A' for Active; 'I' for Inactive)
REMARK    1  A    between atoms: C_3  and  C_8
REMARK    2  A    between atoms: C_5  and  O_7
REMARK    3  A    between atoms: C_8  and  C_10
REMARK    4  A    between atoms: C_8  and  N_19
REMARK    5  A    between atoms: N_12  and  C_13
REMARK    6  A    between atoms: N_19  and  C_20
REMARK    7  A    between atoms: C_20  and  C_21
REMARK    8  A    between atoms: C_26  and  C_28
REMARK    9  A    between atoms: C_28  and  C_29
REMARK                            x       y       z     vdW  Elec       q    Type
REMARK                         _______ _______ _______ _____ _____    ______ ____
ROOT
ATOM      1  C   UNL     1       3.419   2.161  -0.021  0.00  0.00    +0.193 C 
ENDROOT
BRANCH   1   4
ATOM      2  C   UNL     1      -0.140   1.445   1.020  0.00  0.00    +0.004 A 
ATOM      3  C   UNL     1       1.023   2.122   0.700  0.00  0.00    +0.006 A 
ATOM      4  C   UNL     1       2.154   1.420   0.327  0.00  0.00    -0.015 A 
ATOM      5  C   UNL     1       2.124   0.040   0.271  0.00  0.00    +0.051 A 
ATOM      6  C   UNL     1       0.959  -0.641   0.591  0.00  0.00    +0.117 A 
ATOM      7  C   UNL     1      -0.174   0.066   0.966  0.00  0.00    +0.045 A 
BRANCH   6   8
ATOM      8  O   UNL     1       0.928  -1.999   0.537  0.00  0.00    -0.507 OA
ATOM      9  H   UNL     1       1.174  -2.431   1.366  0.00  0.00    +0.292 HD
ENDBRANCH   6   8
ENDBRANCH   1   4
BRANCH   1  10
ATOM     10  C   UNL     1       3.376   2.579  -1.468  0.00  0.00    +0.238 C 
ATOM     11  O   UNL     1       3.511   3.746  -1.767  0.00  0.00    -0.273 OA
ATOM     12  N   UNL     1       3.186   1.654  -2.431  0.00  0.00    -0.311 N 
ATOM     13  H   UNL     1       3.078   0.721  -2.192  0.00  0.00    +0.149 HD
BRANCH  12  14
ATOM     14  C   UNL     1       3.144   2.061  -3.838  0.00  0.00    +0.073 C 
ATOM     15  C   UNL     1       1.726   2.511  -4.196  0.00  0.00    +0.022 C 
ATOM     16  C   UNL     1       1.682   2.935  -5.665  0.00  0.00    +0.002 C 
ATOM     17  C   UNL     1       2.079   1.752  -6.550  0.00  0.00    +0.000 C 
ATOM     18  C   UNL     1       3.497   1.301  -6.192  0.00  0.00    +0.002 C 
ATOM     19  C   UNL     1       3.542   0.877  -4.722  0.00  0.00    +0.022 C 
ENDBRANCH  12  14
ENDBRANCH   1  10
BRANCH   1  20
ATOM     20  N   UNL     1       3.538   3.350   0.827  0.00  0.00    -0.278 N 
ATOM     21  C   UNL     1       3.652   3.216   2.163  0.00  0.00    +0.221 C 
ATOM     22  O   UNL     1       3.657   2.111   2.664  0.00  0.00    -0.275 OA
BRANCH  20  23
ATOM     23  C   UNL     1       3.532   4.684   0.223  0.00  0.00    +0.183 C 
BRANCH  23  24
ATOM     24  C   UNL     1       2.135   5.026  -0.226  0.00  0.00    +0.122 A 
ATOM     25  C   UNL     1       1.232   5.731   0.481  0.00  0.00    +0.046 A 
ATOM     26  C   UNL     1       0.065   5.814  -0.312  0.00  0.00    +0.041 A 
ATOM     27  C   UNL     1       0.324   5.154  -1.456  0.00  0.00    +0.195 A 
ATOM     28  O   UNL     1       1.581   4.685  -1.400  0.00  0.00    -0.466 OA
ENDBRANCH  23  24
ENDBRANCH  20  23
BRANCH  21  29
ATOM     29  C   UNL     1       3.774   4.438   3.035  0.00  0.00    +0.131 C 
BRANCH  29  30
ATOM     30  C   UNL     1       3.888   4.017   4.478  0.00  0.00    -0.039 A 
ATOM     31  C   UNL     1       2.748   3.861   5.244  0.00  0.00    +0.005 A 
ATOM     32  C   UNL     1       2.852   3.475   6.567  0.00  0.00    +0.015 A 
ATOM     33  C   UNL     1       4.096   3.243   7.124  0.00  0.00    +0.018 A 
ATOM     34  C   UNL     1       5.237   3.399   6.357  0.00  0.00    +0.015 A 
ATOM     35  C   UNL     1       5.132   3.781   5.033  0.00  0.00    +0.005 A 
ATOM     36 BR   UNL     1       4.239   2.715   8.934  0.00  0.00    -0.050 Br
ENDBRANCH  29  30
ENDBRANCH  21  29
ENDBRANCH   1  20
TORSDOF 9
