REMARK  Name = ZINC12376922
REMARK  6 active torsions:
REMARK  status: ('A' for Active; 'I' for Inactive)
REMARK    1  A    between atoms: C_4  and  C_7
REMARK    2  A    between atoms: C_8  and  C_18
REMARK    3  A    between atoms: C_10  and  S_12
REMARK    4  A    between atoms: S_12  and  C_13
REMARK    5  A    between atoms: C_13  and  C_14
REMARK    6  A    between atoms: N_15  and  O_16
REMARK                            x       y       z     vdW  Elec       q    Type
REMARK                         _______ _______ _______ _____ _____    ______ ____
ROOT
ATOM      1  C   UNL     1       3.683  -0.713  -0.074  0.00  0.00    +0.118 A 
ATOM      2  C   UNL     1       4.005  -1.834   0.661  0.00  0.00    +0.164 A 
ATOM      3  O   UNL     1       5.301  -2.118   0.389  0.00  0.00    -0.430 OA
ATOM      4  C   UNL     1       5.752  -1.202  -0.482  0.00  0.00    +0.258 A 
ATOM      5  N   UNL     1       4.787  -0.361  -0.768  0.00  0.00    -0.203 NA
ENDROOT
BRANCH   1   9
ATOM      6  C   UNL     1      -0.083   1.256  -0.157  0.00  0.00    +0.000 A 
ATOM      7  C   UNL     1       0.436   0.811   1.046  0.00  0.00    +0.001 A 
ATOM      8  C   UNL     1       1.658   0.172   1.080  0.00  0.00    +0.010 A 
ATOM      9  C   UNL     1       2.370  -0.028  -0.103  0.00  0.00    +0.004 A 
ATOM     10  C   UNL     1       1.842   0.422  -1.313  0.00  0.00    +0.010 A 
ATOM     11  C   UNL     1       0.619   1.061  -1.333  0.00  0.00    +0.001 A 
ENDBRANCH   1   9
BRANCH   2  12
ATOM     12  C   UNL     1       3.112  -2.578   1.569  0.00  0.00    +0.020 A 
ATOM     13  C   UNL     1       1.827  -2.937   1.151  0.00  0.00    +0.011 A 
ATOM     14  C   UNL     1       0.998  -3.633   2.005  0.00  0.00    +0.001 A 
ATOM     15  C   UNL     1       1.435  -3.977   3.272  0.00  0.00    +0.000 A 
ATOM     16  C   UNL     1       2.706  -3.625   3.693  0.00  0.00    +0.001 A 
ATOM     17  C   UNL     1       3.549  -2.934   2.848  0.00  0.00    +0.011 A 
ENDBRANCH   2  12
BRANCH   4  18
ATOM     18  S   UNL     1       7.384  -1.142  -1.143  0.00  0.00    -0.059 S 
BRANCH  18  19
ATOM     19  C   UNL     1       7.360   0.303  -2.240  0.00  0.00    +0.153 C 
BRANCH  19  20
ATOM     20  C   UNL     1       8.715   0.471  -2.879  0.00  0.00    +0.142 C 
ATOM     21  N   UNL     1       9.666  -0.358  -2.603  0.00  0.00    -0.076 NA
ATOM     22  N   UNL     1       8.938   1.508  -3.757  0.00  0.00    -0.343 N 
ATOM     23  H   UNL     1       8.224   2.131  -3.963  0.00  0.00    +0.144 HD
ATOM     24  H   UNL     1       9.810   1.616  -4.168  0.00  0.00    +0.144 HD
BRANCH  21  25
ATOM     25  O   UNL     1      10.939  -0.201  -3.204  0.00  0.00    -0.408 OA
ATOM     26  H   UNL     1      11.585  -0.869  -2.937  0.00  0.00    +0.328 HD
ENDBRANCH  21  25
ENDBRANCH  19  20
ENDBRANCH  18  19
ENDBRANCH   4  18
TORSDOF 6
