REMARK  Name = ZINC14271072
REMARK  7 active torsions:
REMARK  status: ('A' for Active; 'I' for Inactive)
REMARK    1  A    between atoms: C_1  and  C_2
REMARK    2  A    between atoms: C_4  and  N_27
REMARK    3  A    between atoms: C_7  and  N_8
REMARK    4  A    between atoms: N_8  and  C_9
REMARK    5  A    between atoms: C_9  and  N_11
REMARK    6  A    between atoms: C_12  and  C_14
REMARK    7  A    between atoms: C_17  and  C_19
REMARK                            x       y       z     vdW  Elec       q    Type
REMARK                         _______ _______ _______ _____ _____    ______ ____
ROOT
ATOM      1  N   UNL     1       0.025   0.969   0.392  0.00  0.00    -0.261 N 
ATOM      2  C   UNL     1      -1.098   1.599   0.790  0.00  0.00    +0.285 C 
ATOM      3  O   UNL     1      -1.049   2.760   1.151  0.00  0.00    -0.266 OA
ATOM      4  H   UNL     1      -0.015   0.043   0.105  0.00  0.00    +0.157 HD
ENDROOT
BRANCH   2   5
ATOM      5  C   UNL     1      -2.377   0.886   0.788  0.00  0.00    +0.190 A 
ATOM      6  C   UNL     1      -3.595   1.408   1.169  0.00  0.00    +0.055 A 
ATOM      7  C   UNL     1      -4.538   0.389   1.009  0.00  0.00    +0.050 A 
ATOM      8  C   UNL     1      -3.870  -0.707   0.543  0.00  0.00    +0.136 A 
ATOM      9  O   UNL     1      -2.571  -0.395   0.409  0.00  0.00    -0.450 OA
BRANCH   8  10
ATOM     10  C   UNL     1      -4.477  -2.017   0.232  0.00  0.00    +0.019 A 
ATOM     11  C   UNL     1      -3.682  -3.064  -0.242  0.00  0.00    +0.011 A 
ATOM     12  C   UNL     1      -4.255  -4.285  -0.530  0.00  0.00    +0.002 A 
ATOM     13  C   UNL     1      -5.613  -4.476  -0.351  0.00  0.00    +0.020 A 
ATOM     14  C   UNL     1      -6.408  -3.443   0.117  0.00  0.00    +0.042 A 
ATOM     15  C   UNL     1      -5.847  -2.217   0.414  0.00  0.00    +0.031 A 
ATOM     16 CL   UNL     1      -8.112  -3.693   0.338  0.00  0.00    -0.084 Cl
ENDBRANCH   8  10
ENDBRANCH   2   5
BRANCH   1  17
ATOM     17  C   UNL     1       1.201   1.626   0.389  0.00  0.00    +0.141 C 
ATOM     18  S   UNL     1       1.270   3.260   0.896  0.00  0.00    -0.018 S 
BRANCH  17  19
ATOM     19  N   UNL     1       2.323   0.998  -0.015  0.00  0.00    -0.296 N 
ATOM     20  H   UNL     1       2.299   0.051  -0.227  0.00  0.00    +0.154 HD
BRANCH  19  27
ATOM     21  C   UNL     1       4.697  -0.198   1.000  0.00  0.00    +0.046 C 
ATOM     22  C   UNL     1       4.704   1.163   0.354  0.00  0.00    -0.027 A 
ATOM     23  C   UNL     1       5.886   1.869   0.241  0.00  0.00    +0.039 A 
ATOM     24  C   UNL     1       5.894   3.118  -0.351  0.00  0.00    +0.145 A 
ATOM     25  C   UNL     1       4.717   3.667  -0.832  0.00  0.00    +0.073 A 
ATOM     26  C   UNL     1       3.532   2.963  -0.727  0.00  0.00    +0.045 A 
ATOM     27  C   UNL     1       3.521   1.710  -0.128  0.00  0.00    +0.037 A 
ATOM     28 CL   UNL     1       4.731   5.236  -1.574  0.00  0.00    -0.081 Cl
BRANCH  24  29
ATOM     29  N   UNL     1       7.162   3.872  -0.469  0.00  0.00    +0.058 N 
ATOM     30  O   UNL     1       8.198   3.391  -0.046  0.00  0.00    -0.126 OA
ATOM     31  O   UNL     1       7.170   4.973  -0.990  0.00  0.00    -0.126 OA
ENDBRANCH  24  29
ENDBRANCH  19  27
ENDBRANCH  17  19
ENDBRANCH   1  17
TORSDOF 6
