REMARK  Name = ZINC01823606
REMARK  11 active torsions:
REMARK  status: ('A' for Active; 'I' for Inactive)
REMARK    1  A    between atoms: C_1  and  C_2
REMARK    2  A    between atoms: C_4  and  O_12
REMARK    3  A    between atoms: C_5  and  C_9
REMARK    4  A    between atoms: C_9  and  C_10
REMARK    5  A    between atoms: C_9  and  C_11
REMARK    6  A    between atoms: O_12  and  C_13
REMARK    7  A    between atoms: C_13  and  C_14
REMARK    8  A    between atoms: C_16  and  C_22
REMARK    9  A    between atoms: C_19  and  O_20
REMARK   10  A    between atoms: O_20  and  C_21
REMARK   11  A    between atoms: CA_35  and  C_37
REMARK                            x       y       z     vdW  Elec       q    Type
REMARK                         _______ _______ _______ _____ _____    ______ ____
ROOT
ATOM      1  C   UNL     1      -1.543   3.408   2.389  0.00  0.00    +0.031 A 
ATOM      2  C   UNL     1      -1.644   4.776   2.555  0.00  0.00    +0.013 A 
ATOM      3  C   UNL     1      -1.002   5.630   1.677  0.00  0.00    -0.055 A 
ATOM      4  C   UNL     1      -0.254   5.117   0.634  0.00  0.00    +0.006 A 
ATOM      5  C   UNL     1      -0.144   3.751   0.466  0.00  0.00    +0.046 A 
ATOM      6  C   UNL     1      -0.787   2.892   1.346  0.00  0.00    +0.126 A 
ENDROOT
BRANCH   3   7
ATOM      7  C   UNL     1      -1.119   7.122   1.857  0.00  0.00    +0.008 C 
ATOM      8  C   UNL     1      -0.958   7.808   0.522  0.00  0.00    +0.010 A 
ATOM      9  C   UNL     1      -2.001   8.303  -0.183  0.00  0.00    -0.021 A 
ATOM     10  C   UNL     1      -1.463   8.883  -1.393  0.00  0.00    +0.003 A 
ATOM     11  C   UNL     1      -2.053   9.532  -2.482  0.00  0.00    +0.010 A 
ATOM     12  C   UNL     1      -1.214   9.964  -3.478  0.00  0.00    +0.001 A 
ATOM     13  C   UNL     1       0.157   9.771  -3.421  0.00  0.00    +0.002 A 
ATOM     14  C   UNL     1       0.769   9.133  -2.356  0.00  0.00    +0.026 A 
ATOM     15  C   UNL     1      -0.059   8.684  -1.329  0.00  0.00    +0.047 A 
ATOM     16  N   UNL     1       0.207   8.031  -0.159  0.00  0.00    -0.359 N 
ATOM     17  H   UNL     1       1.090   7.766   0.144  0.00  0.00    +0.166 HD
ATOM     18  C   UNL     1      -3.433   8.222   0.283  0.00  0.00    +0.033 C 
ATOM     19  CA  UNL     1      -3.507   7.183   1.411  0.00  0.00    +0.049 C 
ATOM     20  N   UNL     1      -2.451   7.457   2.407  0.00  0.00    +0.396 N 
ATOM     21  H1  UNL     1      -2.473   8.453   2.657  0.00  0.00    -0.083 HD
ATOM     22  H2  UNL     1      -2.623   6.890   3.246  0.00  0.00    -0.083 HD
BRANCH  19  23
ATOM     23  C   UNL     1      -4.853   7.266   2.084  0.00  0.00    +0.343 C 
ATOM     24  O   UNL     1      -4.969   7.859   3.130  0.00  0.00    -0.248 OA
ATOM     25  OXT UNL     1      -5.922   6.682   1.521  0.00  0.00    -0.248 OA
ENDBRANCH  19  23
ENDBRANCH   3   7
BRANCH   6  26
ATOM     26  O   UNL     1      -0.682   1.547   1.184  0.00  0.00    -0.495 OA
ATOM     27  C   UNL     1       0.108   1.086   0.085  0.00  0.00    +0.277 C 
ENDBRANCH   6  26
BRANCH   1  28
ATOM     28  C   UNL     1      -2.248   2.478   3.342  0.00  0.00    +0.268 C 
BRANCH  28  29
ATOM     29  O   UNL     1      -2.954   3.245   4.320  0.00  0.00    -0.487 OA
BRANCH  29  33
ATOM     30  C   UNL     1      -4.358  -1.042   6.186  0.00  0.00    +0.045 C 
ATOM     31  C   UNL     1      -4.356   0.465   6.204  0.00  0.00    -0.029 A 
ATOM     32  C   UNL     1      -3.654   1.166   5.242  0.00  0.00    +0.050 A 
ATOM     33  C   UNL     1      -3.648   2.553   5.262  0.00  0.00    +0.125 A 
ATOM     34  C   UNL     1      -4.356   3.234   6.242  0.00  0.00    -0.002 A 
ATOM     35  C   UNL     1      -5.061   2.530   7.198  0.00  0.00    +0.027 A 
ATOM     36  C   UNL     1      -5.061   1.146   7.180  0.00  0.00    +0.044 A 
ATOM     37 CL   UNL     1      -5.947   0.263   8.383  0.00  0.00    -0.083 Cl
BRANCH  34  38
ATOM     38  C   UNL     1      -4.356   4.741   6.263  0.00  0.00    +0.016 C 
ATOM     39  C   UNL     1      -5.790   5.253   6.116  0.00  0.00    +0.012 C 
ATOM     40  C   UNL     1      -3.772   5.232   7.589  0.00  0.00    +0.012 C 
ENDBRANCH  34  38
ENDBRANCH  29  33
ENDBRANCH  28  29
ENDBRANCH   1  28
TORSDOF 7
