REMARK  Name = ZINC48367745
REMARK  8 active torsions:
REMARK  status: ('A' for Active; 'I' for Inactive)
REMARK    1  A    between atoms: C_1  and  C_2
REMARK    2  A    between atoms: C_4  and  C_25
REMARK    3  A    between atoms: C_7  and  C_11
REMARK    4  A    between atoms: C_11  and  S_12
REMARK    5  A    between atoms: S_12  and  C_13
REMARK    6  A    between atoms: C_17  and  C_24
REMARK    7  A    between atoms: C_18  and  C_23
REMARK    8  A    between atoms: C_19  and  C_22
REMARK                            x       y       z     vdW  Elec       q    Type
REMARK                         _______ _______ _______ _____ _____    ______ ____
ROOT
ATOM      1  S   UNL     1       2.891  -5.835  -1.753  0.00  0.00    -0.078 S 
ENDROOT
BRANCH   1   2
ATOM      2  C   UNL     1       3.860  -7.298  -1.597  0.00  0.00    +0.211 A 
ATOM      3  N   UNL     1       4.226  -7.859  -0.446  0.00  0.00    -0.183 NA
ATOM      4  C   UNL     1       4.949  -8.948  -0.688  0.00  0.00    +0.254 A 
ATOM      5  N   UNL     1       5.535  -9.839   0.120  0.00  0.00    -0.216 NA
ATOM      6  C   UNL     1       6.209 -10.854  -0.372  0.00  0.00    +0.047 A 
ATOM      7  C   UNL     1       6.326 -11.019  -1.756  0.00  0.00    -0.008 A 
ATOM      8  C   UNL     1       5.734 -10.119  -2.584  0.00  0.00    +0.048 A 
ATOM      9  N   UNL     1       5.043  -9.082  -2.045  0.00  0.00    -0.200 N 
ATOM     10  N   UNL     1       4.331  -8.011  -2.601  0.00  0.00    -0.137 NA
ATOM     11  C   UNL     1       5.842 -10.270  -4.080  0.00  0.00    +0.066 C 
ATOM     12  C   UNL     1       7.100 -12.182  -2.322  0.00  0.00    +0.047 C 
ATOM     13  C   UNL     1       6.860 -11.844   0.560  0.00  0.00    +0.066 C 
ENDBRANCH   1   2
BRANCH   1  14
ATOM     14  C   UNL     1       2.565  -5.340  -0.039  0.00  0.00    +0.134 C 
BRANCH  14  21
ATOM     15  C   UNL     1      -0.018   1.503   0.010  0.00  0.00    +0.066 C 
ATOM     16  C   UNL     1       0.002  -0.004   0.002  0.00  0.00    +0.044 A 
ATOM     17  C   UNL     1      -1.205  -0.718   0.004  0.00  0.00    +0.044 A 
ATOM     18  C   UNL     1      -1.175  -2.073  -0.004  0.00  0.00    +0.025 A 
ATOM     19  N   UNL     1       0.032  -2.710  -0.014  0.00  0.00    -0.288 N 
ATOM     20  C   UNL     1       0.384  -4.032  -0.022  0.00  0.00    +0.118 A 
ATOM     21  C   UNL     1       1.733  -4.083  -0.029  0.00  0.00    +0.072 A 
ATOM     22  N   UNL     1       2.208  -2.834  -0.025  0.00  0.00    -0.215 NA
ATOM     23  C   UNL     1       1.194  -1.981  -0.015  0.00  0.00    +0.235 A 
ATOM     24  N   UNL     1       1.149  -0.641  -0.012  0.00  0.00    -0.217 NA
ATOM     25  C   UNL     1      -2.457  -2.865  -0.002  0.00  0.00    +0.064 C 
ENDBRANCH  14  21
ENDBRANCH   1  14
TORSDOF 3
