REMARK  Name = ZINC05840643
REMARK  5 active torsions:
REMARK  status: ('A' for Active; 'I' for Inactive)
REMARK    1  A    between atoms: C_1  and  C_2
REMARK    2  A    between atoms: C_2  and  O_4
REMARK    3  A    between atoms: O_4  and  N_5
REMARK    4  A    between atoms: N_11  and  C_12
REMARK    5  A    between atoms: N_14  and  C_15
REMARK                            x       y       z     vdW  Elec       q    Type
REMARK                         _______ _______ _______ _____ _____    ______ ____
ROOT
ATOM      1  N   UNL     1       2.165   1.258   0.119  0.00  0.00    -0.066 NA
ATOM      2  C   UNL     1       3.318   1.863   0.089  0.00  0.00    +0.164 C 
ATOM      3  C   UNL     1       3.606   3.328  -0.069  0.00  0.00    +0.071 C 
ATOM      4  C   UNL     1       4.896   3.681  -0.066  0.00  0.00    +0.010 C 
ATOM      5  C   UNL     1       4.989   5.200  -0.237  0.00  0.00    +0.058 C 
ATOM      6  C   UNL     1       3.530   5.660  -0.338  0.00  0.00    +0.109 C 
ATOM      7  N   UNL     1       2.751   4.429  -0.223  0.00  0.00    -0.330 N 
ATOM      8  C   UNL     1       1.289   4.356  -0.264  0.00  0.00    +0.129 C 
ATOM      9  C   UNL     1       5.893   2.659   0.084  0.00  0.00    +0.109 C 
ATOM     10  N   UNL     1       7.205   2.800   0.112  0.00  0.00    -0.240 NA
ATOM     11  S   UNL     1       4.947   1.161   0.231  0.00  0.00    -0.045 S 
ENDROOT
BRANCH  10  12
ATOM     12  C   UNL     1       8.005   1.705   0.264  0.00  0.00    +0.065 A 
ATOM     13  C   UNL     1       7.700   0.740   1.229  0.00  0.00    +0.029 A 
ATOM     14  C   UNL     1       8.510  -0.366   1.373  0.00  0.00    +0.022 A 
ATOM     15  C   UNL     1       9.630  -0.518   0.572  0.00  0.00    +0.041 A 
ATOM     16  C   UNL     1       9.941   0.437  -0.382  0.00  0.00    +0.022 A 
ATOM     17  C   UNL     1       9.137   1.546  -0.541  0.00  0.00    +0.029 A 
ATOM     18 CL   UNL     1      10.647  -1.911   0.764  0.00  0.00    -0.084 Cl
ENDBRANCH  10  12
BRANCH   1  19
ATOM     19  O   UNL     1       1.135   1.908   0.116  0.00  0.00    -0.316 OA
BRANCH  19  21
ATOM     20  C   UNL     1      -1.333   1.961   0.141  0.00  0.00    +0.138 C 
ATOM     21  C   UNL     1      -0.019   1.224   0.149  0.00  0.00    +0.333 C 
ATOM     22  O   UNL     1      -0.004   0.012   0.180  0.00  0.00    -0.249 OA
ENDBRANCH  19  21
ENDBRANCH   1  19
TORSDOF 3
