REMARK  Name = ZINC56383273
REMARK  7 active torsions:
REMARK  status: ('A' for Active; 'I' for Inactive)
REMARK    1  A    between atoms: C_1  and  N_2
REMARK    2  A    between atoms: N_2  and  C_3
REMARK    3  A    between atoms: N_2  and  C_4
REMARK    4  A    between atoms: C_4  and  C_10
REMARK    5  A    between atoms: C_10  and  N_11
REMARK    6  A    between atoms: C_17  and  C_20
REMARK    7  A    between atoms: N_22  and  C_23
REMARK                            x       y       z     vdW  Elec       q    Type
REMARK                         _______ _______ _______ _____ _____    ______ ____
ROOT
ATOM      1  N   UNL     1      -2.373   1.254   1.303  0.00  0.00    -0.301 N 
ATOM      2  C   UNL     1      -3.127   1.831   2.259  0.00  0.00    +0.302 C 
ATOM      3  O   UNL     1      -3.631   1.149   3.130  0.00  0.00    -0.253 OA
ATOM      4  N   UNL     1      -3.323   3.165   2.249  0.00  0.00    -0.286 N 
ATOM      5  C   UNL     1      -2.822   3.987   1.139  0.00  0.00    +0.110 C 
ATOM      6  C   UNL     1      -1.965   5.120   1.712  0.00  0.00    +0.032 C 
ATOM      7  C   UNL     1      -2.779   5.895   2.751  0.00  0.00    +0.078 C 
ATOM      8  C   UNL     1      -3.171   4.959   3.897  0.00  0.00    +0.032 C 
ATOM      9  C   UNL     1      -4.047   3.823   3.345  0.00  0.00    +0.110 C 
ATOM     10  H   UNL     1      -1.910   1.804   0.652  0.00  0.00    +0.150 HD
ENDROOT
BRANCH   7  11
ATOM     11  C   UNL     1      -1.951   7.031   3.293  0.00  0.00    +0.216 C 
ATOM     12  O   UNL     1      -0.821   7.204   2.888  0.00  0.00    -0.276 OA
ATOM     13  N   UNL     1      -2.466   7.855   4.226  0.00  0.00    -0.312 N 
ATOM     14  H   UNL     1      -3.369   7.717   4.550  0.00  0.00    +0.149 HD
BRANCH  13  15
ATOM     15  C   UNL     1      -1.660   8.960   4.753  0.00  0.00    +0.073 C 
ATOM     16  C   UNL     1      -1.690   9.198   6.264  0.00  0.00    +0.024 C 
ATOM     17  C   UNL     1      -2.405  10.169   5.322  0.00  0.00    +0.024 C 
ENDBRANCH  13  15
ENDBRANCH   7  11
BRANCH   1  18
ATOM     18  C   UNL     1      -2.251  -0.205   1.247  0.00  0.00    +0.094 C 
BRANCH  18  19
ATOM     19  C   UNL     1      -1.453  -0.603   0.004  0.00  0.00    -0.050 C 
ATOM     20  C   UNL     1      -1.436  -2.127  -0.125  0.00  0.00    -0.010 C 
ATOM     21  C   UNL     1      -0.782  -2.736   1.117  0.00  0.00    -0.001 C 
ATOM     22  C   UNL     1       0.652  -2.219   1.245  0.00  0.00    -0.000 C 
ATOM     23  C   UNL     1       0.635  -0.695   1.373  0.00  0.00    -0.001 C 
ATOM     24  C   UNL     1      -0.019  -0.086   0.131  0.00  0.00    -0.010 C 
BRANCH  19  26
ATOM     25  C   UNL     1      -1.317  -0.404  -2.383  0.00  0.00    -0.096 C 
ATOM     26  N   UNL     1      -2.081  -0.018  -1.189  0.00  0.00    +0.381 N 
ATOM     27  C   UNL     1      -3.459  -0.511  -1.308  0.00  0.00    -0.096 C 
ATOM     28  H   UNL     1      -2.089   0.987  -1.105  0.00  0.00    -0.082 HD
ENDBRANCH  19  26
ENDBRANCH  18  19
ENDBRANCH   1  18
TORSDOF 5
