REMARK  Name = ZINC02219638
REMARK  8 active torsions:
REMARK  status: ('A' for Active; 'I' for Inactive)
REMARK    1  A    between atoms: C_1  and  C_2
REMARK    2  A    between atoms: C_5  and  C_8
REMARK    3  A    between atoms: C_8  and  N_9
REMARK    4  A    between atoms: C_10  and  C_27
REMARK    5  A    between atoms: C_18  and  C_25
REMARK    6  A    between atoms: C_30  and  O_35
REMARK    7  A    between atoms: C_31  and  O_33
REMARK    8  A    between atoms: O_33  and  C_34
REMARK                            x       y       z     vdW  Elec       q    Type
REMARK                         _______ _______ _______ _____ _____    ______ ____
ROOT
ATOM      1  N   UNL     1      -0.813   3.630   8.008  0.00  0.00    -0.279 N 
ATOM      2  C   UNL     1      -2.107   3.627   7.315  0.00  0.00    +0.145 C 
ATOM      3  C   UNL     1      -1.825   3.157   5.911  0.00  0.00    +0.072 A 
ATOM      4  C   UNL     1      -2.685   2.942   4.744  0.00  0.00    +0.199 A 
ATOM      5  O   UNL     1      -3.885   3.147   4.788  0.00  0.00    -0.287 OA
ATOM      6  C   UNL     1      -2.025   2.464   3.514  0.00  0.00    +0.066 A 
ATOM      7  C   UNL     1      -2.748   2.228   2.345  0.00  0.00    +0.035 A 
ATOM      8  C   UNL     1      -2.090   1.788   1.217  0.00  0.00    +0.045 A 
ATOM      9  C   UNL     1      -0.718   1.572   1.248  0.00  0.00    -0.029 A 
ATOM     10  C   UNL     1       0.006   1.802   2.397  0.00  0.00    +0.051 A 
ATOM     11  C   UNL     1      -0.636   2.252   3.547  0.00  0.00    +0.140 A 
ATOM     12  O   UNL     1       0.062   2.481   4.674  0.00  0.00    -0.450 OA
ATOM     13  C   UNL     1      -0.494   2.917   5.822  0.00  0.00    +0.199 A 
ATOM     14  C   UNL     1       0.124   3.216   7.137  0.00  0.00    +0.283 C 
ATOM     15  O   UNL     1       1.307   3.104   7.391  0.00  0.00    -0.267 OA
ATOM     16  C   UNL     1      -0.013   1.086   0.008  0.00  0.00    +0.045 C 
ATOM     17 CL   UNL     1      -2.979   1.497  -0.245  0.00  0.00    -0.083 Cl
ENDROOT
BRANCH   2  18
ATOM     18  C   UNL     1      -3.059   2.680   7.998  0.00  0.00    -0.019 A 
ATOM     19  C   UNL     1      -2.602   1.464   8.471  0.00  0.00    +0.009 A 
ATOM     20  C   UNL     1      -3.472   0.591   9.098  0.00  0.00    +0.049 A 
ATOM     21  C   UNL     1      -4.806   0.935   9.254  0.00  0.00    +0.158 A 
ATOM     22  C   UNL     1      -5.266   2.159   8.778  0.00  0.00    +0.162 A 
ATOM     23  C   UNL     1      -4.387   3.031   8.155  0.00  0.00    +0.055 A 
BRANCH  22  24
ATOM     24  O   UNL     1      -6.573   2.501   8.928  0.00  0.00    -0.491 OA
ATOM     25  C   UNL     1      -6.974   3.773   8.415  0.00  0.00    +0.277 C 
ENDBRANCH  22  24
BRANCH  21  26
ATOM     26  O   UNL     1      -5.662   0.078   9.871  0.00  0.00    -0.503 OA
ATOM     27  H   UNL     1      -5.723   0.204  10.828  0.00  0.00    +0.292 HD
ENDBRANCH  21  26
ENDBRANCH   2  18
BRANCH   1  28
ATOM     28  C   UNL     1      -0.583   4.015   9.403  0.00  0.00    +0.144 C 
BRANCH  28  33
ATOM     29  C   UNL     1       0.546   9.676   9.677  0.00  0.00    +0.044 C 
ATOM     30  C   UNL     1       0.251   8.199   9.606  0.00  0.00    -0.050 A 
ATOM     31  C   UNL     1      -1.052   7.749   9.702  0.00  0.00    +0.003 A 
ATOM     32  C   UNL     1      -1.322   6.395   9.636  0.00  0.00    +0.005 A 
ATOM     33  C   UNL     1      -0.289   5.491   9.474  0.00  0.00    -0.030 A 
ATOM     34  C   UNL     1       1.015   5.941   9.383  0.00  0.00    +0.005 A 
ATOM     35  C   UNL     1       1.284   7.296   9.443  0.00  0.00    +0.003 A 
ENDBRANCH  28  33
ENDBRANCH   1  28
TORSDOF 5
