REMARK  Name = ZINC64076598
REMARK  3 active torsions:
REMARK  status: ('A' for Active; 'I' for Inactive)
REMARK    1  A    between atoms: C_7  and  C_10
REMARK    2  A    between atoms: N_13  and  C_16
REMARK    3  A    between atoms: C_16  and  C_17
REMARK                            x       y       z     vdW  Elec       q    Type
REMARK                         _______ _______ _______ _____ _____    ______ ____
ROOT
ATOM      1  C   UNL     1       0.691  -3.186  -0.024  0.00  0.00    +0.014 C 
ATOM      2  C   UNL     1       0.953  -4.049   1.213  0.00  0.00    -0.011 C 
ATOM      3  C   UNL     1       0.050  -5.284   1.167  0.00  0.00    -0.078 C 
ATOM      4  N   UNL     1       0.338  -6.061  -0.044  0.00  0.00    +0.384 N 
ATOM      5  C   UNL     1       0.020  -5.263  -1.234  0.00  0.00    -0.078 C 
ATOM      6  C   UNL     1       0.922  -4.028  -1.281  0.00  0.00    -0.011 C 
ATOM      7  H   UNL     1       1.316  -6.310  -0.058  0.00  0.00    -0.081 HD
ENDROOT
BRANCH   1  14
ATOM      8  C   UNL     1      -0.016   1.348   0.009  0.00  0.00    +0.001 A 
ATOM      9  C   UNL     1       1.166   2.101   0.002  0.00  0.00    +0.002 A 
ATOM     10  C   UNL     1       2.391   1.535  -0.013  0.00  0.00    +0.026 A 
ATOM     11  C   UNL     1       2.529   0.120  -0.022  0.00  0.00    +0.043 A 
ATOM     12  N   UNL     1       3.587  -0.654  -0.037  0.00  0.00    -0.380 N 
ATOM     13  C   UNL     1       3.143  -2.053  -0.041  0.00  0.00    +0.145 C 
ATOM     14  C   UNL     1       1.631  -2.008  -0.025  0.00  0.00    -0.039 C 
ATOM     15  C   UNL     1       1.295  -0.698  -0.014  0.00  0.00    -0.001 A 
ATOM     16  C   UNL     1       0.002  -0.004   0.002  0.00  0.00    +0.010 A 
ATOM     17  H   UNL     1       4.509  -0.353  -0.045  0.00  0.00    +0.160 HD
ENDBRANCH   1  14
BRANCH   4  18
ATOM     18  C   UNL     1      -0.475  -7.284  -0.044  0.00  0.00    -0.001 C 
BRANCH  18  19
ATOM     19  C   UNL     1      -0.093  -8.142  -1.223  0.00  0.00    +0.117 A 
ATOM     20  N   UNL     1      -0.735  -7.959  -2.364  0.00  0.00    -0.195 NA
ATOM     21  C   UNL     1      -0.426  -8.696  -3.428  0.00  0.00    +0.288 A 
ATOM     22  O   UNL     1      -1.073  -8.522  -4.606  0.00  0.00    -0.265 OA
ATOM     23  C   UNL     1       0.572  -9.644  -3.302  0.00  0.00    +0.104 A 
ATOM     24  C   UNL     1       1.251  -9.831  -2.078  0.00  0.00    +0.085 A 
ATOM     25  N   UNL     1       0.860  -9.023  -1.063  0.00  0.00    -0.233 NA
ATOM     26  C   UNL     1       2.244 -10.827  -2.087  0.00  0.00    +0.036 A 
ATOM     27  C   UNL     1       2.491 -11.527  -3.211  0.00  0.00    +0.048 A 
ATOM     28  S   UNL     1       1.329 -10.834  -4.376  0.00  0.00    -0.090 S 
ENDBRANCH  18  19
ENDBRANCH   4  18
TORSDOF 3
