REMARK  Name = ZINC38650923
REMARK  10 active torsions:
REMARK  status: ('A' for Active; 'I' for Inactive)
REMARK    1  A    between atoms: C_4  and  C_7
REMARK    2  A    between atoms: C_7  and  O_8
REMARK    3  A    between atoms: O_8  and  C_9
REMARK    4  A    between atoms: C_12  and  C_15
REMARK    5  A    between atoms: C_20  and  O_29
REMARK    6  A    between atoms: C_24  and  N_28
REMARK    7  A    between atoms: C_25  and  C_26
REMARK    8  A    between atoms: O_29  and  C_30
REMARK    9  A    between atoms: C_30  and  C_32
REMARK   10  A    between atoms: C_35  and  N_38
REMARK                            x       y       z     vdW  Elec       q    Type
REMARK                         _______ _______ _______ _____ _____    ______ ____
ROOT
ATOM      1  C   UNL     1       8.973  -3.690   1.936  0.00  0.00    +0.098 C 
ATOM      2  C   UNL     1       8.743  -4.967   2.700  0.00  0.00    +0.008 A 
ATOM      3  C   UNL     1       8.100  -6.024   2.080  0.00  0.00    +0.012 A 
ATOM      4  C   UNL     1       7.880  -7.203   2.765  0.00  0.00    +0.047 A 
ATOM      5  C   UNL     1       8.304  -7.330   4.081  0.00  0.00    +0.135 A 
ATOM      6  C   UNL     1       8.948  -6.274   4.704  0.00  0.00    +0.093 A 
ATOM      7  C   UNL     1       9.168  -5.089   4.014  0.00  0.00    +0.138 A 
ATOM      8  O   UNL     1       9.799  -4.064   4.638  0.00  0.00    -0.441 OA
ATOM      9  C   UNL     1      10.362  -3.083   3.913  0.00  0.00    +0.199 C 
ATOM     10  C   UNL     1      10.013  -2.855   2.628  0.00  0.00    +0.098 C 
ENDROOT
BRANCH   1  14
ATOM     11  C   UNL     1       5.313  -1.495   1.712  0.00  0.00    +0.121 A 
ATOM     12  C   UNL     1       5.945  -1.914   0.549  0.00  0.00    +0.046 A 
ATOM     13  C   UNL     1       7.128  -2.623   0.625  0.00  0.00    +0.008 A 
ATOM     14  C   UNL     1       7.683  -2.916   1.857  0.00  0.00    -0.034 A 
ATOM     15  C   UNL     1       7.055  -2.500   3.017  0.00  0.00    +0.008 A 
ATOM     16  C   UNL     1       5.875  -1.785   2.946  0.00  0.00    +0.046 A 
BRANCH  11  17
ATOM     17  O   UNL     1       4.150  -0.797   1.640  0.00  0.00    -0.487 OA
BRANCH  17  18
ATOM     18  C   UNL     1       3.630  -0.535   0.335  0.00  0.00    +0.264 C 
BRANCH  18  22
ATOM     19  C   UNL     1      -0.013   1.672   0.669  0.00  0.00    +0.000 A 
ATOM     20  C   UNL     1       1.194   2.340   0.576  0.00  0.00    +0.000 A 
ATOM     21  C   UNL     1       2.373   1.626   0.468  0.00  0.00    +0.007 A 
ATOM     22  C   UNL     1       2.345   0.244   0.454  0.00  0.00    -0.010 A 
ATOM     23  C   UNL     1       1.138  -0.424   0.548  0.00  0.00    +0.007 A 
ATOM     24  C   UNL     1      -0.041   0.290   0.654  0.00  0.00    +0.000 A 
ENDBRANCH  18  22
ENDBRANCH  17  18
ENDBRANCH  11  17
ENDBRANCH   1  14
BRANCH   9  25
ATOM     25  N   UNL     1      11.318  -2.288   4.497  0.00  0.00    -0.328 N 
ATOM     26  H   UNL     1      11.578  -2.440   5.419  0.00  0.00    +0.145 HD
ATOM     27  H   UNL     1      11.734  -1.576   3.986  0.00  0.00    +0.145 HD
ENDBRANCH   9  25
BRANCH  10  28
ATOM     28  C   UNL     1      10.651  -1.792   1.911  0.00  0.00    +0.101 C 
ATOM     29  N   UNL     1      11.157  -0.949   1.341  0.00  0.00    -0.191 NA
ENDBRANCH  10  28
BRANCH   5  30
ATOM     30  O   UNL     1       8.088  -8.489   4.757  0.00  0.00    -0.422 OA
BRANCH  30  31
ATOM     31  C   UNL     1       8.781  -9.581   4.378  0.00  0.00    +0.344 C 
ATOM     32  O   UNL     1       9.644  -9.488   3.528  0.00  0.00    -0.245 OA
BRANCH  31  33
ATOM     33  C   UNL     1       8.490 -10.891   4.995  0.00  0.00    +0.060 A 
ATOM     34  C   UNL     1       7.494 -11.003   5.967  0.00  0.00    +0.017 A 
ATOM     35  C   UNL     1       7.228 -12.230   6.539  0.00  0.00    +0.033 A 
ATOM     36  C   UNL     1       7.945 -13.348   6.152  0.00  0.00    +0.126 A 
ATOM     37  C   UNL     1       8.934 -13.244   5.189  0.00  0.00    +0.033 A 
ATOM     38  C   UNL     1       9.206 -12.025   4.604  0.00  0.00    +0.017 A 
BRANCH  36  39
ATOM     39  N   UNL     1       7.655 -14.660   6.771  0.00  0.00    +0.056 N 
ATOM     40  O   UNL     1       6.792 -14.754   7.613  0.00  0.00    -0.126 OA
ATOM     41  O   UNL     1       8.280 -15.639   6.434  0.00  0.00    -0.126 OA
ENDBRANCH  36  39
ENDBRANCH  31  33
ENDBRANCH  30  31
ENDBRANCH   5  30
TORSDOF 10
