REMARK  Name = ZINC32511893
REMARK  4 active torsions:
REMARK  status: ('A' for Active; 'I' for Inactive)
REMARK    1  A    between atoms: C_1  and  C_2
REMARK    2  A    between atoms: C_9  and  C_11
REMARK    3  A    between atoms: N_13  and  N_14
REMARK    4  A    between atoms: C_15  and  C_16
REMARK                            x       y       z     vdW  Elec       q    Type
REMARK                         _______ _______ _______ _____ _____    ______ ____
ROOT
ATOM      1  C   UNL     1      -1.082   3.841   0.122  0.00  0.00    +0.236 C 
ATOM      2  O   UNL     1      -1.591   3.439  -0.903  0.00  0.00    -0.274 OA
ATOM      3  N   UNL     1      -0.992   3.028   1.194  0.00  0.00    -0.207 N 
ATOM      4  H   UNL     1      -0.531   3.393   2.123  0.00  0.00    +0.177 HD
ENDROOT
BRANCH   1  12
ATOM      5  C   UNL     1      -3.006   5.974  -0.187  0.00  0.00    +0.012 C 
ATOM      6  C   UNL     1      -1.551   6.388   0.048  0.00  0.00    -0.017 C 
ATOM      7  C   UNL     1      -1.423   7.642   0.869  0.00  0.00    +0.008 C 
ATOM      8  C   UNL     1       0.003   8.184   0.780  0.00  0.00    +0.001 C 
ATOM      9  C   UNL     1       0.362   8.378  -0.697  0.00  0.00    +0.000 C 
ATOM     10  C   UNL     1       0.616   7.005  -1.321  0.00  0.00    +0.005 C 
ATOM     11  C   UNL     1      -0.584   6.091  -1.087  0.00  0.00    +0.008 C 
ATOM     12  C   UNL     1      -0.551   5.249   0.198  0.00  0.00    +0.086 C 
ENDBRANCH   1  12
BRANCH   3  13
ATOM     13  N   UNL     1      -1.486   1.719   1.123  0.00  0.00    -0.188 NA
ATOM     14  C   UNL     1      -1.518   0.980   2.189  0.00  0.00    +0.138 C 
BRANCH  14  15
ATOM     15  C   UNL     1      -1.607   1.609   3.520  0.00  0.00    -0.005 A 
ATOM     16  C   UNL     1      -1.319   0.866   4.668  0.00  0.00    +0.010 A 
ATOM     17  C   UNL     1      -1.400   1.462   5.909  0.00  0.00    +0.016 A 
ATOM     18  C   UNL     1      -1.775   2.790   6.020  0.00  0.00    +0.018 A 
ATOM     19  C   UNL     1      -2.067   3.530   4.887  0.00  0.00    +0.016 A 
ATOM     20  C   UNL     1      -1.985   2.949   3.639  0.00  0.00    +0.010 A 
ATOM     21 BR   UNL     1      -1.890   3.596   7.727  0.00  0.00    -0.050 Br
ENDBRANCH  14  15
ENDBRANCH   3  13
TORSDOF 3
