REMARK  Name = ZINC36887511
REMARK  5 active torsions:
REMARK  status: ('A' for Active; 'I' for Inactive)
REMARK    1  A    between atoms: C_6  and  C_7
REMARK    2  A    between atoms: C_7  and  O_8
REMARK    3  A    between atoms: O_8  and  C_9
REMARK    4  A    between atoms: C_12  and  C_16
REMARK    5  A    between atoms: C_16  and  N_18
REMARK                            x       y       z     vdW  Elec       q    Type
REMARK                         _______ _______ _______ _____ _____    ______ ____
ROOT
ATOM      1  C   UNL     1      -2.875  -1.696  -1.505  0.00  0.00    +0.156 A 
ATOM      2  C   UNL     1      -3.594  -2.128  -0.397  0.00  0.00    +0.049 A 
ATOM      3  C   UNL     1      -4.770  -2.825  -0.565  0.00  0.00    +0.014 A 
ATOM      4  C   UNL     1      -5.241  -3.098  -1.853  0.00  0.00    +0.006 A 
ATOM      5  C   UNL     1      -4.517  -2.662  -2.965  0.00  0.00    +0.052 A 
ATOM      6  C   UNL     1      -3.343  -1.960  -2.789  0.00  0.00    +0.165 A 
ATOM      7  F   UNL     1      -2.644  -1.533  -3.863  0.00  0.00    -0.202 F 
ENDROOT
BRANCH   4   8
ATOM      8  C   UNL     1      -6.499  -3.844  -2.036  0.00  0.00    +0.077 C 
ATOM      9  S   UNL     1      -7.791  -3.629  -0.933  0.00  0.00    -0.035 S 
BRANCH   8  10
ATOM     10  N   UNL     1      -6.633  -4.696  -3.072  0.00  0.00    -0.352 N 
ATOM     11  H   UNL     1      -5.901  -4.818  -3.697  0.00  0.00    +0.143 HD
ATOM     12  H   UNL     1      -7.460  -5.187  -3.192  0.00  0.00    +0.143 HD
ENDBRANCH   8  10
ENDBRANCH   4   8
BRANCH   1  13
ATOM     13  O   UNL     1      -1.716  -1.010  -1.334  0.00  0.00    -0.485 OA
BRANCH  13  14
ATOM     14  C   UNL     1      -1.294  -0.774   0.010  0.00  0.00    +0.264 C 
BRANCH  14  20
ATOM     15  C   UNL     1      -0.017   1.378   0.010  0.00  0.00    +0.011 A 
ATOM     16  C   UNL     1       1.170   2.088   0.002  0.00  0.00    +0.050 A 
ATOM     17  C   UNL     1       2.380   1.416  -0.013  0.00  0.00    +0.166 A 
ATOM     18  C   UNL     1       2.399   0.023  -0.021  0.00  0.00    +0.167 A 
ATOM     19  C   UNL     1       1.207  -0.682  -0.014  0.00  0.00    +0.056 A 
ATOM     20  C   UNL     1       0.002  -0.004   0.002  0.00  0.00    -0.007 A 
ATOM     21  O   UNL     1       3.698  -0.395  -0.036  0.00  0.00    -0.453 OA
ATOM     22  C   UNL     1       4.466   0.750  -0.450  0.00  0.00    +0.466 C 
ATOM     23  O   UNL     1       3.668   1.870  -0.024  0.00  0.00    -0.453 OA
ENDBRANCH  14  20
ENDBRANCH  13  14
ENDBRANCH   1  13
TORSDOF 5
