REMARK  Name = ZINC12198777
REMARK  8 active torsions:
REMARK  status: ('A' for Active; 'I' for Inactive)
REMARK    1  A    between atoms: C_1  and  C_2
REMARK    2  A    between atoms: C_5  and  C_7
REMARK    3  A    between atoms: C_11  and  C_25
REMARK    4  A    between atoms: C_15  and  C_24
REMARK    5  A    between atoms: N_27  and  C_28
REMARK    6  A    between atoms: N_27  and  C_29
REMARK    7  A    between atoms: C_29  and  C_30
REMARK    8  A    between atoms: N_33  and  C_35
REMARK                            x       y       z     vdW  Elec       q    Type
REMARK                         _______ _______ _______ _____ _____    ______ ____
ROOT
ATOM      1  C   UNL     1      -0.590   3.295  -4.040  0.00  0.00    +0.094 C 
ATOM      2  C   UNL     1       0.126   4.650  -4.146  0.00  0.00    +0.074 C 
ATOM      3  C   UNL     1      -0.851   5.758  -4.422  0.00  0.00    +0.041 A 
ATOM      4  C   UNL     1      -1.415   6.432  -3.353  0.00  0.00    +0.103 A 
ATOM      5  C   UNL     1      -2.328   7.548  -3.631  0.00  0.00    +0.194 A 
ATOM      6  O   UNL     1      -2.905   8.134  -2.728  0.00  0.00    -0.287 OA
ATOM      7  C   UNL     1      -2.512   7.926  -4.985  0.00  0.00    +0.073 A 
ATOM      8  C   UNL     1      -1.921   7.202  -5.955  0.00  0.00    +0.025 A 
ATOM      9  N   UNL     1      -1.162   6.104  -5.679  0.00  0.00    -0.315 N 
ATOM     10  C   UNL     1      -0.736   5.308  -6.756  0.00  0.00    +0.060 A 
ATOM     11  C   UNL     1      -0.069   5.881  -7.828  0.00  0.00    +0.027 A 
ATOM     12  C   UNL     1       0.348   5.085  -8.879  0.00  0.00    +0.002 A 
ATOM     13  C   UNL     1       0.104   3.723  -8.866  0.00  0.00    +0.001 A 
ATOM     14  C   UNL     1      -0.561   3.145  -7.800  0.00  0.00    +0.017 A 
ATOM     15  C   UNL     1      -0.982   3.939  -6.745  0.00  0.00    +0.032 A 
ATOM     16  S   UNL     1      -1.835   3.230  -5.372  0.00  0.00    -0.114 S 
ATOM     17  C   UNL     1      -2.104   7.621  -7.392  0.00  0.00    +0.064 C 
ENDROOT
BRANCH   1  22
ATOM     18  C   UNL     1       3.313  -0.511  -5.581  0.00  0.00    +0.051 C 
ATOM     19  C   UNL     1       2.262   0.364  -4.947  0.00  0.00    -0.013 A 
ATOM     20  C   UNL     1       1.681   0.253  -3.728  0.00  0.00    +0.011 A 
ATOM     21  C   UNL     1       0.729   1.182  -3.352  0.00  0.00    +0.012 A 
ATOM     22  C   UNL     1       0.405   2.176  -4.214  0.00  0.00    +0.004 A 
ATOM     23  S   UNL     1       1.455   1.812  -5.610  0.00  0.00    -0.097 S 
ENDBRANCH   1  22
BRANCH   4  24
ATOM     24  C   UNL     1      -1.110   6.035  -1.967  0.00  0.00    +0.252 C 
ATOM     25  O   UNL     1      -0.168   6.536  -1.384  0.00  0.00    -0.270 OA
ATOM     26  N   UNL     1      -1.876   5.116  -1.345  0.00  0.00    -0.296 N 
ATOM     27  C   UNL     1      -3.011   4.512  -2.048  0.00  0.00    +0.132 C 
BRANCH  26  28
ATOM     28  C   UNL     1      -1.573   4.722   0.033  0.00  0.00    +0.146 C 
BRANCH  28  29
ATOM     29  C   UNL     1      -0.621   3.554   0.023  0.00  0.00    +0.007 A 
ATOM     30  C   UNL     1       0.775   3.630   0.029  0.00  0.00    +0.139 A 
ATOM     31  N   UNL     1       1.251   2.411   0.017  0.00  0.00    -0.180 NA
ATOM     32  N   UNL     1       0.171   1.520   0.003  0.00  0.00    -0.274 N 
ATOM     33  C   UNL     1      -0.967   2.245   0.001  0.00  0.00    +0.113 A 
ATOM     34  C   UNL     1       0.260   0.057  -0.013  0.00  0.00    +0.172 C 
ENDBRANCH  28  29
ENDBRANCH  26  28
ENDBRANCH   4  24
TORSDOF 4
