REMARK  Name = ZINC21918709
REMARK  9 active torsions:
REMARK  status: ('A' for Active; 'I' for Inactive)
REMARK    1  A    between atoms: C_1  and  C_2
REMARK    2  A    between atoms: C_2  and  O_3
REMARK    3  A    between atoms: O_3  and  C_4
REMARK    4  A    between atoms: C_8  and  C_10
REMARK    5  A    between atoms: N_30  and  C_31
REMARK    6  A    between atoms: C_31  and  C_32
REMARK    7  A    between atoms: C_32  and  C_33
REMARK    8  A    between atoms: C_33  and  O_35
REMARK    9  A    between atoms: O_35  and  C_36
REMARK                            x       y       z     vdW  Elec       q    Type
REMARK                         _______ _______ _______ _____ _____    ______ ____
ROOT
ATOM      1  C   UNL     1      -1.892   4.793   4.657  0.00  0.00    +0.155 C 
ATOM      2  C   UNL     1      -2.330   3.518   5.312  0.00  0.00    +0.049 A 
ATOM      3  C   UNL     1      -2.823   3.319   6.544  0.00  0.00    +0.025 A 
ATOM      4  C   UNL     1      -3.001   1.928   6.709  0.00  0.00    +0.020 A 
ATOM      5  C   UNL     1      -2.618   1.329   5.559  0.00  0.00    +0.092 A 
ATOM      6  N   UNL     1      -2.234   2.294   4.692  0.00  0.00    -0.312 N 
ATOM      7  C   UNL     1      -1.815   2.228   3.369  0.00  0.00    +0.090 A 
ATOM      8  C   UNL     1      -2.258   3.060   2.388  0.00  0.00    +0.005 A 
ATOM      9  C   UNL     1      -1.706   2.878   1.103  0.00  0.00    -0.030 A 
ATOM     10  C   UNL     1      -0.797   1.881   0.942  0.00  0.00    -0.005 A 
ATOM     11  S   UNL     1      -0.658   1.166   2.560  0.00  0.00    -0.075 S 
ATOM     12  C   UNL     1      -0.087   1.487  -0.313  0.00  0.00    +0.043 C 
ATOM     13  C   UNL     1      -0.803   2.150  -1.500  0.00  0.00    +0.005 C 
ATOM     14  C   UNL     1      -1.037   3.627  -1.170  0.00  0.00    +0.005 C 
ATOM     15  C   UNL     1      -2.103   3.757  -0.080  0.00  0.00    +0.036 C 
ATOM     16  C   UNL     1      -3.309   4.104   2.693  0.00  0.00    +0.148 C 
ATOM     17  N   UNL     1      -2.803   5.186   3.555  0.00  0.00    -0.269 N 
ATOM     18  C   UNL     1      -3.151   6.473   3.351  0.00  0.00    +0.303 C 
ATOM     19  O   UNL     1      -2.716   7.343   4.080  0.00  0.00    -0.253 OA
ATOM     20  N   UNL     1      -3.981   6.794   2.339  0.00  0.00    -0.299 N 
ATOM     21  H   UNL     1      -4.375   6.006   1.680  0.00  0.00    +0.150 HD
ENDROOT
BRANCH   1  26
ATOM     22  C   UNL     1       1.694   3.665   4.277  0.00  0.00    +0.121 A 
ATOM     23  C   UNL     1       2.049   4.274   3.082  0.00  0.00    +0.045 A 
ATOM     24  C   UNL     1       1.127   5.047   2.403  0.00  0.00    +0.004 A 
ATOM     25  C   UNL     1      -0.147   5.214   2.913  0.00  0.00    +0.006 A 
ATOM     26  C   UNL     1      -0.503   4.608   4.104  0.00  0.00    -0.018 A 
ATOM     27  C   UNL     1       0.417   3.838   4.790  0.00  0.00    +0.051 A 
BRANCH  22  28
ATOM     28  O   UNL     1       2.599   2.905   4.948  0.00  0.00    -0.492 OA
BRANCH  28  30
ATOM     29  C   UNL     1       4.771   1.890   5.256  0.00  0.00    +0.048 C 
ATOM     30  C   UNL     1       3.897   2.776   4.365  0.00  0.00    +0.225 C 
ENDBRANCH  28  30
ENDBRANCH  22  28
ENDBRANCH   1  26
BRANCH  20  31
ATOM     31  C   UNL     1      -4.359   8.192   2.118  0.00  0.00    +0.117 C 
BRANCH  31  32
ATOM     32  C   UNL     1      -5.302   8.281   0.916  0.00  0.00    +0.139 C 
BRANCH  32  33
ATOM     33  C   UNL     1      -5.691   9.719   0.689  0.00  0.00    +0.308 C 
ATOM     34  O   UNL     1      -5.259  10.584   1.413  0.00  0.00    -0.251 OA
BRANCH  33  35
ATOM     35  O   UNL     1      -6.518  10.039  -0.319  0.00  0.00    -0.468 OA
ATOM     36  C   UNL     1      -6.850  11.444  -0.479  0.00  0.00    +0.280 C 
ENDBRANCH  33  35
ENDBRANCH  32  33
ENDBRANCH  31  32
ENDBRANCH  20  31
TORSDOF 7
