REMARK  Name = ZINC03211727
REMARK  7 active torsions:
REMARK  status: ('A' for Active; 'I' for Inactive)
REMARK    1  A    between atoms: C_1  and  N_2
REMARK    2  A    between atoms: C_6  and  C_20
REMARK    3  A    between atoms: C_8  and  C_16
REMARK    4  A    between atoms: C_10  and  C_11
REMARK    5  A    between atoms: C_10  and  O_15
REMARK    6  A    between atoms: C_16  and  O_18
REMARK    7  A    between atoms: O_18  and  C_19
REMARK                            x       y       z     vdW  Elec       q    Type
REMARK                         _______ _______ _______ _____ _____    ______ ____
ROOT
ATOM      1  C   UNL     1       2.118   7.774   2.088  0.00  0.00    +0.136 C 
ATOM      2  N   UNL     1       2.725   6.609   1.440  0.00  0.00    -0.254 N 
ATOM      3  C   UNL     1       2.718   6.524   0.101  0.00  0.00    +0.305 C 
ATOM      4  O   UNL     1       2.214   7.427  -0.539  0.00  0.00    -0.253 OA
ATOM      5  N   UNL     1       3.244   5.482  -0.560  0.00  0.00    -0.291 N 
ATOM      6  C   UNL     1       3.877   4.370   0.152  0.00  0.00    +0.123 C 
ATOM      7  C   UNL     1       3.226   4.221   1.531  0.00  0.00    +0.180 C 
ATOM      8  C   UNL     1       3.327   5.562   2.266  0.00  0.00    +0.231 C 
ATOM      9  H   UNL     1       3.206   5.466  -1.529  0.00  0.00    +0.151 HD
ENDROOT
BRANCH   6  10
ATOM     10  C   UNL     1       3.689   3.098  -0.634  0.00  0.00    -0.026 A 
ATOM     11  C   UNL     1       4.720   2.181  -0.721  0.00  0.00    +0.005 A 
ATOM     12  C   UNL     1       4.548   1.014  -1.443  0.00  0.00    +0.000 A 
ATOM     13  C   UNL     1       3.347   0.767  -2.081  0.00  0.00    +0.000 A 
ATOM     14  C   UNL     1       2.315   1.681  -1.990  0.00  0.00    +0.000 A 
ATOM     15  C   UNL     1       2.486   2.848  -1.268  0.00  0.00    +0.005 A 
ENDBRANCH   6  10
BRANCH   8  16
ATOM     16  C   UNL     1       2.583   5.471   3.600  0.00  0.00    +0.368 C 
ATOM     17  F   UNL     1       3.056   4.372   4.324  0.00  0.00    -0.182 F 
ATOM     18  F   UNL     1       2.798   6.642   4.334  0.00  0.00    -0.182 F 
ATOM     19 CL   UNL     1       0.818   5.272   3.290  0.00  0.00    -0.043 Cl
ENDBRANCH   8  16
BRANCH   8  20
ATOM     20  O   UNL     1       4.701   5.872   2.506  0.00  0.00    -0.365 OA
ATOM     21  H   UNL     1       4.840   6.709   2.969  0.00  0.00    +0.212 HD
ENDBRANCH   8  20
BRANCH   7  22
ATOM     22  C   UNL     1       3.943   3.153   2.316  0.00  0.00    +0.317 C 
ATOM     23  O   UNL     1       5.128   3.255   2.532  0.00  0.00    -0.250 OA
BRANCH  22  24
ATOM     24  O   UNL     1       3.266   2.089   2.776  0.00  0.00    -0.468 OA
ATOM     25  C   UNL     1       4.022   1.101   3.524  0.00  0.00    +0.280 C 
ENDBRANCH  22  24
ENDBRANCH   7  22
TORSDOF 5
