REMARK  Name = ZINC20848911
REMARK  9 active torsions:
REMARK  status: ('A' for Active; 'I' for Inactive)
REMARK    1  A    between atoms: C_1  and  C_2
REMARK    2  A    between atoms: C_5  and  C_30
REMARK    3  A    between atoms: C_6  and  S_8
REMARK    4  A    between atoms: S_8  and  C_11
REMARK    5  A    between atoms: C_11  and  C_12
REMARK    6  A    between atoms: C_13  and  C_26
REMARK    7  A    between atoms: C_14  and  C_20
REMARK    8  A    between atoms: C_26  and  O_28
REMARK    9  A    between atoms: O_28  and  C_29
REMARK                            x       y       z     vdW  Elec       q    Type
REMARK                         _______ _______ _______ _____ _____    ______ ____
ROOT
ATOM      1  C   UNL     1       1.821   2.378   1.001  0.00  0.00    +0.045 C 
ATOM      2  C   UNL     1       1.391   1.650  -0.052  0.00  0.00    +0.080 C 
ATOM      3  C   UNL     1      -0.038   1.147  -0.026  0.00  0.00    +0.144 C 
ATOM      4  N   UNL     1      -0.847   1.497   1.153  0.00  0.00    -0.288 N 
ATOM      5  C   UNL     1      -0.277   2.234   2.127  0.00  0.00    +0.304 C 
ATOM      6  O   UNL     1      -0.936   2.528   3.105  0.00  0.00    -0.252 OA
ATOM      7  N   UNL     1       0.993   2.652   2.052  0.00  0.00    -0.271 N 
ATOM      8  H   UNL     1      -1.891   1.159   1.224  0.00  0.00    +0.151 HD
ATOM      9  H   UNL     1       1.361   3.248   2.901  0.00  0.00    +0.156 HD
ENDROOT
BRANCH   3  10
ATOM     10  C   UNL     1      -0.741   1.683  -1.247  0.00  0.00    -0.023 A 
ATOM     11  C   UNL     1      -1.284   2.954  -1.229  0.00  0.00    +0.006 A 
ATOM     12  C   UNL     1      -1.926   3.448  -2.350  0.00  0.00    +0.000 A 
ATOM     13  C   UNL     1      -2.030   2.667  -3.486  0.00  0.00    +0.000 A 
ATOM     14  C   UNL     1      -1.491   1.394  -3.502  0.00  0.00    +0.000 A 
ATOM     15  C   UNL     1      -0.846   0.902  -2.382  0.00  0.00    +0.006 A 
ENDBRANCH   3  10
BRANCH   2  16
ATOM     16  C   UNL     1       2.247   1.366  -1.142  0.00  0.00    +0.339 C 
ATOM     17  O   UNL     1       2.783   0.277  -1.227  0.00  0.00    -0.245 OA
BRANCH  16  18
ATOM     18  O   UNL     1       2.469   2.303  -2.087  0.00  0.00    -0.465 OA
ATOM     19  C   UNL     1       3.344   1.947  -3.160  0.00  0.00    +0.280 C 
ENDBRANCH  16  18
ENDBRANCH   2  16
BRANCH   1  20
ATOM     20  C   UNL     1       3.235   2.897   1.016  0.00  0.00    +0.223 C 
BRANCH  20  21
ATOM     21  S   UNL     1       3.229   4.678   0.672  0.00  0.00    +0.002 S 
ATOM     22  O   UNL     1       2.822   4.916  -0.669  0.00  0.00    -0.169 OA
ATOM     23  O   UNL     1       2.625   5.383   1.748  0.00  0.00    -0.169 OA
BRANCH  21  29
ATOM     24  C   UNL     1       7.554   6.484  -1.643  0.00  0.00    +0.044 C 
ATOM     25  C   UNL     1       6.877   5.985  -0.393  0.00  0.00    -0.049 A 
ATOM     26  C   UNL     1       7.586   5.900   0.791  0.00  0.00    +0.004 A 
ATOM     27  C   UNL     1       6.966   5.441   1.938  0.00  0.00    +0.005 A 
ATOM     28  C   UNL     1       5.635   5.068   1.901  0.00  0.00    -0.026 A 
ATOM     29  C   UNL     1       4.925   5.154   0.718  0.00  0.00    +0.092 A 
ATOM     30  C   UNL     1       5.547   5.608  -0.430  0.00  0.00    +0.030 A 
ATOM     31  C   UNL     1       4.958   4.568   3.151  0.00  0.00    +0.046 C 
ENDBRANCH  21  29
ENDBRANCH  20  21
ENDBRANCH   1  20
TORSDOF 6
