REMARK  Name = ZINC01097756
REMARK  4 active torsions:
REMARK  status: ('A' for Active; 'I' for Inactive)
REMARK    1  A    between atoms: C_4  and  C_7
REMARK    2  A    between atoms: C_7  and  C_8
REMARK    3  A    between atoms: C_8  and  O_27
REMARK    4  A    between atoms: N_17  and  C_18
REMARK                            x       y       z     vdW  Elec       q    Type
REMARK                         _______ _______ _______ _____ _____    ______ ____
ROOT
ATOM      1  C   UNL     1       4.171  -0.963   1.399  0.00  0.00    +0.170 C 
ATOM      2  C   UNL     1       3.187  -1.860   2.107  0.00  0.00    +0.015 A 
ATOM      3  C   UNL     1       1.851  -1.738   2.412  0.00  0.00    +0.009 A 
ATOM      4  C   UNL     1       1.200  -2.756   3.088  0.00  0.00    +0.000 A 
ATOM      5  C   UNL     1       1.889  -3.898   3.457  0.00  0.00    +0.001 A 
ATOM      6  C   UNL     1       3.228  -4.031   3.155  0.00  0.00    +0.013 A 
ATOM      7  C   UNL     1       3.892  -3.009   2.474  0.00  0.00    +0.045 A 
ATOM      8  C   UNL     1       5.287  -2.860   2.019  0.00  0.00    +0.254 C 
ATOM      9  O   UNL     1       6.163  -3.687   2.183  0.00  0.00    -0.270 OA
ATOM     10  N   UNL     1       5.452  -1.680   1.398  0.00  0.00    -0.234 N 
ENDROOT
BRANCH  10  11
ATOM     11  C   UNL     1       6.648  -1.211   0.842  0.00  0.00    +0.043 A 
ATOM     12  C   UNL     1       6.688   0.035   0.230  0.00  0.00    +0.027 A 
ATOM     13  C   UNL     1       7.868   0.499  -0.319  0.00  0.00    +0.051 A 
ATOM     14  C   UNL     1       9.015  -0.277  -0.261  0.00  0.00    +0.166 A 
ATOM     15  C   UNL     1       8.978  -1.526   0.353  0.00  0.00    +0.168 A 
ATOM     16  C   UNL     1       7.796  -1.989   0.907  0.00  0.00    +0.073 A 
ATOM     17  O   UNL     1      10.221  -2.085   0.279  0.00  0.00    -0.453 OA
ATOM     18  C   UNL     1      10.916  -1.345  -0.742  0.00  0.00    +0.466 C 
ATOM     19  O   UNL     1      10.282  -0.053  -0.719  0.00  0.00    -0.453 OA
ENDBRANCH  10  11
BRANCH   1  20
ATOM     20  O   UNL     1       4.302   0.275   2.100  0.00  0.00    -0.367 OA
ATOM     21  H   UNL     1       3.484   0.789   2.147  0.00  0.00    +0.212 HD
ENDBRANCH   1  20
BRANCH   1  22
ATOM     22  C   UNL     1       3.711  -0.707  -0.038  0.00  0.00    +0.096 C 
BRANCH  22  26
ATOM     23  C   UNL     1      -0.017   1.378   0.010  0.00  0.00    +0.000 A 
ATOM     24  C   UNL     1       1.171   2.086   0.002  0.00  0.00    +0.000 A 
ATOM     25  C   UNL     1       2.377   1.411  -0.013  0.00  0.00    +0.004 A 
ATOM     26  C   UNL     1       2.396   0.029  -0.020  0.00  0.00    -0.043 A 
ATOM     27  C   UNL     1       1.208  -0.679  -0.012  0.00  0.00    +0.004 A 
ATOM     28  C   UNL     1       0.002  -0.004   0.002  0.00  0.00    +0.000 A 
ENDBRANCH  22  26
ENDBRANCH   1  22
TORSDOF 4
