REMARK  Name = ZINC48544355
REMARK  4 active torsions:
REMARK  status: ('A' for Active; 'I' for Inactive)
REMARK    1  A    between atoms: C_3  and  N_17
REMARK    2  A    between atoms: C_6  and  N_7
REMARK    3  A    between atoms: C_11  and  C_14
REMARK    4  A    between atoms: C_14  and  O_15
REMARK                            x       y       z     vdW  Elec       q    Type
REMARK                         _______ _______ _______ _____ _____    ______ ____
ROOT
ATOM      1  C   UNL     1      -0.017   1.385  -0.007  0.00  0.00    +0.025 A 
ATOM      2  C   UNL     1       1.171   2.090  -0.014  0.00  0.00    +0.035 A 
ATOM      3  C   UNL     1       2.377   1.416  -0.013  0.00  0.00    +0.139 A 
ATOM      4  C   UNL     1       2.400   0.032  -0.005  0.00  0.00    +0.045 A 
ATOM      5  C   UNL     1       1.216  -0.679   0.003  0.00  0.00    +0.039 A 
ATOM      6  C   UNL     1       0.002  -0.004   0.002  0.00  0.00    +0.031 A 
ATOM      7  I   UNL     1       4.232  -0.984  -0.004  0.00  0.00    -0.041 I 
ENDROOT
BRANCH   6   8
ATOM      8  N   UNL     1      -1.197  -0.720   0.010  0.00  0.00    -0.330 N 
ATOM      9  C   UNL     1      -2.485  -0.023   0.131  0.00  0.00    +0.105 C 
ATOM     10  C   UNL     1      -3.268  -0.633   1.297  0.00  0.00    +0.019 C 
ATOM     11  C   UNL     1      -3.389  -2.144   1.091  0.00  0.00    +0.009 C 
ATOM     12  C   UNL     1      -1.993  -2.771   1.067  0.00  0.00    +0.032 C 
ATOM     13  C   UNL     1      -1.195  -2.185  -0.108  0.00  0.00    +0.110 C 
BRANCH  12  14
ATOM     14  C   UNL     1      -2.116  -4.286   0.894  0.00  0.00    +0.160 C 
BRANCH  14  15
ATOM     15  O   UNL     1      -2.761  -4.845   2.040  0.00  0.00    -0.395 OA
ATOM     16  H   UNL     1      -2.873  -5.805   1.999  0.00  0.00    +0.209 HD
ENDBRANCH  14  15
ENDBRANCH  12  14
ENDBRANCH   6   8
BRANCH   3  17
ATOM     17  N   UNL     1       3.648   2.175  -0.022  0.00  0.00    +0.057 N 
ATOM     18  O   UNL     1       3.629   3.384  -0.031  0.00  0.00    -0.126 OA
ATOM     19  O   UNL     1       4.704   1.587  -0.022  0.00  0.00    -0.126 OA
ENDBRANCH   3  17
TORSDOF 4
