REMARK  Name = ZINC02343362
REMARK  8 active torsions:
REMARK  status: ('A' for Active; 'I' for Inactive)
REMARK    1  A    between atoms: C_1  and  C_2
REMARK    2  A    between atoms: C_2  and  C_3
REMARK    3  A    between atoms: C_2  and  C_4
REMARK    4  A    between atoms: C_7  and  C_10
REMARK    5  A    between atoms: C_12  and  C_27
REMARK    6  A    between atoms: C_13  and  S_22
REMARK    7  A    between atoms: S_22  and  C_23
REMARK    8  A    between atoms: C_23  and  C_24
REMARK                            x       y       z     vdW  Elec       q    Type
REMARK                         _______ _______ _______ _____ _____    ______ ____
ROOT
ATOM      1  C   UNL     1      -5.419  -2.005   0.043  0.00  0.00    +0.097 C 
ATOM      2  C   UNL     1      -6.147  -1.430  -1.159  0.00  0.00    +0.073 C 
ATOM      3  C   UNL     1      -6.687  -2.329  -2.062  0.00  0.00    +0.112 C 
ATOM      4  N   UNL     1      -6.584  -3.650  -1.902  0.00  0.00    -0.244 NA
ATOM      5  C   UNL     1      -5.981  -4.253  -0.908  0.00  0.00    +0.050 C 
ATOM      6  C   UNL     1      -5.364  -3.519   0.117  0.00  0.00    +0.029 C 
ATOM      7  C   UNL     1      -4.741  -4.118   1.144  0.00  0.00    +0.162 C 
ATOM      8  C   UNL     1      -4.667  -5.618   1.246  0.00  0.00    +0.080 C 
ATOM      9  C   UNL     1      -5.897  -6.232   0.572  0.00  0.00    +0.014 C 
ATOM     10  C   UNL     1      -5.950  -5.763  -0.873  0.00  0.00    +0.056 C 
ATOM     11  O   UNL     1      -4.169  -3.362   2.102  0.00  0.00    -0.292 OA
ENDROOT
BRANCH   1  15
ATOM     12  C   UNL     1      -1.412  -0.526   0.013  0.00  0.00    -0.045 A 
ATOM     13  C   UNL     1      -2.259  -0.204   1.056  0.00  0.00    +0.004 A 
ATOM     14  C   UNL     1      -3.556  -0.683   1.066  0.00  0.00    +0.005 A 
ATOM     15  C   UNL     1      -4.006  -1.482   0.032  0.00  0.00    -0.035 A 
ATOM     16  C   UNL     1      -3.159  -1.803  -1.012  0.00  0.00    +0.005 A 
ATOM     17  C   UNL     1      -1.863  -1.321  -1.024  0.00  0.00    +0.004 A 
BRANCH  12  19
ATOM     18  C   UNL     1      -0.019   1.526   0.010  0.00  0.00    +0.012 C 
ATOM     19  C   UNL     1       0.002  -0.004   0.002  0.00  0.00    +0.013 C 
ATOM     20  C   UNL     1       0.742  -0.511   1.242  0.00  0.00    +0.012 C 
ENDBRANCH  12  19
ENDBRANCH   1  15
BRANCH   2  21
ATOM     21  C   UNL     1      -6.270  -0.016  -1.350  0.00  0.00    +0.098 C 
ATOM     22  N   UNL     1      -6.367   1.105  -1.502  0.00  0.00    -0.191 NA
ENDBRANCH   2  21
BRANCH   3  23
ATOM     23  S   UNL     1      -7.542  -1.708  -3.472  0.00  0.00    -0.096 S 
BRANCH  23  24
ATOM     24  C   UNL     1      -8.068  -3.200  -4.359  0.00  0.00    +0.171 C 
BRANCH  24  25
ATOM     25  C   UNL     1      -8.821  -2.806  -5.603  0.00  0.00    +0.221 C 
ATOM     26  O   UNL     1      -8.986  -1.633  -5.866  0.00  0.00    -0.275 OA
ATOM     27  N   UNL     1      -9.312  -3.756  -6.424  0.00  0.00    -0.329 N 
ATOM     28  H   UNL     1      -9.180  -4.693  -6.214  0.00  0.00    +0.145 HD
ATOM     29  H   UNL     1      -9.796  -3.502  -7.225  0.00  0.00    +0.145 HD
ENDBRANCH  24  25
ENDBRANCH  23  24
ENDBRANCH   3  23
TORSDOF 6
