REMARK  Name = ZINC06193271
REMARK  14 active torsions:
REMARK  status: ('A' for Active; 'I' for Inactive)
REMARK    1  A    between atoms: C_1  and  C_2
REMARK    2  A    between atoms: C_2  and  N_63
REMARK    3  A    between atoms: C_3  and  C_4
REMARK    4  A    between atoms: C_3  and  N_63
REMARK    5  A    between atoms: C_5  and  C_6
REMARK    6  A    between atoms: C_5  and  N_63
REMARK    7  A    between atoms: C_6  and  N_7
REMARK    8  A    between atoms: N_7  and  C_8
REMARK    9  A    between atoms: N_7  and  C_23
REMARK   10  A    between atoms: C_8  and  C_9
REMARK   11  A    between atoms: C_12  and  C_22
REMARK   12  A    between atoms: C_14  and  C_21
REMARK   13  A    between atoms: C_23  and  N_25
REMARK   14  A    between atoms: N_25  and  C_26
REMARK                            x       y       z     vdW  Elec       q    Type
REMARK                         _______ _______ _______ _____ _____    ______ ____
ROOT
ATOM      1  N   UNL     1       5.380   4.839  -1.325  0.00  0.00    -0.310 N 
ENDROOT
BRANCH   1   2
ATOM      2  C   UNL     1       6.162   4.044  -2.081  0.00  0.00    +0.137 C 
ATOM      3  S   UNL     1       6.948   2.696  -1.377  0.00  0.00    -0.018 S 
BRANCH   2   4
ATOM      4  N   UNL     1       6.325   4.309  -3.393  0.00  0.00    -0.297 N 
ATOM      5  H   UNL     1       5.931   5.107  -3.779  0.00  0.00    +0.154 HD
BRANCH   4   6
ATOM      6  C   UNL     1       7.063   3.434  -4.197  0.00  0.00    +0.034 A 
ATOM      7  C   UNL     1       8.284   2.943  -3.753  0.00  0.00    +0.023 A 
ATOM      8  C   UNL     1       9.007   2.075  -4.547  0.00  0.00    +0.003 A 
ATOM      9  C   UNL     1       8.523   1.703  -5.787  0.00  0.00    +0.020 A 
ATOM     10  C   UNL     1       7.310   2.195  -6.236  0.00  0.00    +0.043 A 
ATOM     11  C   UNL     1       6.578   3.060  -5.443  0.00  0.00    +0.043 A 
ATOM     12 CL   UNL     1       6.706   1.726  -7.794  0.00  0.00    -0.083 Cl
ENDBRANCH   4   6
ENDBRANCH   2   4
ENDBRANCH   1   2
BRANCH   1  13
ATOM     13  C   UNL     1       4.708   5.993  -1.928  0.00  0.00    +0.088 C 
BRANCH  13  14
ATOM     14  C   UNL     1       5.614   7.221  -1.828  0.00  0.00    -0.060 C 
BRANCH  14  15
ATOM     15  N   UNL     1       4.984   8.336  -2.566  0.00  0.00    +0.380 N 
ATOM     16  H   UNL     1       4.592   7.976  -3.444  0.00  0.00    -0.082 HD
BRANCH  15  18
ATOM     17  C   UNL     1       3.117   9.916  -2.626  0.00  0.00    -0.017 C 
ATOM     18  C   UNL     1       3.893   8.923  -1.759  0.00  0.00    -0.082 C 
ENDBRANCH  15  18
BRANCH  15  19
ATOM     19  C   UNL     1       5.993   9.370  -2.879  0.00  0.00    -0.082 C 
ATOM     20  C   UNL     1       6.835   8.890  -4.063  0.00  0.00    -0.017 C 
ENDBRANCH  15  19
ENDBRANCH  14  15
ENDBRANCH  13  14
ENDBRANCH   1  13
BRANCH   1  21
ATOM     21  C   UNL     1       5.203   4.551   0.101  0.00  0.00    +0.147 C 
BRANCH  21  22
ATOM     22  C   UNL     1       4.018   3.637   0.285  0.00  0.00    +0.035 A 
ATOM     23  C   UNL     1       4.205   2.297   0.367  0.00  0.00    +0.020 A 
ATOM     24  C   UNL     1       3.034   1.437   0.545  0.00  0.00    +0.002 A 
ATOM     25  C   UNL     1       3.164   0.047   0.637  0.00  0.00    -0.041 A 
ATOM     26  C   UNL     1       2.051  -0.728   0.802  0.00  0.00    +0.007 A 
ATOM     27  C   UNL     1       0.792  -0.148   0.881  0.00  0.00    -0.048 A 
ATOM     28  C   UNL     1       0.640   1.219   0.794  0.00  0.00    +0.029 A 
ATOM     29  C   UNL     1       1.759   2.028   0.625  0.00  0.00    +0.050 A 
ATOM     30  N   UNL     1       1.637   3.399   0.535  0.00  0.00    -0.322 N 
ATOM     31  H   UNL     1       0.730   3.817   0.592  0.00  0.00    +0.169 HD
ATOM     32  C   UNL     1       2.719   4.180   0.370  0.00  0.00    +0.254 A 
ATOM     33  O   UNL     1       2.573   5.388   0.294  0.00  0.00    -0.268 OA
ATOM     34  C   UNL     1      -0.421  -1.022   1.064  0.00  0.00    +0.044 C 
ATOM     35  C   UNL     1       4.526  -0.593   0.553  0.00  0.00    +0.044 C 
ENDBRANCH  21  22
ENDBRANCH   1  21
TORSDOF 10
