REMARK  Name = ZINC00670197
REMARK  6 active torsions:
REMARK  status: ('A' for Active; 'I' for Inactive)
REMARK    1  A    between atoms: C_1  and  C_2
REMARK    2  A    between atoms: C_2  and  N_51
REMARK    3  A    between atoms: C_5  and  C_6
REMARK    4  A    between atoms: C_16  and  C_24
REMARK    5  A    between atoms: C_18  and  C_22
REMARK    6  A    between atoms: C_19  and  N_21
REMARK                            x       y       z     vdW  Elec       q    Type
REMARK                         _______ _______ _______ _____ _____    ______ ____
ROOT
ATOM      1  C   UNL     1      -2.157   1.115   1.203  0.00  0.00    -0.039 C 
ATOM      2  C   UNL     1      -3.006   1.532   0.021  0.00  0.00    -0.021 C 
ATOM      3  C   UNL     1      -4.029   2.394   0.166  0.00  0.00    +0.013 C 
ATOM      4  C   UNL     1      -2.670   0.959  -1.299  0.00  0.00    +0.130 C 
ATOM      5  C   UNL     1      -1.530   0.283  -1.454  0.00  0.00    -0.031 C 
ATOM      6  C   UNL     1      -0.580   0.070  -0.302  0.00  0.00    -0.042 C 
ATOM      7  C   UNL     1      -1.161  -0.291  -2.800  0.00  0.00    +0.092 C 
ATOM      8  C   UNL     1      -2.374  -0.379  -3.682  0.00  0.00    +0.098 C 
ATOM      9  C   UNL     1      -3.489   0.339  -3.399  0.00  0.00    +0.199 C 
ATOM     10  O   UNL     1      -3.535   1.146  -2.325  0.00  0.00    -0.441 OA
ATOM     11  N   UNL     1      -0.756   1.109   0.726  0.00  0.00    +0.385 N 
ATOM     12  H   UNL     1      -0.539   2.025   0.317  0.00  0.00    -0.081 HD
ENDROOT
BRANCH   3  13
ATOM     13  C   UNL     1      -4.681   2.971  -1.022  0.00  0.00    -0.025 A 
ATOM     14  C   UNL     1      -3.908   3.449  -2.084  0.00  0.00    +0.011 A 
ATOM     15  C   UNL     1      -4.524   3.982  -3.196  0.00  0.00    +0.039 A 
ATOM     16  C   UNL     1      -5.907   4.055  -3.257  0.00  0.00    +0.123 A 
ATOM     17  C   UNL     1      -6.679   3.588  -2.205  0.00  0.00    +0.039 A 
ATOM     18  C   UNL     1      -6.075   3.047  -1.090  0.00  0.00    +0.011 A 
ATOM     19  F   UNL     1      -6.505   4.585  -4.347  0.00  0.00    -0.205 F 
ENDBRANCH   3  13
BRANCH   7  20
ATOM     20  C   UNL     1      -0.132   0.595  -3.455  0.00  0.00    -0.035 A 
ATOM     21  C   UNL     1      -0.431   1.916  -3.728  0.00  0.00    +0.007 A 
ATOM     22  C   UNL     1       0.513   2.731  -4.323  0.00  0.00    +0.038 A 
ATOM     23  C   UNL     1       1.757   2.220  -4.655  0.00  0.00    +0.123 A 
ATOM     24  C   UNL     1       2.054   0.894  -4.386  0.00  0.00    +0.038 A 
ATOM     25  C   UNL     1       1.109   0.083  -3.786  0.00  0.00    +0.007 A 
ATOM     26  F   UNL     1       2.679   3.013  -5.242  0.00  0.00    -0.205 F 
ENDBRANCH   7  20
BRANCH   9  27
ATOM     27  N   UNL     1      -4.585   0.241  -4.220  0.00  0.00    -0.328 N 
ATOM     28  H   UNL     1      -5.410   0.693  -3.984  0.00  0.00    +0.145 HD
ATOM     29  H   UNL     1      -4.534  -0.280  -5.036  0.00  0.00    +0.145 HD
ENDBRANCH   9  27
BRANCH  11  31
ATOM     30  C   UNL     1       0.124   2.061   2.802  0.00  0.00    -0.017 C 
ATOM     31  C   UNL     1       0.161   0.857   1.859  0.00  0.00    -0.081 C 
ENDBRANCH  11  31
BRANCH   8  32
ATOM     32  C   UNL     1      -2.353  -1.231  -4.833  0.00  0.00    +0.101 C 
ATOM     33  N   UNL     1      -2.336  -1.906  -5.747  0.00  0.00    -0.191 NA
ENDBRANCH   8  32
TORSDOF 5
