REMARK  Name = ZINC13733501
REMARK  7 active torsions:
REMARK  status: ('A' for Active; 'I' for Inactive)
REMARK    1  A    between atoms: C_1  and  C_2
REMARK    2  A    between atoms: C_3  and  C_21
REMARK    3  A    between atoms: C_9  and  O_19
REMARK    4  A    between atoms: C_15  and  C_17
REMARK    5  A    between atoms: C_15  and  C_18
REMARK    6  A    between atoms: O_19  and  C_20
REMARK    7  A    between atoms: C_21  and  C_22
REMARK                            x       y       z     vdW  Elec       q    Type
REMARK                         _______ _______ _______ _____ _____    ______ ____
ROOT
ATOM      1  C   UNL     1       0.265   1.493  -0.024  0.00  0.00    +0.045 C 
ATOM      2  C   UNL     1       0.136  -0.009  -0.014  0.00  0.00    -0.026 A 
ATOM      3  C   UNL     1      -0.096  -0.691  -1.166  0.00  0.00    +0.049 A 
ATOM      4  C   UNL     1      -0.212  -2.095  -1.139  0.00  0.00    +0.341 A 
ATOM      5  O   UNL     1      -0.421  -2.699  -2.176  0.00  0.00    -0.245 OA
ATOM      6  O   UNL     1      -0.097  -2.778   0.012  0.00  0.00    -0.421 OA
ATOM      7  C   UNL     1       0.131  -2.136   1.180  0.00  0.00    +0.149 A 
ATOM      8  C   UNL     1       0.260  -0.736   1.197  0.00  0.00    +0.063 A 
ATOM      9  C   UNL     1       0.504  -0.074   2.413  0.00  0.00    +0.134 A 
ATOM     10  C   UNL     1       0.620  -0.807   3.575  0.00  0.00    +0.092 A 
ATOM     11  C   UNL     1       0.494  -2.198   3.553  0.00  0.00    +0.131 A 
ATOM     12  C   UNL     1       0.240  -2.856   2.363  0.00  0.00    +0.038 A 
ATOM     13  C   UNL     1       0.088  -4.356   2.310  0.00  0.00    +0.046 C 
ATOM     14  C   UNL     1       0.663  -4.979   3.584  0.00  0.00    +0.052 C 
ATOM     15  C   UNL     1       0.109  -4.207   4.789  0.00  0.00    +0.105 C 
ATOM     16  O   UNL     1       0.622  -2.869   4.726  0.00  0.00    -0.486 OA
ATOM     17  C   UNL     1       0.577  -4.871   6.086  0.00  0.00    +0.055 C 
ATOM     18  C   UNL     1      -1.420  -4.198   4.736  0.00  0.00    +0.055 C 
ENDROOT
BRANCH   9  19
ATOM     19  O   UNL     1       0.627   1.277   2.442  0.00  0.00    -0.494 OA
ATOM     20  C   UNL     1       0.875   1.878   3.715  0.00  0.00    +0.277 C 
ENDBRANCH   9  19
BRANCH   3  21
ATOM     21  C   UNL     1      -0.228   0.053  -2.470  0.00  0.00    +0.138 C 
BRANCH  21  22
ATOM     22  C   UNL     1       1.113   0.107  -3.156  0.00  0.00    +0.223 C 
ATOM     23  O   UNL     1       2.080  -0.407  -2.636  0.00  0.00    -0.275 OA
ATOM     24  N   UNL     1       1.236   0.728  -4.346  0.00  0.00    -0.264 N 
ATOM     25  C   UNL     1       2.469   0.778  -4.976  0.00  0.00    +0.165 A 
ATOM     26  N   UNL     1       3.617   0.281  -4.579  0.00  0.00    -0.225 NA
ATOM     27  C   UNL     1       4.751   0.406  -5.302  0.00  0.00    +0.080 A 
ATOM     28  C   UNL     1       6.043  -0.079  -4.991  0.00  0.00    +0.029 A 
ATOM     29  C   UNL     1       7.095   0.138  -5.842  0.00  0.00    +0.002 A 
ATOM     30  C   UNL     1       6.935   0.834  -7.032  0.00  0.00    +0.001 A 
ATOM     31  C   UNL     1       5.685   1.321  -7.368  0.00  0.00    +0.017 A 
ATOM     32  C   UNL     1       4.625   1.110  -6.522  0.00  0.00    +0.041 A 
ATOM     33  S   UNL     1       2.899   1.529  -6.540  0.00  0.00    -0.052 S 
ATOM     34  H   UNL     1       0.462   1.139  -4.761  0.00  0.00    +0.157 HD
ENDBRANCH  21  22
ENDBRANCH   3  21
TORSDOF 3
