REMARK  Name = ZINC35496965
REMARK  8 active torsions:
REMARK  status: ('A' for Active; 'I' for Inactive)
REMARK    1  A    between atoms: C_1  and  C_2
REMARK    2  A    between atoms: C_3  and  C_15
REMARK    3  A    between atoms: N_6  and  C_9
REMARK    4  A    between atoms: N_7  and  C_8
REMARK    5  A    between atoms: C_15  and  N_16
REMARK    6  A    between atoms: N_16  and  C_17
REMARK    7  A    between atoms: C_28  and  C_30
REMARK    8  A    between atoms: C_30  and  C_31
REMARK                            x       y       z     vdW  Elec       q    Type
REMARK                         _______ _______ _______ _____ _____    ______ ____
ROOT
ATOM      1  N   UNL     1      -3.436  -0.282  -0.385  0.00  0.00    -0.290 N 
ATOM      2  C   UNL     1      -3.343   0.542  -1.448  0.00  0.00    +0.220 C 
ATOM      3  O   UNL     1      -2.728   1.583  -1.357  0.00  0.00    -0.275 OA
ENDROOT
BRANCH   1   4
ATOM      4  C   UNL     1      -4.284  -1.474  -0.455  0.00  0.00    +0.107 C 
ATOM      5  C   UNL     1      -5.748  -1.047  -0.537  0.00  0.00    +0.027 C 
ATOM      6  C   UNL     1      -6.599  -2.289  -0.828  0.00  0.00    +0.007 C 
ATOM      7  C   UNL     1      -6.316  -2.743  -2.259  0.00  0.00    +0.035 C 
ATOM      8  C   UNL     1      -4.833  -2.873  -2.489  0.00  0.00    -0.042 A 
ATOM      9  C   UNL     1      -3.901  -2.287  -1.664  0.00  0.00    -0.024 A 
ATOM     10  C   UNL     1      -2.548  -2.440  -1.937  0.00  0.00    +0.006 A 
ATOM     11  C   UNL     1      -2.132  -3.176  -3.028  0.00  0.00    +0.000 A 
ATOM     12  C   UNL     1      -3.069  -3.767  -3.854  0.00  0.00    +0.000 A 
ATOM     13  C   UNL     1      -4.412  -3.616  -3.584  0.00  0.00    +0.004 A 
ENDBRANCH   1   4
BRANCH   1  14
ATOM     14  C   UNL     1      -2.690   0.016   0.840  0.00  0.00    +0.150 C 
BRANCH  14  17
ATOM     15  C   UNL     1      -0.056   1.374  -0.120  0.00  0.00    +0.065 C 
ATOM     16  C   UNL     1      -0.192  -0.049   0.357  0.00  0.00    +0.043 A 
ATOM     17  C   UNL     1      -1.333  -0.636   0.772  0.00  0.00    +0.056 A 
ATOM     18  C   UNL     1      -1.034  -1.970   1.133  0.00  0.00    +0.277 A 
ATOM     19  O   UNL     1      -1.825  -2.796   1.553  0.00  0.00    -0.265 OA
ATOM     20  N   UNL     1       0.285  -2.163   0.929  0.00  0.00    -0.217 N 
ATOM     21  N   UNL     1       0.819  -0.965   0.436  0.00  0.00    -0.284 N 
ATOM     22  C   UNL     1       2.219  -0.733   0.073  0.00  0.00    +0.171 C 
BRANCH  20  23
ATOM     23  C   UNL     1       0.992  -3.347   1.161  0.00  0.00    +0.067 A 
ATOM     24  C   UNL     1       2.192  -3.316   1.859  0.00  0.00    +0.028 A 
ATOM     25  C   UNL     1       2.887  -4.488   2.087  0.00  0.00    +0.002 A 
ATOM     26  C   UNL     1       2.390  -5.691   1.621  0.00  0.00    +0.000 A 
ATOM     27  C   UNL     1       1.196  -5.725   0.924  0.00  0.00    +0.002 A 
ATOM     28  C   UNL     1       0.493  -4.558   0.698  0.00  0.00    +0.028 A 
ENDBRANCH  20  23
ENDBRANCH  14  17
ENDBRANCH   1  14
BRANCH   2  29
ATOM     29  C   UNL     1      -4.004   0.169  -2.750  0.00  0.00    +0.145 C 
BRANCH  29  30
ATOM     30  C   UNL     1      -3.715   1.248  -3.796  0.00  0.00    +0.216 C 
ATOM     31  C   UNL     1      -4.458   0.942  -5.071  0.00  0.00    +0.007 A 
ATOM     32  C   UNL     1      -5.790   0.806  -5.383  0.00  0.00    +0.008 A 
ATOM     33  C   UNL     1      -6.170   0.513  -6.682  0.00  0.00    +0.000 A 
ATOM     34  C   UNL     1      -5.213   0.357  -7.670  0.00  0.00    +0.001 A 
ATOM     35  C   UNL     1      -3.873   0.491  -7.369  0.00  0.00    +0.015 A 
ATOM     36  C   UNL     1      -3.483   0.786  -6.062  0.00  0.00    +0.066 A 
ATOM     37  C   UNL     1      -2.167   0.988  -5.429  0.00  0.00    +0.340 C 
ATOM     38  O   UNL     1      -1.100   0.924  -6.005  0.00  0.00    -0.245 OA
ATOM     39  O   UNL     1      -2.322   1.254  -4.120  0.00  0.00    -0.453 OA
ENDBRANCH  29  30
ENDBRANCH   2  29
TORSDOF 6
