REMARK  Name = ZINC10021604
REMARK  8 active torsions:
REMARK  status: ('A' for Active; 'I' for Inactive)
REMARK    1  A    between atoms: C_9  and  C_10
REMARK    2  A    between atoms: C_9  and  C_12
REMARK    3  A    between atoms: C_12  and  C_14
REMARK    4  A    between atoms: C_14  and  S_15
REMARK    5  A    between atoms: S_15  and  C_16
REMARK    6  A    between atoms: C_19  and  C_27
REMARK    7  A    between atoms: N_20  and  C_21
REMARK    8  A    between atoms: C_21  and  C_22
REMARK                            x       y       z     vdW  Elec       q    Type
REMARK                         _______ _______ _______ _____ _____    ______ ____
ROOT
ATOM      1  S   UNL     1      -0.695   4.692  -1.836  0.00  0.00    -0.078 S 
ENDROOT
BRANCH   1   2
ATOM      2  C   UNL     1       0.983   4.301  -2.209  0.00  0.00    +0.193 A 
ATOM      3  N   UNL     1       1.619   4.582  -3.324  0.00  0.00    -0.122 NA
ATOM      4  N   UNL     1       2.829   4.154  -3.261  0.00  0.00    -0.128 NA
ATOM      5  C   UNL     1       3.042   3.580  -2.100  0.00  0.00    +0.165 A 
ATOM      6  N   UNL     1       1.864   3.652  -1.393  0.00  0.00    -0.295 N 
BRANCH   5   7
ATOM      7  C   UNL     1       4.307   2.970  -1.640  0.00  0.00    +0.019 A 
ATOM      8  C   UNL     1       4.308   2.095  -0.552  0.00  0.00    +0.013 A 
ATOM      9  C   UNL     1       5.492   1.525  -0.130  0.00  0.00    +0.021 A 
ATOM     10  C   UNL     1       6.678   1.826  -0.778  0.00  0.00    +0.041 A 
ATOM     11  C   UNL     1       6.684   2.696  -1.855  0.00  0.00    +0.021 A 
ATOM     12  C   UNL     1       5.506   3.269  -2.289  0.00  0.00    +0.013 A 
ATOM     13 CL   UNL     1       8.164   1.109  -0.238  0.00  0.00    -0.084 Cl
ENDBRANCH   5   7
BRANCH   6  14
ATOM     14  C   UNL     1       1.610   3.143  -0.043  0.00  0.00    +0.200 C 
BRANCH  14  15
ATOM     15  C   UNL     1       0.954   1.789  -0.131  0.00  0.00    +0.125 A 
ATOM     16  C   UNL     1       1.591   0.615  -0.290  0.00  0.00    +0.046 A 
ATOM     17  C   UNL     1       0.598  -0.390  -0.322  0.00  0.00    +0.041 A 
ATOM     18  C   UNL     1      -0.588   0.230  -0.180  0.00  0.00    +0.195 A 
ATOM     19  O   UNL     1      -0.366   1.549  -0.065  0.00  0.00    -0.466 OA
ENDBRANCH  14  15
ENDBRANCH   6  14
ENDBRANCH   1   2
BRANCH   1  20
ATOM     20  C   UNL     1      -1.172   5.524  -3.371  0.00  0.00    +0.157 C 
BRANCH  20  21
ATOM     21  C   UNL     1      -2.612   5.959  -3.280  0.00  0.00    +0.187 C 
ATOM     22  O   UNL     1      -3.254   5.729  -2.273  0.00  0.00    -0.290 OA
BRANCH  21  31
ATOM     23  C   UNL     1      -8.827   8.606  -4.636  0.00  0.00    +0.002 A 
ATOM     24  C   UNL     1      -8.907   8.072  -3.361  0.00  0.00    +0.002 A 
ATOM     25  C   UNL     1      -7.809   7.459  -2.792  0.00  0.00    +0.025 A 
ATOM     26  C   UNL     1      -6.618   7.378  -3.501  0.00  0.00    +0.054 A 
ATOM     27  C   UNL     1      -6.537   7.917  -4.787  0.00  0.00    +0.054 A 
ATOM     28  C   UNL     1      -7.648   8.530  -5.350  0.00  0.00    +0.025 A 
ATOM     29  N   UNL     1      -5.244   7.691  -5.244  0.00  0.00    -0.300 N 
ATOM     30  C   UNL     1      -4.557   7.037  -4.272  0.00  0.00    +0.114 C 
ATOM     31  C   UNL     1      -3.213   6.631  -4.357  0.00  0.00    +0.131 C 
ATOM     32  N   UNL     1      -5.374   6.833  -3.207  0.00  0.00    -0.300 N 
ATOM     33  H   UNL     1      -4.893   7.956  -6.109  0.00  0.00    +0.153 HD
ATOM     34  H   UNL     1      -5.130   6.385  -2.382  0.00  0.00    +0.153 HD
BRANCH  31  35
ATOM     35  C   UNL     1      -2.457   6.902  -5.543  0.00  0.00    +0.106 C 
ATOM     36  N   UNL     1      -1.857   7.117  -6.484  0.00  0.00    -0.191 NA
ENDBRANCH  31  35
ENDBRANCH  21  31
ENDBRANCH  20  21
ENDBRANCH   1  20
TORSDOF 8
