REMARK  Name = ZINC12533902
REMARK  8 active torsions:
REMARK  status: ('A' for Active; 'I' for Inactive)
REMARK    1  A    between atoms: C_1  and  C_2
REMARK    2  A    between atoms: C_2  and  C_4
REMARK    3  A    between atoms: C_2  and  N_10
REMARK    4  A    between atoms: N_6  and  C_7
REMARK    5  A    between atoms: C_7  and  C_8
REMARK    6  A    between atoms: C_7  and  C_9
REMARK    7  A    between atoms: N_13  and  C_16
REMARK    8  A    between atoms: C_21  and  O_22
REMARK                            x       y       z     vdW  Elec       q    Type
REMARK                         _______ _______ _______ _____ _____    ______ ____
ROOT
ATOM      1  N   UNL     1       0.690  -0.478  -1.207  0.00  0.00    -0.289 NA
ATOM      2  C   UNL     1       0.087   0.100  -2.416  0.00  0.00    +0.104 C 
ATOM      3  C   UNL     1       0.709  -0.554  -3.654  0.00  0.00    +0.120 C 
ATOM      4  N   UNL     1       2.171  -0.426  -3.566  0.00  0.00    -0.325 N 
ATOM      5  C   UNL     1       2.834  -0.858  -2.326  0.00  0.00    +0.120 C 
ATOM      6  C   UNL     1       2.129  -0.192  -1.140  0.00  0.00    +0.104 C 
ENDROOT
BRANCH   4   7
ATOM      7  C   UNL     1       2.913   0.093  -4.634  0.00  0.00    +0.072 A 
ATOM      8  C   UNL     1       3.162   1.456  -4.710  0.00  0.00    +0.027 A 
ATOM      9  C   UNL     1       3.895   1.966  -5.766  0.00  0.00    +0.002 A 
ATOM     10  C   UNL     1       4.381   1.121  -6.746  0.00  0.00    +0.004 A 
ATOM     11  C   UNL     1       4.136  -0.238  -6.676  0.00  0.00    +0.047 A 
ATOM     12  C   UNL     1       3.408  -0.758  -5.620  0.00  0.00    +0.138 A 
BRANCH  12  13
ATOM     13  O   UNL     1       3.171  -2.095  -5.547  0.00  0.00    -0.505 OA
ATOM     14  H   UNL     1       2.359  -2.376  -5.991  0.00  0.00    +0.292 HD
ENDBRANCH  12  13
ENDBRANCH   4   7
BRANCH   1  16
ATOM     15  C   UNL     1      -0.019   1.526   0.010  0.00  0.00    +0.034 C 
ATOM     16  C   UNL     1       0.002  -0.004   0.002  0.00  0.00    +0.140 C 
BRANCH  16  17
ATOM     17  C   UNL     1      -1.412  -0.526   0.013  0.00  0.00    +0.230 C 
ATOM     18  O   UNL     1      -1.808  -1.223  -0.897  0.00  0.00    -0.274 OA
ATOM     19  N   UNL     1      -2.236  -0.217   1.033  0.00  0.00    -0.312 N 
ATOM     20  H   UNL     1      -1.920   0.341   1.761  0.00  0.00    +0.149 HD
BRANCH  19  21
ATOM     21  C   UNL     1      -3.611  -0.724   1.044  0.00  0.00    +0.067 C 
ATOM     22  C   UNL     1      -3.631  -2.130   1.646  0.00  0.00    +0.027 C 
ATOM     23  C   UNL     1      -4.490   0.204   1.884  0.00  0.00    +0.027 C 
ENDBRANCH  19  21
ENDBRANCH  16  17
ENDBRANCH   1  16
TORSDOF 5
