REMARK  Name = ZINC59680665
REMARK  7 active torsions:
REMARK  status: ('A' for Active; 'I' for Inactive)
REMARK    1  A    between atoms: C_1  and  C_2
REMARK    2  A    between atoms: C_5  and  C_8
REMARK    3  A    between atoms: N_11  and  C_25
REMARK    4  A    between atoms: C_12  and  C_22
REMARK    5  A    between atoms: N_14  and  C_15
REMARK    6  A    between atoms: C_18  and  C_21
REMARK    7  A    between atoms: C_22  and  C_24
REMARK                            x       y       z     vdW  Elec       q    Type
REMARK                         _______ _______ _______ _____ _____    ______ ____
ROOT
ATOM      1  C   UNL     1      -0.015  -4.494  -0.225  0.00  0.00    +0.212 C 
ATOM      2  N   UNL     1       0.889  -4.970  -1.289  0.00  0.00    -0.213 NA
ATOM      3  N   UNL     1       2.116  -4.375  -1.154  0.00  0.00    -0.248 N 
ATOM      4  C   UNL     1       2.722  -4.314   0.108  0.00  0.00    +0.195 C 
ATOM      5  N   UNL     1       2.007  -4.499   1.191  0.00  0.00    -0.158 NA
ATOM      6  N   UNL     1       0.630  -4.767   1.069  0.00  0.00    -0.200 N 
ATOM      7  C   UNL     1       2.791  -3.806  -2.323  0.00  0.00    +0.151 C 
ATOM      8  H   UNL     1       0.971  -5.975  -1.271  0.00  0.00    +0.147 HD
ENDROOT
BRANCH   1  13
ATOM      9  C   UNL     1      -0.911   1.185  -0.809  0.00  0.00    +0.044 C 
ATOM     10  C   UNL     1      -0.677  -0.296  -0.657  0.00  0.00    -0.050 A 
ATOM     11  C   UNL     1      -0.440  -1.077  -1.772  0.00  0.00    +0.004 A 
ATOM     12  C   UNL     1      -0.225  -2.435  -1.633  0.00  0.00    +0.007 A 
ATOM     13  C   UNL     1      -0.248  -3.013  -0.377  0.00  0.00    -0.010 A 
ATOM     14  C   UNL     1      -0.484  -2.232   0.739  0.00  0.00    +0.007 A 
ATOM     15  C   UNL     1      -0.695  -0.873   0.600  0.00  0.00    +0.004 A 
ENDBRANCH   1  13
BRANCH   6  16
ATOM     16  C   UNL     1      -0.101  -5.276   2.142  0.00  0.00    +0.054 A 
ATOM     17  C   UNL     1      -1.458  -5.539   1.998  0.00  0.00    +0.025 A 
ATOM     18  C   UNL     1      -2.179  -6.043   3.063  0.00  0.00    +0.005 A 
ATOM     19  C   UNL     1      -1.552  -6.286   4.271  0.00  0.00    -0.050 A 
ATOM     20  C   UNL     1      -0.202  -6.026   4.419  0.00  0.00    +0.005 A 
ATOM     21  C   UNL     1       0.527  -5.527   3.357  0.00  0.00    +0.025 A 
ATOM     22  C   UNL     1      -2.342  -6.835   5.431  0.00  0.00    +0.044 C 
ENDBRANCH   6  16
BRANCH   4  23
ATOM     23  C   UNL     1       4.109  -4.053   0.214  0.00  0.00    +0.195 C 
ATOM     24  O   UNL     1       4.753  -3.777  -0.778  0.00  0.00    -0.289 OA
ATOM     25  C   UNL     1       4.788  -4.117   1.558  0.00  0.00    +0.095 C 
ENDBRANCH   4  23
TORSDOF 3
