REMARK  Name = ZINC43726746
REMARK  13 active torsions:
REMARK  status: ('A' for Active; 'I' for Inactive)
REMARK    1  A    between atoms: C_1  and  C_2
REMARK    2  A    between atoms: C_2  and  C_4
REMARK    3  A    between atoms: C_2  and  C_10
REMARK    4  A    between atoms: C_4  and  C_5
REMARK    5  A    between atoms: C_5  and  C_6
REMARK    6  A    between atoms: C_6  and  C_7
REMARK    7  A    between atoms: C_7  and  C_8
REMARK    8  A    between atoms: C_7  and  C_9
REMARK    9  A    between atoms: C_16  and  C_37
REMARK   10  A    between atoms: C_24  and  O_36
REMARK   11  A    between atoms: C_26  and  O_35
REMARK   12  A    between atoms: C_27  and  C_34
REMARK   13  A    between atoms: C_30  and  O_33
REMARK                            x       y       z     vdW  Elec       q    Type
REMARK                         _______ _______ _______ _____ _____    ______ ____
ROOT
ATOM      1  C   UNL     1       0.878  -0.820   1.318  0.00  0.00    -0.002 C 
ATOM      2  C   UNL     1       0.862  -2.326   1.690  0.00  0.00    +0.004 C 
ATOM      3  C   UNL     1       0.470  -2.399   3.195  0.00  0.00    +0.004 C 
ATOM      4  C   UNL     1       0.754  -0.962   3.667  0.00  0.00    -0.001 C 
ATOM      5  C   UNL     1       0.153  -0.145   2.508  0.00  0.00    -0.026 C 
ATOM      6  C   UNL     1       0.452   1.319   2.679  0.00  0.00    +0.007 C 
ATOM      7  C   UNL     1       0.216   1.779   4.123  0.00  0.00    +0.005 C 
ATOM      8  C   UNL     1      -0.524   0.749   4.955  0.00  0.00    +0.001 C 
ATOM      9  C   UNL     1       0.204  -0.585   5.023  0.00  0.00    -0.001 C 
ATOM     10  C   UNL     1       1.397  -0.504   5.985  0.00  0.00    +0.038 C 
ATOM     11  C   UNL     1       0.979  -0.042   7.373  0.00  0.00    +0.147 C 
ATOM     12  C   UNL     1       0.286   1.314   7.285  0.00  0.00    +0.100 C 
ATOM     13  C   UNL     1      -0.902   1.276   6.338  0.00  0.00    +0.002 C 
ATOM     14  C   UNL     1      -1.468   2.698   6.213  0.00  0.00    +0.012 C 
ATOM     15  C   UNL     1      -1.934   3.198   7.577  0.00  0.00    +0.032 C 
ATOM     16  C   UNL     1      -0.807   3.153   8.603  0.00  0.00    +0.117 C 
ATOM     17  C   UNL     1      -0.160   1.774   8.674  0.00  0.00    +0.069 C 
ATOM     18  C   UNL     1      -2.018   0.375   6.886  0.00  0.00    +0.014 C 
ATOM     19  C   UNL     1      -1.339  -0.398   2.296  0.00  0.00    +0.012 C 
ENDROOT
BRANCH   1  21
ATOM     20  C   UNL     1       0.098   0.919  -0.292  0.00  0.00    +0.008 C 
ATOM     21  C   UNL     1       0.095  -0.576   0.032  0.00  0.00    -0.010 C 
BRANCH  21  22
ATOM     22  C   UNL     1       0.748  -1.348  -1.117  0.00  0.00    +0.003 C 
BRANCH  22  23
ATOM     23  C   UNL     1      -0.106  -1.205  -2.378  0.00  0.00    +0.001 C 
BRANCH  23  24
ATOM     24  C   UNL     1       0.547  -1.976  -3.527  0.00  0.00    +0.003 C 
BRANCH  24  25
ATOM     25  C   UNL     1      -0.307  -1.833  -4.788  0.00  0.00    -0.017 C 
ATOM     26  C   UNL     1      -0.314  -0.370  -5.236  0.00  0.00    +0.007 C 
ATOM     27  C   UNL     1       0.278  -2.704  -5.902  0.00  0.00    +0.007 C 
ENDBRANCH  24  25
ENDBRANCH  23  24
ENDBRANCH  22  23
ENDBRANCH  21  22
ENDBRANCH   1  21
BRANCH  16  28
ATOM     28  O   UNL     1       0.174   4.144   8.289  0.00  0.00    -0.392 OA
ATOM     29  H   UNL     1      -0.167   5.049   8.285  0.00  0.00    +0.210 HD
ENDBRANCH  16  28
BRANCH  12  30
ATOM     30  O   UNL     1       1.247   2.268   6.794  0.00  0.00    -0.385 OA
ATOM     31  H   UNL     1       2.027   2.366   7.357  0.00  0.00    +0.210 HD
ENDBRANCH  12  30
BRANCH  11  32
ATOM     32  O   UNL     1       0.169  -1.021   8.012  0.00  0.00    -0.389 OA
ATOM     33  H   UNL     1       0.605  -1.876   8.130  0.00  0.00    +0.210 HD
ENDBRANCH  11  32
TORSDOF 8
