REMARK  Name = ZINC11678071
REMARK  11 active torsions:
REMARK  status: ('A' for Active; 'I' for Inactive)
REMARK    1  A    between atoms: C_1  and  C_2
REMARK    2  A    between atoms: C_2  and  O_3
REMARK    3  A    between atoms: O_3  and  C_4
REMARK    4  A    between atoms: C_4  and  C_6
REMARK    5  A    between atoms: C_10  and  N_11
REMARK    6  A    between atoms: C_12  and  C_14
REMARK    7  A    between atoms: C_14  and  C_16
REMARK    8  A    between atoms: C_14  and  S_17
REMARK    9  A    between atoms: S_17  and  C_18
REMARK   10  A    between atoms: N_22  and  C_27
REMARK   11  A    between atoms: C_29  and  C_33
REMARK                            x       y       z     vdW  Elec       q    Type
REMARK                         _______ _______ _______ _____ _____    ______ ____
ROOT
ATOM      1  N   UNL     1      -2.307  -5.916   0.764  0.00  0.00    -0.278 N 
ATOM      2  C   UNL     1      -3.572  -6.203   0.398  0.00  0.00    +0.231 C 
ATOM      3  O   UNL     1      -4.300  -5.323  -0.011  0.00  0.00    -0.274 OA
ATOM      4  H   UNL     1      -1.725  -6.620   1.091  0.00  0.00    +0.155 HD
ENDROOT
BRANCH   1   9
ATOM      5  C   UNL     1      -0.579  -4.127   1.000  0.00  0.00    +0.091 A 
ATOM      6  C   UNL     1      -0.341  -2.706   0.810  0.00  0.00    -0.021 A 
ATOM      7  C   UNL     1      -1.390  -2.006   0.327  0.00  0.00    -0.004 A 
ATOM      8  S   UNL     1      -2.679  -3.203   0.126  0.00  0.00    -0.077 S 
ATOM      9  C   UNL     1      -1.838  -4.615   0.674  0.00  0.00    +0.086 A 
ATOM     10  C   UNL     1      -1.437  -0.538   0.030  0.00  0.00    +0.046 C 
ATOM     11  C   UNL     1       0.002  -0.004   0.002  0.00  0.00    -0.009 C 
ATOM     12  C   UNL     1       0.742  -0.514   1.242  0.00  0.00    +0.008 C 
ATOM     13  C   UNL     1       0.984  -2.020   1.120  0.00  0.00    +0.037 C 
ATOM     14  C   UNL     1      -0.019   1.526   0.010  0.00  0.00    +0.008 C 
BRANCH   5  15
ATOM     15  C   UNL     1       0.468  -5.010   1.516  0.00  0.00    +0.342 C 
ATOM     16  O   UNL     1       0.575  -5.191   2.715  0.00  0.00    -0.245 OA
BRANCH  15  17
ATOM     17  O   UNL     1       1.313  -5.625   0.664  0.00  0.00    -0.461 OA
BRANCH  17  19
ATOM     18  C   UNL     1       3.185  -7.090   0.132  0.00  0.00    +0.048 C 
ATOM     19  C   UNL     1       2.327  -6.486   1.246  0.00  0.00    +0.229 C 
ENDBRANCH  17  19
ENDBRANCH  15  17
ENDBRANCH   5  15
ENDBRANCH   1   9
BRANCH   2  20
ATOM     20  C   UNL     1      -4.082  -7.618   0.497  0.00  0.00    +0.136 C 
ATOM     21  C   UNL     1      -4.590  -7.879   1.916  0.00  0.00    +0.029 C 
BRANCH  20  22
ATOM     22  S   UNL     1      -5.436  -7.854  -0.681  0.00  0.00    -0.093 S 
BRANCH  22  23
ATOM     23  C   UNL     1      -5.729  -9.578  -0.468  0.00  0.00    +0.112 A 
ATOM     24  C   UNL     1      -6.737 -10.236  -1.202  0.00  0.00    +0.070 A 
ATOM     25  C   UNL     1      -7.672  -9.836  -2.181  0.00  0.00    +0.147 A 
ATOM     26  N   UNL     1      -8.372 -10.878  -2.532  0.00  0.00    -0.177 NA
ATOM     27  N   UNL     1      -7.937 -12.001  -1.817  0.00  0.00    -0.249 N 
ATOM     28  C   UNL     1      -6.922 -11.616  -0.993  0.00  0.00    +0.162 A 
ATOM     29  N   UNL     1      -6.147 -12.241  -0.107  0.00  0.00    -0.216 NA
ATOM     30  C   UNL     1      -5.223 -11.584   0.558  0.00  0.00    +0.224 A 
ATOM     31  N   UNL     1      -5.009 -10.290   0.393  0.00  0.00    -0.228 NA
ATOM     32  C   UNL     1      -8.479 -13.357  -1.935  0.00  0.00    +0.174 C 
ENDBRANCH  22  23
ENDBRANCH  20  22
ENDBRANCH   2  20
TORSDOF 7
