REMARK  Name = ZINC62754097
REMARK  2 active torsions:
REMARK  status: ('A' for Active; 'I' for Inactive)
REMARK    1  A    between atoms: C_4  and  C_21
REMARK    2  A    between atoms: C_6  and  N_10
REMARK                            x       y       z     vdW  Elec       q    Type
REMARK                         _______ _______ _______ _____ _____    ______ ____
ROOT
ATOM      1  C   UNL     1       0.470  -3.162   0.271  0.00  0.00    -0.000 C 
ATOM      2  C   UNL     1      -0.706  -2.366  -0.046  0.00  0.00    +0.001 C 
ATOM      3  C   UNL     1      -0.637  -1.752  -1.459  0.00  0.00    +0.013 C 
ATOM      4  C   UNL     1       0.235  -0.526  -1.405  0.00  0.00    +0.089 C 
ATOM      5  C   UNL     1       1.699  -0.829  -1.776  0.00  0.00    -0.054 C 
ATOM      6  C   UNL     1       2.213  -2.143  -1.159  0.00  0.00    -0.014 C 
ATOM      7  C   UNL     1       1.765  -2.324   0.266  0.00  0.00    -0.002 C 
ENDROOT
BRANCH   5   8
ATOM      8  N   UNL     1       1.808  -0.920  -3.239  0.00  0.00    +0.387 N 
ATOM      9  C   UNL     1       3.112  -1.507  -3.611  0.00  0.00    -0.049 C 
ATOM     10  C   UNL     1       3.227  -1.708  -5.119  0.00  0.00    +0.141 C 
ATOM     11  O   UNL     1       2.096  -2.425  -5.645  0.00  0.00    -0.380 OA
ATOM     12  C   UNL     1       0.886  -1.770  -5.308  0.00  0.00    +0.105 C 
ATOM     13  C   UNL     1       0.779  -1.806  -3.759  0.00  0.00    -0.039 C 
ATOM     14  C   UNL     1      -0.670  -1.410  -3.497  0.00  0.00    -0.013 C 
ATOM     15  C   UNL     1      -1.458  -1.887  -4.741  0.00  0.00    +0.001 C 
ATOM     16  C   UNL     1      -0.409  -2.463  -5.742  0.00  0.00    +0.030 C 
ATOM     17  H   UNL     1       1.713  -0.003  -3.648  0.00  0.00    -0.081 HD
ENDBRANCH   5   8
BRANCH   4  18
ATOM     18  C   UNL     1      -0.307   0.501  -2.366  0.00  0.00    +0.357 C 
ATOM     19  O   UNL     1      -1.490   0.794  -2.341  0.00  0.00    -0.246 OA
ATOM     20  O   UNL     1       0.437   1.038  -3.168  0.00  0.00    -0.246 OA
ENDBRANCH   4  18
TORSDOF 2
