REMARK  Name = ZINC49395132
REMARK  9 active torsions:
REMARK  status: ('A' for Active; 'I' for Inactive)
REMARK    1  A    between atoms: C_1  and  C_2
REMARK    2  A    between atoms: C_2  and  C_4
REMARK    3  A    between atoms: C_2  and  O_24
REMARK    4  A    between atoms: C_4  and  C_6
REMARK    5  A    between atoms: C_6  and  C_8
REMARK    6  A    between atoms: C_6  and  C_10
REMARK    7  A    between atoms: N_16  and  C_17
REMARK    8  A    between atoms: O_24  and  C_25
REMARK    9  A    between atoms: C_25  and  C_26
REMARK                            x       y       z     vdW  Elec       q    Type
REMARK                         _______ _______ _______ _____ _____    ______ ____
ROOT
ATOM      1  C   UNL     1       2.562  -0.236  -2.748  0.00  0.00    +0.160 A 
ATOM      2  N   UNL     1       2.401  -1.217  -3.619  0.00  0.00    -0.198 NA
ATOM      3  C   UNL     1       2.976  -1.147  -4.817  0.00  0.00    +0.217 A 
ATOM      4  N   UNL     1       3.713  -0.089  -5.138  0.00  0.00    -0.181 NA
ATOM      5  C   UNL     1       3.873   0.895  -4.260  0.00  0.00    +0.224 A 
ATOM      6  N   UNL     1       3.290   0.820  -3.065  0.00  0.00    -0.197 NA
ATOM      7  N   UNL     1       4.638   1.997  -4.588  0.00  0.00    -0.284 N 
ATOM      8  N   UNL     1       2.808  -2.173  -5.725  0.00  0.00    -0.327 N 
ATOM      9  H   UNL     1       4.822   2.676  -3.921  0.00  0.00    +0.155 HD
ATOM     10  H   UNL     1       2.270  -2.945  -5.490  0.00  0.00    +0.145 HD
ATOM     11  H   UNL     1       3.228  -2.121  -6.598  0.00  0.00    +0.145 HD
ENDROOT
BRANCH   7  12
ATOM     12  C   UNL     1       5.148   2.133  -5.883  0.00  0.00    +0.034 A 
ATOM     13  C   UNL     1       4.390   1.733  -6.976  0.00  0.00    +0.023 A 
ATOM     14  C   UNL     1       4.896   1.869  -8.253  0.00  0.00    +0.002 A 
ATOM     15  C   UNL     1       6.157   2.404  -8.445  0.00  0.00    +0.000 A 
ATOM     16  C   UNL     1       6.915   2.803  -7.360  0.00  0.00    +0.002 A 
ATOM     17  C   UNL     1       6.412   2.675  -6.080  0.00  0.00    +0.023 A 
ENDBRANCH   7  12
BRANCH   1  18
ATOM     18  C   UNL     1       1.908  -0.319  -1.393  0.00  0.00    +0.227 C 
BRANCH  18  19
ATOM     19  C   UNL     1       0.414  -0.423  -1.561  0.00  0.00    +0.186 C 
ATOM     20  O   UNL     1      -0.047  -0.956  -2.542  0.00  0.00    -0.293 OA
BRANCH  19  22
ATOM     21  C   UNL     1      -0.628   1.651  -0.689  0.00  0.00    +0.046 C 
ATOM     22  C   UNL     1      -0.504   0.137  -0.506  0.00  0.00    +0.183 C 
BRANCH  22  23
ATOM     23  O   UNL     1      -1.794  -0.465  -0.629  0.00  0.00    -0.365 OA
BRANCH  23  24
ATOM     24  C   UNL     1      -2.507  -0.570   0.606  0.00  0.00    +0.196 C 
BRANCH  24  25
ATOM     25  C   UNL     1      -3.846  -1.215   0.359  0.00  0.00    -0.022 A 
ATOM     26  C   UNL     1      -4.944  -0.434   0.052  0.00  0.00    +0.006 A 
ATOM     27  C   UNL     1      -6.172  -1.026  -0.174  0.00  0.00    +0.000 A 
ATOM     28  C   UNL     1      -6.303  -2.399  -0.093  0.00  0.00    +0.000 A 
ATOM     29  C   UNL     1      -5.205  -3.181   0.212  0.00  0.00    +0.000 A 
ATOM     30  C   UNL     1      -3.975  -2.590   0.434  0.00  0.00    +0.006 A 
ENDBRANCH  24  25
ENDBRANCH  23  24
ENDBRANCH  22  23
ENDBRANCH  19  22
ENDBRANCH  18  19
BRANCH  18  31
ATOM     31  C   UNL     1       2.406  -1.506  -0.680  0.00  0.00    +0.082 C 
ATOM     32  N   UNL     1       2.790  -2.423  -0.130  0.00  0.00    -0.195 NA
ENDBRANCH  18  31
ENDBRANCH   1  18
TORSDOF 8
