REMARK  Name = ZINC00203125
REMARK  4 active torsions:
REMARK  status: ('A' for Active; 'I' for Inactive)
REMARK    1  A    between atoms: C_1  and  C_2
REMARK    2  A    between atoms: C_7  and  C_11
REMARK    3  A    between atoms: C_7  and  C_15
REMARK    4  A    between atoms: C_9  and  O_10
REMARK                            x       y       z     vdW  Elec       q    Type
REMARK                         _______ _______ _______ _____ _____    ______ ____
ROOT
ATOM      1  C   UNL     1      -0.018   1.503   0.010  0.00  0.00    +0.045 C 
ATOM      2  C   UNL     1       0.002  -0.004   0.002  0.00  0.00    -0.036 C 
ATOM      3  C   UNL     1      -1.158  -0.688   0.004  0.00  0.00    +0.090 C 
ATOM      4  N   UNL     1      -1.169  -2.060  -0.004  0.00  0.00    -0.215 N 
ATOM      5  C   UNL     1       0.021  -2.752  -0.013  0.00  0.00    +0.131 C 
ATOM      6  N   UNL     1       0.043  -4.069  -0.019  0.00  0.00    -0.222 NA
ATOM      7  C   UNL     1      -1.233  -4.798  -0.018  0.00  0.00    +0.347 C 
ATOM      8  N   UNL     1      -2.472  -4.006  -0.008  0.00  0.00    -0.189 NA
ATOM      9  C   UNL     1      -2.388  -2.712  -0.001  0.00  0.00    +0.290 C 
ATOM     10  C   UNL     1       1.247  -2.043  -0.014  0.00  0.00    +0.044 C 
ATOM     11  C   UNL     1       1.233  -0.685  -0.013  0.00  0.00    +0.008 C 
ENDROOT
BRANCH   7  12
ATOM     12  C   UNL     1      -1.261  -5.695  -1.256  0.00  0.00    +0.444 C 
ATOM     13  F   UNL     1      -0.189  -6.593  -1.206  0.00  0.00    -0.166 F 
ATOM     14  F   UNL     1      -2.464  -6.408  -1.290  0.00  0.00    -0.166 F 
ATOM     15  F   UNL     1      -1.154  -4.906  -2.407  0.00  0.00    -0.166 F 
ENDBRANCH   7  12
BRANCH   7  16
ATOM     16  C   UNL     1      -1.250  -5.708   1.212  0.00  0.00    +0.444 C 
ATOM     17  F   UNL     1      -1.134  -4.930   2.369  0.00  0.00    -0.166 F 
ATOM     18  F   UNL     1      -2.454  -6.421   1.248  0.00  0.00    -0.166 F 
ATOM     19  F   UNL     1      -0.179  -6.605   1.144  0.00  0.00    -0.166 F 
ENDBRANCH   7  16
BRANCH   9  20
ATOM     20  O   UNL     1      -3.523  -1.981   0.009  0.00  0.00    -0.481 OA
ATOM     21  H   UNL     1      -4.332  -2.511   0.010  0.00  0.00    +0.295 HD
ENDBRANCH   9  20
TORSDOF 3
