REMARK  Name = ZINC20911481
REMARK  7 active torsions:
REMARK  status: ('A' for Active; 'I' for Inactive)
REMARK    1  A    between atoms: C_1  and  O_2
REMARK    2  A    between atoms: O_2  and  C_3
REMARK    3  A    between atoms: C_6  and  C_9
REMARK    4  A    between atoms: C_10  and  C_15
REMARK    5  A    between atoms: C_15  and  N_16
REMARK    6  A    between atoms: N_24  and  C_26
REMARK    7  A    between atoms: C_26  and  C_27
REMARK                            x       y       z     vdW  Elec       q    Type
REMARK                         _______ _______ _______ _____ _____    ______ ____
ROOT
ATOM      1  C   UNL     1      -2.670   1.579  -0.080  0.00  0.00    +0.123 C 
ENDROOT
BRANCH   1   2
ATOM      2  N   UNL     1      -3.112   1.771  -1.468  0.00  0.00    -0.298 NA
ATOM      3  C   UNL     1      -3.017   3.193  -1.862  0.00  0.00    +0.085 C 
ATOM      4  C   UNL     1      -4.203   3.416  -2.835  0.00  0.00    +0.021 C 
ATOM      5  C   UNL     1      -5.294   2.522  -2.206  0.00  0.00    -0.030 C 
ATOM      6  C   UNL     1      -4.508   1.326  -1.645  0.00  0.00    +0.089 C 
ATOM      7  C   UNL     1      -6.006   3.270  -1.086  0.00  0.00    +0.004 C 
ATOM      8  C   UNL     1      -7.109   2.378  -0.505  0.00  0.00    -0.018 C 
ATOM      9  C   UNL     1      -8.060   1.959  -1.629  0.00  0.00    -0.079 C 
ATOM     10  N   UNL     1      -7.315   1.220  -2.656  0.00  0.00    +0.380 N 
ATOM     11  C   UNL     1      -6.281   2.064  -3.271  0.00  0.00    -0.071 C 
ATOM     12  H   UNL     1      -6.811   0.375  -2.163  0.00  0.00    -0.082 HD
BRANCH  10  13
ATOM     13  C   UNL     1      -8.223   0.674  -3.674  0.00  0.00    -0.075 C 
BRANCH  13  14
ATOM     14  C   UNL     1      -9.123  -0.388  -3.038  0.00  0.00    -0.028 C 
ATOM     15  C   UNL     1      -8.989  -1.824  -3.547  0.00  0.00    +0.002 C 
ATOM     16  C   UNL     1     -10.223  -0.996  -3.910  0.00  0.00    +0.002 C 
ENDBRANCH  13  14
ENDBRANCH  10  13
ENDBRANCH   1   2
BRANCH   1  18
ATOM     17  C   UNL     1      -0.254   0.700  -0.459  0.00  0.00    +0.097 A 
ATOM     18  C   UNL     1      -1.167   1.675  -0.013  0.00  0.00    +0.012 A 
ATOM     19  C   UNL     1      -0.458   2.712   0.483  0.00  0.00    +0.110 A 
ATOM     20  N   UNL     1       0.854   2.411   0.369  0.00  0.00    -0.284 N 
ATOM     21  H   UNL     1       1.614   3.125   0.720  0.00  0.00    +0.188 HD
ATOM     22  N   UNL     1       0.962   1.147  -0.224  0.00  0.00    -0.174 NA
BRANCH  17  26
ATOM     23  C   UNL     1      -1.247  -3.037  -2.234  0.00  0.00    +0.120 A 
ATOM     24  C   UNL     1      -0.216  -2.271  -2.762  0.00  0.00    +0.046 A 
ATOM     25  C   UNL     1       0.108  -1.059  -2.189  0.00  0.00    +0.013 A 
ATOM     26  C   UNL     1      -0.600  -0.603  -1.078  0.00  0.00    +0.003 A 
ATOM     27  C   UNL     1      -1.630  -1.377  -0.546  0.00  0.00    +0.013 A 
ATOM     28  C   UNL     1      -1.954  -2.586  -1.127  0.00  0.00    +0.046 A 
BRANCH  23  30
ATOM     29  C   UNL     1      -2.635  -4.966  -2.206  0.00  0.00    +0.277 C 
ATOM     30  O   UNL     1      -1.564  -4.230  -2.800  0.00  0.00    -0.495 OA
ENDBRANCH  23  30
ENDBRANCH  17  26
ENDBRANCH   1  18
TORSDOF 6
