REMARK  Name = ZINC60391350
REMARK  8 active torsions:
REMARK  status: ('A' for Active; 'I' for Inactive)
REMARK    1  A    between atoms: C_4  and  S_19
REMARK    2  A    between atoms: C_5  and  C_7
REMARK    3  A    between atoms: C_7  and  O_9
REMARK    4  A    between atoms: O_9  and  C_10
REMARK    5  A    between atoms: C_13  and  C_16
REMARK    6  A    between atoms: S_19  and  C_20
REMARK    7  A    between atoms: C_20  and  C_21
REMARK    8  A    between atoms: N_23  and  C_24
REMARK                            x       y       z     vdW  Elec       q    Type
REMARK                         _______ _______ _______ _____ _____    ______ ____
ROOT
ATOM      1  C   UNL     1      -0.027   1.373   0.011  0.00  0.00    +0.001 A 
ATOM      2  C   UNL     1       1.156   2.093  -0.037  0.00  0.00    +0.001 A 
ATOM      3  C   UNL     1       2.370   1.441  -0.093  0.00  0.00    +0.015 A 
ATOM      4  C   UNL     1       2.414   0.051  -0.102  0.00  0.00    +0.022 A 
ATOM      5  C   UNL     1       1.217  -0.682  -0.053  0.00  0.00    +0.073 A 
ATOM      6  C   UNL     1      -0.005  -0.004   0.004  0.00  0.00    +0.016 A 
ENDROOT
BRANCH   5   7
ATOM      7  C   UNL     1       1.248  -2.154  -0.062  0.00  0.00    +0.346 C 
ATOM      8  O   UNL     1       2.312  -2.739  -0.111  0.00  0.00    -0.244 OA
BRANCH   7   9
ATOM      9  O   UNL     1       0.096  -2.853  -0.015  0.00  0.00    -0.422 OA
BRANCH   9  10
ATOM     10  C   UNL     1       0.165  -4.204  -0.128  0.00  0.00    +0.132 A 
ATOM     11  C   UNL     1       0.570  -4.970   0.959  0.00  0.00    +0.047 A 
ATOM     12  C   UNL     1       0.641  -6.341   0.849  0.00  0.00    +0.016 A 
ATOM     13  C   UNL     1       0.306  -6.961  -0.358  0.00  0.00    +0.037 A 
ATOM     14  C   UNL     1      -0.100  -6.188  -1.448  0.00  0.00    +0.016 A 
ATOM     15  C   UNL     1      -0.174  -4.817  -1.328  0.00  0.00    +0.047 A 
BRANCH  13  16
ATOM     16  C   UNL     1       0.382  -8.431  -0.480  0.00  0.00    +0.242 C 
ATOM     17  O   UNL     1       0.736  -9.103   0.469  0.00  0.00    -0.270 OA
ATOM     18  N   UNL     1       0.058  -9.027  -1.645  0.00  0.00    -0.325 N 
ATOM     19  H   UNL     1      -0.224  -8.491  -2.402  0.00  0.00    +0.145 HD
ATOM     20  H   UNL     1       0.108  -9.993  -1.726  0.00  0.00    +0.145 HD
ENDBRANCH  13  16
ENDBRANCH   9  10
ENDBRANCH   7   9
ENDBRANCH   5   7
BRANCH   4  21
ATOM     21  S   UNL     1       3.963  -0.786  -0.174  0.00  0.00    -0.115 S 
BRANCH  21  22
ATOM     22  C   UNL     1       5.184   0.555  -0.221  0.00  0.00    +0.170 C 
BRANCH  22  23
ATOM     23  C   UNL     1       6.571  -0.031  -0.285  0.00  0.00    +0.224 C 
ATOM     24  O   UNL     1       6.721  -1.235  -0.298  0.00  0.00    -0.275 OA
ATOM     25  N   UNL     1       7.645   0.782  -0.329  0.00  0.00    -0.309 N 
ATOM     26  H   UNL     1       7.525   1.745  -0.319  0.00  0.00    +0.149 HD
BRANCH  25  27
ATOM     27  C   UNL     1       8.993   0.212  -0.391  0.00  0.00    +0.035 C 
ATOM     28  C   UNL     1       9.127  -0.644  -1.651  0.00  0.00    +0.029 C 
ATOM     29  C   UNL     1      10.535  -1.239  -1.716  0.00  0.00    -0.008 C 
ATOM     30  C   UNL     1      11.565  -0.109  -1.756  0.00  0.00    +0.007 C 
ATOM     31  C   UNL     1      11.431   0.748  -0.496  0.00  0.00    -0.008 C 
ATOM     32  C   UNL     1      10.023   1.343  -0.431  0.00  0.00    +0.029 C 
ATOM     33  C   UNL     1      11.675  -0.121   0.740  0.00  0.00    +0.007 C 
ATOM     34  C   UNL     1      10.645  -1.251   0.780  0.00  0.00    -0.008 C 
ATOM     35  C   UNL     1      10.779  -2.108  -0.481  0.00  0.00    +0.007 C 
ATOM     36  C   UNL     1       9.237  -0.656   0.845  0.00  0.00    +0.029 C 
ENDBRANCH  25  27
ENDBRANCH  22  23
ENDBRANCH  21  22
ENDBRANCH   4  21
TORSDOF 8
