REMARK  Name = ZINC33600607
REMARK  6 active torsions:
REMARK  status: ('A' for Active; 'I' for Inactive)
REMARK    1  A    between atoms: C_4  and  C_10
REMARK    2  A    between atoms: C_6  and  N_7
REMARK    3  A    between atoms: C_11  and  C_12
REMARK    4  A    between atoms: C_11  and  C_14
REMARK    5  A    between atoms: N_16  and  C_17
REMARK    6  A    between atoms: C_18  and  C_26
REMARK                            x       y       z     vdW  Elec       q    Type
REMARK                         _______ _______ _______ _____ _____    ______ ____
ROOT
ATOM      1  C   UNL     1       2.454  -2.812   0.068  0.00  0.00    +0.259 C 
ATOM      2  O   UNL     1       1.395  -2.237  -0.102  0.00  0.00    -0.269 OA
ATOM      3  N   UNL     1       2.473  -4.145   0.263  0.00  0.00    -0.274 N 
ATOM      4  H   UNL     1       3.317  -4.603   0.398  0.00  0.00    +0.156 HD
ENDROOT
BRANCH   3   5
ATOM      5  C   UNL     1       1.286  -4.862   0.271  0.00  0.00    +0.090 A 
ATOM      6  C   UNL     1       1.114  -6.223   0.461  0.00  0.00    +0.084 A 
ATOM      7  C   UNL     1      -0.244  -6.734   0.423  0.00  0.00    -0.018 A 
ATOM      8  C   UNL     1      -1.184  -5.788   0.203  0.00  0.00    -0.004 A 
ATOM      9  S   UNL     1      -0.274  -4.277   0.060  0.00  0.00    -0.077 S 
ATOM     10  C   UNL     1      -2.664  -5.995   0.108  0.00  0.00    +0.043 C 
ATOM     11  C   UNL     1      -2.930  -7.496  -0.077  0.00  0.00    +0.005 C 
ATOM     12  C   UNL     1      -2.112  -8.275   0.957  0.00  0.00    +0.005 C 
ATOM     13  C   UNL     1      -0.623  -8.195   0.612  0.00  0.00    +0.037 C 
BRANCH   6  14
ATOM     14  C   UNL     1       2.231  -7.092   0.684  0.00  0.00    +0.102 C 
ATOM     15  N   UNL     1       3.117  -7.780   0.861  0.00  0.00    -0.191 NA
ENDBRANCH   6  14
ENDBRANCH   3   5
BRANCH   1  17
ATOM     16  C   UNL     1       3.687  -0.676   0.007  0.00  0.00    +0.033 C 
ATOM     17  C   UNL     1       3.713  -2.051   0.059  0.00  0.00    +0.114 C 
BRANCH  16  21
ATOM     18  C   UNL     1       0.015   1.391   0.465  0.00  0.00    +0.034 A 
ATOM     19  C   UNL     1       0.895   1.768  -0.534  0.00  0.00    +0.023 A 
ATOM     20  C   UNL     1       2.093   1.102  -0.691  0.00  0.00    +0.048 A 
ATOM     21  C   UNL     1       2.416   0.039   0.165  0.00  0.00    -0.003 A 
ATOM     22  C   UNL     1       1.518  -0.335   1.173  0.00  0.00    +0.042 A 
ATOM     23  C   UNL     1       0.326   0.343   1.315  0.00  0.00    +0.127 A 
ATOM     24 CL   UNL     1       3.196   1.576  -1.945  0.00  0.00    -0.083 Cl
BRANCH  23  25
ATOM     25  N   UNL     1      -0.624  -0.051   2.379  0.00  0.00    +0.056 N 
ATOM     26  O   UNL     1      -1.670   0.542   2.505  0.00  0.00    -0.126 OA
ATOM     27  O   UNL     1      -0.354  -0.966   3.122  0.00  0.00    -0.126 OA
ENDBRANCH  23  25
ENDBRANCH  16  21
BRANCH  17  28
ATOM     28  C   UNL     1       4.967  -2.741   0.105  0.00  0.00    +0.104 C 
ATOM     29  N   UNL     1       5.962  -3.289   0.141  0.00  0.00    -0.191 NA
ENDBRANCH  17  28
ENDBRANCH   1  17
TORSDOF 6
