REMARK  Name = ZINC15947235
REMARK  6 active torsions:
REMARK  status: ('A' for Active; 'I' for Inactive)
REMARK    1  A    between atoms: C_7  and  O_34
REMARK    2  A    between atoms: C_8  and  C_12
REMARK    3  A    between atoms: C_12  and  C_13
REMARK    4  A    between atoms: C_12  and  C_22
REMARK    5  A    between atoms: C_17  and  N_19
REMARK    6  A    between atoms: C_23  and  O_33
REMARK                            x       y       z     vdW  Elec       q    Type
REMARK                         _______ _______ _______ _____ _____    ______ ____
ROOT
ATOM      1  C   UNL     1       2.076  -4.489  -0.348  0.00  0.00    +0.095 C 
ENDROOT
BRANCH   1   9
ATOM      2  C   UNL     1      -3.911  -3.607   0.821  0.00  0.00    +0.001 A 
ATOM      3  C   UNL     1      -4.154  -2.344   0.301  0.00  0.00    +0.001 A 
ATOM      4  C   UNL     1      -3.129  -1.633  -0.297  0.00  0.00    +0.016 A 
ATOM      5  C   UNL     1      -1.875  -2.199  -0.364  0.00  0.00    +0.026 A 
ATOM      6  C   UNL     1      -1.609  -3.484   0.159  0.00  0.00    +0.031 A 
ATOM      7  C   UNL     1      -2.673  -4.177   0.759  0.00  0.00    +0.012 A 
ATOM      8  C   UNL     1      -0.284  -4.076   0.083  0.00  0.00    +0.133 A 
ATOM      9  C   UNL     1       0.858  -3.607  -0.434  0.00  0.00    +0.060 A 
ATOM     10  C   UNL     1       1.006  -2.344  -1.056  0.00  0.00    +0.225 A 
ATOM     11  O   UNL     1       2.066  -1.953  -1.516  0.00  0.00    -0.280 OA
ATOM     12  S   UNL     1      -0.493  -1.373  -1.110  0.00  0.00    -0.047 S 
BRANCH   8  13
ATOM     13  O   UNL     1      -0.189  -5.311   0.629  0.00  0.00    -0.506 OA
ATOM     14  H   UNL     1      -0.379  -6.030   0.011  0.00  0.00    +0.292 HD
ENDBRANCH   8  13
ENDBRANCH   1   9
BRANCH   1  15
ATOM     15  C   UNL     1       2.777  -4.251   0.965  0.00  0.00    +0.060 A 
ATOM     16  C   UNL     1       3.232  -5.321   1.627  0.00  0.00    +0.133 A 
ATOM     17  C   UNL     1       3.936  -5.428   2.894  0.00  0.00    +0.031 A 
ATOM     18  C   UNL     1       4.320  -6.681   3.400  0.00  0.00    +0.012 A 
ATOM     19  C   UNL     1       4.980  -6.764   4.590  0.00  0.00    +0.001 A 
ATOM     20  C   UNL     1       5.290  -5.630   5.328  0.00  0.00    +0.001 A 
ATOM     21  C   UNL     1       4.927  -4.380   4.859  0.00  0.00    +0.016 A 
ATOM     22  C   UNL     1       4.260  -4.285   3.658  0.00  0.00    +0.026 A 
ATOM     23  S   UNL     1       3.750  -2.731   2.969  0.00  0.00    -0.047 S 
ATOM     24  C   UNL     1       2.911  -2.911   1.401  0.00  0.00    +0.225 A 
ATOM     25  O   UNL     1       2.487  -1.961   0.764  0.00  0.00    -0.280 OA
BRANCH  16  26
ATOM     26  O   UNL     1       2.994  -6.504   1.015  0.00  0.00    -0.506 OA
ATOM     27  H   UNL     1       2.153  -6.913   1.262  0.00  0.00    +0.292 HD
ENDBRANCH  16  26
ENDBRANCH   1  15
BRANCH   1  28
ATOM     28  C   UNL     1       3.013  -4.165  -1.484  0.00  0.00    -0.033 A 
ATOM     29  C   UNL     1       4.210  -3.522  -1.230  0.00  0.00    +0.005 A 
ATOM     30  C   UNL     1       5.069  -3.224  -2.272  0.00  0.00    +0.003 A 
ATOM     31  C   UNL     1       4.730  -3.570  -3.567  0.00  0.00    +0.033 A 
ATOM     32  C   UNL     1       3.534  -4.214  -3.820  0.00  0.00    +0.126 A 
ATOM     33  C   UNL     1       2.677  -4.515  -2.778  0.00  0.00    +0.037 A 
BRANCH  32  34
ATOM     34  N   UNL     1       3.171  -4.583  -5.207  0.00  0.00    +0.056 N 
ATOM     35  O   UNL     1       3.921  -4.322  -6.118  0.00  0.00    -0.126 OA
ATOM     36  O   UNL     1       2.124  -5.146  -5.428  0.00  0.00    -0.126 OA
ENDBRANCH  32  34
ENDBRANCH   1  28
TORSDOF 6
