REMARK  Name = ZINC15403504
REMARK  8 active torsions:
REMARK  status: ('A' for Active; 'I' for Inactive)
REMARK    1  A    between atoms: C_1  and  N_56
REMARK    2  A    between atoms: C_2  and  C_3
REMARK    3  A    between atoms: C_2  and  N_56
REMARK    4  A    between atoms: N_5  and  C_6
REMARK    5  A    between atoms: C_9  and  S_12
REMARK    6  A    between atoms: S_12  and  N_15
REMARK    7  A    between atoms: C_16  and  C_17
REMARK    8  A    between atoms: C_16  and  N_56
REMARK                            x       y       z     vdW  Elec       q    Type
REMARK                         _______ _______ _______ _____ _____    ______ ____
ROOT
ATOM      1  C   UNL     1      -1.474  -0.377   0.560  0.00  0.00    +0.201 C 
ATOM      2  O   UNL     1      -2.379   0.373   0.259  0.00  0.00    -0.278 OA
ATOM      3  N   UNL     1      -1.746  -1.630   0.974  0.00  0.00    -0.287 N 
ATOM      4  H   UNL     1      -1.028  -2.208   1.275  0.00  0.00    +0.155 HD
ENDROOT
BRANCH   3   5
ATOM      5  C   UNL     1      -3.065  -2.097   0.971  0.00  0.00    +0.033 A 
ATOM      6  C   UNL     1      -4.110  -1.233   1.272  0.00  0.00    +0.025 A 
ATOM      7  C   UNL     1      -5.412  -1.695   1.261  0.00  0.00    +0.030 A 
ATOM      8  C   UNL     1      -5.674  -3.020   0.963  0.00  0.00    +0.105 A 
ATOM      9  C   UNL     1      -4.635  -3.884   0.668  0.00  0.00    +0.030 A 
ATOM     10  C   UNL     1      -3.332  -3.426   0.671  0.00  0.00    +0.025 A 
BRANCH   8  11
ATOM     11  S   UNL     1      -7.335  -3.608   0.957  0.00  0.00    +0.056 S 
ATOM     12  O   UNL     1      -8.165  -2.477   0.730  0.00  0.00    -0.153 OA
ATOM     13  O   UNL     1      -7.358  -4.752   0.115  0.00  0.00    -0.153 OA
BRANCH  11  14
ATOM     14  N   UNL     1      -7.670  -4.141   2.489  0.00  0.00    -0.204 NA
ATOM     15  H   UNL     1      -8.577  -4.096   2.831  0.00  0.00    +0.144 HD
ATOM     16  H   UNL     1      -6.960  -4.500   3.044  0.00  0.00    +0.144 HD
ENDBRANCH  11  14
ENDBRANCH   8  11
ENDBRANCH   3   5
BRANCH   1  17
ATOM     17  C   UNL     1      -0.045   0.093   0.470  0.00  0.00    +0.019 C 
BRANCH  17  19
ATOM     18  C   UNL     1      -0.503   1.580  -1.386  0.00  0.00    -0.096 C 
ATOM     19  N   UNL     1      -0.033   1.499   0.013  0.00  0.00    +0.384 N 
ATOM     20  H   UNL     1      -0.664   2.048   0.609  0.00  0.00    -0.082 HD
BRANCH  19  21
ATOM     21  C   UNL     1       1.333   2.054   0.120  0.00  0.00    -0.072 C 
BRANCH  21  22
ATOM     22  C   UNL     1       1.229   3.561   0.360  0.00  0.00    -0.043 C 
ATOM     23  C   UNL     1       2.630   4.176   0.352  0.00  0.00    +0.008 C 
ATOM     24  C   UNL     1       2.526   5.684   0.593  0.00  0.00    -0.010 C 
ATOM     25  C   UNL     1       1.865   5.939   1.948  0.00  0.00    +0.007 C 
ATOM     26  C   UNL     1       0.464   5.324   1.957  0.00  0.00    -0.010 C 
ATOM     27  C   UNL     1       0.568   3.817   1.716  0.00  0.00    +0.008 C 
ATOM     28  C   UNL     1      -0.379   5.961   0.850  0.00  0.00    +0.007 C 
ATOM     29  C   UNL     1       0.283   5.705  -0.506  0.00  0.00    -0.010 C 
ATOM     30  C   UNL     1       1.683   6.320  -0.514  0.00  0.00    +0.007 C 
ATOM     31  C   UNL     1       0.386   4.197  -0.747  0.00  0.00    +0.008 C 
ENDBRANCH  21  22
ENDBRANCH  19  21
ENDBRANCH  17  19
ENDBRANCH   1  17
TORSDOF 7
