REMARK  Name = ZINC63527210
REMARK  8 active torsions:
REMARK  status: ('A' for Active; 'I' for Inactive)
REMARK    1  A    between atoms: C_1  and  C_2
REMARK    2  A    between atoms: C_10  and  N_18
REMARK    3  A    between atoms: C_12  and  C_14
REMARK    4  A    between atoms: C_14  and  O_16
REMARK    5  A    between atoms: O_16  and  C_17
REMARK    6  A    between atoms: C_19  and  C_21
REMARK    7  A    between atoms: C_21  and  S_22
REMARK    8  A    between atoms: S_22  and  C_23
REMARK                            x       y       z     vdW  Elec       q    Type
REMARK                         _______ _______ _______ _____ _____    ______ ____
ROOT
ATOM      1  N   UNL     1       3.534  -4.519   0.641  0.00  0.00    -0.301 N 
ATOM      2  C   UNL     1       4.417  -5.475   0.990  0.00  0.00    +0.224 C 
ATOM      3  O   UNL     1       4.042  -6.455   1.598  0.00  0.00    -0.275 OA
ATOM      4  H   UNL     1       3.819  -3.771   0.093  0.00  0.00    +0.150 HD
ENDROOT
BRANCH   1  13
ATOM      5  C   UNL     1      -0.363   1.312   0.069  0.00  0.00    +0.008 C 
ATOM      6  C   UNL     1      -0.271  -0.215   0.064  0.00  0.00    -0.009 C 
ATOM      7  C   UNL     1       0.329  -0.691  -1.263  0.00  0.00    +0.008 C 
ATOM      8  C   UNL     1       0.201  -2.210  -1.364  0.00  0.00    +0.033 C 
ATOM      9  C   UNL     1       0.783  -2.846  -0.104  0.00  0.00    -0.044 C 
ATOM     10  C   UNL     1       0.969  -2.134   1.001  0.00  0.00    -0.012 C 
ATOM     11  C   UNL     1       0.638  -0.681   1.208  0.00  0.00    +0.045 C 
ATOM     12  S   UNL     1       1.701  -3.213   2.209  0.00  0.00    -0.106 S 
ATOM     13  C   UNL     1       2.142  -4.609   1.090  0.00  0.00    +0.153 C 
ATOM     14  C   UNL     1       1.151  -4.308  -0.061  0.00  0.00    +0.155 C 
BRANCH  14  15
ATOM     15  C   UNL     1       1.786  -4.696  -1.371  0.00  0.00    +0.317 C 
ATOM     16  O   UNL     1       2.498  -3.912  -1.953  0.00  0.00    -0.250 OA
BRANCH  15  17
ATOM     17  O   UNL     1       1.561  -5.912  -1.892  0.00  0.00    -0.467 OA
ATOM     18  C   UNL     1       2.195  -6.212  -3.138  0.00  0.00    +0.280 C 
ENDBRANCH  15  17
ENDBRANCH  14  15
ENDBRANCH   1  13
BRANCH   2  19
ATOM     19  C   UNL     1       5.872  -5.327   0.623  0.00  0.00    +0.173 C 
BRANCH  19  20
ATOM     20  S   UNL     1       6.797  -6.765   1.227  0.00  0.00    -0.078 S 
BRANCH  20  21
ATOM     21  C   UNL     1       8.456  -6.446   0.726  0.00  0.00    +0.170 A 
ATOM     22  N   UNL     1       9.432  -7.349   1.021  0.00  0.00    -0.302 N 
ATOM     23  H   UNL     1       9.215  -8.165   1.498  0.00  0.00    +0.171 HD
ATOM     24  C   UNL     1      10.702  -7.099   0.645  0.00  0.00    +0.255 A 
ATOM     25  O   UNL     1      11.591  -7.894   0.905  0.00  0.00    -0.267 OA
ATOM     26  C   UNL     1      10.990  -5.908  -0.054  0.00  0.00    +0.038 A 
ATOM     27  C   UNL     1       9.977  -5.046  -0.329  0.00  0.00    +0.052 A 
ATOM     28  N   UNL     1       8.733  -5.340   0.068  0.00  0.00    -0.228 NA
ATOM     29  C   UNL     1      10.186  -3.761  -1.086  0.00  0.00    +0.056 C 
ATOM     30  C   UNL     1      11.663  -3.372  -1.087  0.00  0.00    +0.006 C 
ATOM     31  C   UNL     1      12.482  -4.583  -1.548  0.00  0.00    +0.005 C 
ATOM     32  C   UNL     1      12.417  -5.651  -0.458  0.00  0.00    +0.042 C 
ENDBRANCH  20  21
ENDBRANCH  19  20
ENDBRANCH   2  19
TORSDOF 6
