REMARK  Name = ZINC39580770
REMARK  7 active torsions:
REMARK  status: ('A' for Active; 'I' for Inactive)
REMARK    1  A    between atoms: C_1  and  C_2
REMARK    2  A    between atoms: C_5  and  O_32
REMARK    3  A    between atoms: C_17  and  O_31
REMARK    4  A    between atoms: C_19  and  C_30
REMARK    5  A    between atoms: C_24  and  C_26
REMARK    6  A    between atoms: C_26  and  O_28
REMARK    7  A    between atoms: O_28  and  C_29
REMARK                            x       y       z     vdW  Elec       q    Type
REMARK                         _______ _______ _______ _____ _____    ______ ____
ROOT
ATOM      1  C   UNL     1       0.362   1.383   0.568  0.00  0.00    +0.012 C 
ATOM      2  C   UNL     1       0.323  -0.149   0.591  0.00  0.00    -0.026 C 
ATOM      3  C   UNL     1       1.159  -0.695  -0.565  0.00  0.00    +0.010 C 
ATOM      4  C   UNL     1       2.623  -0.286  -0.399  0.00  0.00    +0.032 C 
ATOM      5  C   UNL     1       3.169  -0.785   0.937  0.00  0.00    +0.115 C 
ATOM      6  C   UNL     1       2.330  -0.232   2.093  0.00  0.00    +0.035 C 
ATOM      7  C   UNL     1       0.880  -0.677   1.912  0.00  0.00    -0.002 C 
ATOM      8  C   UNL     1       0.024  -0.240   3.095  0.00  0.00    +0.004 C 
ATOM      9  C   UNL     1      -1.410  -0.766   2.924  0.00  0.00    +0.004 C 
ATOM     10  C   UNL     1      -1.484  -1.528   1.606  0.00  0.00    -0.004 C 
ATOM     11  C   UNL     1      -1.139  -0.582   0.454  0.00  0.00    +0.001 C 
ATOM     12  C   UNL     1      -1.432  -1.246  -0.879  0.00  0.00    +0.036 C 
ATOM     13  C   UNL     1      -2.934  -1.529  -1.055  0.00  0.00    +0.122 C 
ATOM     14  C   UNL     1      -3.643  -1.581   0.269  0.00  0.00    +0.010 C 
ATOM     15  C   UNL     1      -2.781  -2.237   1.363  0.00  0.00    +0.002 C 
ATOM     16  C   UNL     1      -3.762  -2.314   2.543  0.00  0.00    +0.005 C 
ATOM     17  C   UNL     1      -5.114  -2.669   1.865  0.00  0.00    +0.015 C 
ATOM     18  C   UNL     1      -4.914  -2.451   0.341  0.00  0.00    +0.106 C 
ATOM     19  C   UNL     1      -4.097  -0.169   0.677  0.00  0.00    +0.015 C 
ENDROOT
BRANCH  18  20
ATOM     20  C   UNL     1      -4.742  -3.771  -0.349  0.00  0.00    +0.311 C 
ATOM     21  O   UNL     1      -4.266  -4.708   0.247  0.00  0.00    -0.251 OA
BRANCH  20  22
ATOM     22  O   UNL     1      -5.119  -3.912  -1.630  0.00  0.00    -0.468 OA
ATOM     23  C   UNL     1      -4.927  -5.197  -2.225  0.00  0.00    +0.280 C 
ENDBRANCH  20  22
ENDBRANCH  18  20
BRANCH  13  24
ATOM     24  O   UNL     1      -3.513  -0.496  -1.871  0.00  0.00    -0.391 OA
ATOM     25  H   UNL     1      -3.126  -0.429  -2.754  0.00  0.00    +0.210 HD
ENDBRANCH  13  24
BRANCH   5  26
ATOM     26  O   UNL     1       4.524  -0.353   1.088  0.00  0.00    -0.392 OA
ATOM     27  H   UNL     1       5.119  -0.676   0.398  0.00  0.00    +0.210 HD
ENDBRANCH   5  26
TORSDOF 4
