REMARK  Name = ZINC54184881
REMARK  6 active torsions:
REMARK  status: ('A' for Active; 'I' for Inactive)
REMARK    1  A    between atoms: C_1  and  C_2
REMARK    2  A    between atoms: C_2  and  C_3
REMARK    3  A    between atoms: C_3  and  C_5
REMARK    4  A    between atoms: C_3  and  N_22
REMARK    5  A    between atoms: C_5  and  C_6
REMARK    6  A    between atoms: C_8  and  C_11
REMARK                            x       y       z     vdW  Elec       q    Type
REMARK                         _______ _______ _______ _____ _____    ______ ____
ROOT
ATOM      1  C   UNL     1       1.661  -2.496  -2.382  0.00  0.00    +0.171 A 
ATOM      2  N   UNL     1       1.169  -2.833  -3.576  0.00  0.00    -0.192 NA
ATOM      3  C   UNL     1       2.145  -3.201  -4.377  0.00  0.00    +0.264 A 
ATOM      4  O   UNL     1       3.300  -3.105  -3.695  0.00  0.00    -0.333 OA
ATOM      5  N   UNL     1       2.956  -2.637  -2.399  0.00  0.00    -0.061 NA
ENDROOT
BRANCH   3   6
ATOM      6  C   UNL     1       1.999  -3.644  -5.777  0.00  0.00    +0.115 A 
ATOM      7  C   UNL     1       0.733  -3.693  -6.369  0.00  0.00    +0.177 A 
ATOM      8  C   UNL     1       0.602  -4.108  -7.682  0.00  0.00    +0.197 A 
ATOM      9  C   UNL     1       1.724  -4.476  -8.411  0.00  0.00    +0.199 A 
ATOM     10  C   UNL     1       2.982  -4.429  -7.829  0.00  0.00    +0.197 A 
ATOM     11  C   UNL     1       3.127  -4.010  -6.519  0.00  0.00    +0.177 A 
ATOM     12  F   UNL     1       4.353  -3.959  -5.956  0.00  0.00    -0.201 F 
ATOM     13  F   UNL     1       4.069  -4.789  -8.546  0.00  0.00    -0.199 F 
ATOM     14  F   UNL     1       1.589  -4.881  -9.693  0.00  0.00    -0.199 F 
ATOM     15  F   UNL     1      -0.620  -4.157  -8.255  0.00  0.00    -0.199 F 
ATOM     16  F   UNL     1      -0.361  -3.336  -5.660  0.00  0.00    -0.201 F 
ENDBRANCH   3   6
BRANCH   1  17
ATOM     17  C   UNL     1       0.849  -2.021  -1.205  0.00  0.00    +0.063 C 
BRANCH  17  18
ATOM     18  C   UNL     1       0.718  -0.497  -1.257  0.00  0.00    -0.068 C 
BRANCH  18  19
ATOM     19  N   UNL     1      -0.057  -0.113  -2.444  0.00  0.00    +0.380 N 
ATOM     20  H   UNL     1      -0.143   0.892  -2.478  0.00  0.00    -0.090 HD
ATOM     21  H   UNL     1       0.415  -0.438  -3.274  0.00  0.00    -0.090 HD
ATOM     22  H   UNL     1      -0.975  -0.528  -2.395  0.00  0.00    -0.090 HD
ENDBRANCH  18  19
BRANCH  18  24
ATOM     23  C   UNL     1      -0.019   1.526   0.010  0.00  0.00    +0.002 C 
ATOM     24  C   UNL     1       0.002  -0.004   0.002  0.00  0.00    -0.019 C 
ENDBRANCH  18  24
ENDBRANCH  17  18
ENDBRANCH   1  17
TORSDOF 5
