REMARK  Name = ZINC36800454
REMARK  11 active torsions:
REMARK  status: ('A' for Active; 'I' for Inactive)
REMARK    1  A    between atoms: C_1  and  C_2
REMARK    2  A    between atoms: C_2  and  C_3
REMARK    3  A    between atoms: C_5  and  C_26
REMARK    4  A    between atoms: C_6  and  N_8
REMARK    5  A    between atoms: C_9  and  C_11
REMARK    6  A    between atoms: C_11  and  S_12
REMARK    7  A    between atoms: S_12  and  C_13
REMARK    8  A    between atoms: C_16  and  C_19
REMARK    9  A    between atoms: C_26  and  O_28
REMARK   10  A    between atoms: O_28  and  C_29
REMARK   11  A    between atoms: C_29  and  C_30
REMARK                            x       y       z     vdW  Elec       q    Type
REMARK                         _______ _______ _______ _____ _____    ______ ____
ROOT
ATOM      1  N   UNL     1       1.496  -1.737  -4.980  0.00  0.00    -0.279 N 
ATOM      2  C   UNL     1       0.397  -1.789  -5.759  0.00  0.00    +0.228 C 
ATOM      3  O   UNL     1      -0.683  -1.477  -5.305  0.00  0.00    -0.275 OA
ATOM      4  H   UNL     1       2.360  -1.987  -5.343  0.00  0.00    +0.155 HD
ENDROOT
BRANCH   1   8
ATOM      5  C   UNL     1       0.707  -0.490  -1.238  0.00  0.00    -0.008 A 
ATOM      6  C   UNL     1       2.016  -0.755  -1.404  0.00  0.00    +0.028 A 
ATOM      7  C   UNL     1       2.405  -1.212  -2.719  0.00  0.00    +0.088 A 
ATOM      8  C   UNL     1       1.391  -1.326  -3.660  0.00  0.00    +0.086 A 
ATOM      9  S   UNL     1       0.009  -0.859  -2.832  0.00  0.00    -0.078 S 
BRANCH   5  11
ATOM     10  C   UNL     1      -0.019   1.526   0.010  0.00  0.00    +0.009 C 
ATOM     11  C   UNL     1       0.002  -0.004   0.002  0.00  0.00    +0.039 C 
ENDBRANCH   5  11
BRANCH   7  12
ATOM     12  C   UNL     1       3.796  -1.536  -3.042  0.00  0.00    +0.342 C 
ATOM     13  O   UNL     1       4.088  -1.918  -4.159  0.00  0.00    -0.245 OA
BRANCH  12  14
ATOM     14  O   UNL     1       4.753  -1.412  -2.100  0.00  0.00    -0.461 OA
BRANCH  14  15
ATOM     15  C   UNL     1       6.089  -1.746  -2.484  0.00  0.00    +0.229 C 
ATOM     16  C   UNL     1       7.028  -1.545  -1.293  0.00  0.00    +0.048 C 
ENDBRANCH  14  15
ENDBRANCH  12  14
ENDBRANCH   7  12
ENDBRANCH   1   8
BRANCH   2  17
ATOM     17  C   UNL     1       0.511  -2.236  -7.194  0.00  0.00    +0.173 C 
BRANCH  17  18
ATOM     18  S   UNL     1      -1.128  -2.199  -7.970  0.00  0.00    -0.077 S 
BRANCH  18  19
ATOM     19  C   UNL     1      -0.830  -2.740  -9.620  0.00  0.00    +0.185 A 
ATOM     20  N   UNL     1       0.337  -3.082 -10.123  0.00  0.00    -0.201 NA
ATOM     21  H   UNL     1      -2.712  -2.708 -10.511  0.00  0.00    +0.191 HD
ATOM     22  C   UNL     1       0.187  -3.440 -11.406  0.00  0.00    +0.182 A 
ATOM     23  N   UNL     1      -1.080  -3.329 -11.734  0.00  0.00    -0.152 NA
ATOM     24  N   UNL     1      -1.761  -2.883 -10.590  0.00  0.00    -0.253 N 
BRANCH  22  25
ATOM     25  C   UNL     1       1.276  -3.888 -12.309  0.00  0.00    +0.021 A 
ATOM     26  C   UNL     1       2.585  -3.969 -11.839  0.00  0.00    +0.013 A 
ATOM     27  C   UNL     1       3.594  -4.386 -12.683  0.00  0.00    +0.021 A 
ATOM     28  C   UNL     1       3.308  -4.723 -13.995  0.00  0.00    +0.041 A 
ATOM     29  C   UNL     1       2.008  -4.645 -14.467  0.00  0.00    +0.021 A 
ATOM     30  C   UNL     1       0.991  -4.235 -13.629  0.00  0.00    +0.013 A 
ATOM     31 CL   UNL     1       4.581  -5.247 -15.052  0.00  0.00    -0.084 Cl
ENDBRANCH  22  25
ENDBRANCH  18  19
ENDBRANCH  17  18
ENDBRANCH   2  17
TORSDOF 9
