REMARK  Name = ZINC27349450
REMARK  9 active torsions:
REMARK  status: ('A' for Active; 'I' for Inactive)
REMARK    1  A    between atoms: C_1  and  C_2
REMARK    2  A    between atoms: C_5  and  C_8
REMARK    3  A    between atoms: C_8  and  N_9
REMARK    4  A    between atoms: N_12  and  N_13
REMARK    5  A    between atoms: C_17  and  S_20
REMARK    6  A    between atoms: S_20  and  N_23
REMARK    7  A    between atoms: N_23  and  C_24
REMARK    8  A    between atoms: C_24  and  C_25
REMARK    9  A    between atoms: C_24  and  C_26
REMARK                            x       y       z     vdW  Elec       q    Type
REMARK                         _______ _______ _______ _____ _____    ______ ____
ROOT
ATOM      1  N   UNL     1      -2.069   2.494  -3.357  0.00  0.00    -0.247 N 
ATOM      2  C   UNL     1      -2.741   2.954  -4.483  0.00  0.00    +0.135 A 
ATOM      3  C   UNL     1      -3.884   3.733  -4.333  0.00  0.00    +0.047 A 
ATOM      4  C   UNL     1      -4.540   4.189  -5.462  0.00  0.00    +0.033 A 
ATOM      5  C   UNL     1      -4.035   3.841  -6.708  0.00  0.00    +0.123 A 
ATOM      6  C   UNL     1      -2.899   3.060  -6.783  0.00  0.00    +0.141 A 
ATOM      7  N   UNL     1      -2.291   2.644  -5.689  0.00  0.00    -0.237 NA
ATOM      8  H   UNL     1      -2.438   2.749  -2.353  0.00  0.00    +0.172 HD
ENDROOT
BRANCH   1  12
ATOM      9  N   UNL     1      -0.721   1.571  -1.179  0.00  0.00    -0.294 N 
ATOM     10  C   UNL     1      -0.268   1.258  -2.409  0.00  0.00    +0.316 C 
ATOM     11  O   UNL     1       0.729   0.574  -2.534  0.00  0.00    -0.251 OA
ATOM     12  N   UNL     1      -0.920   1.705  -3.501  0.00  0.00    -0.219 N 
ATOM     13  H   UNL     1      -1.623   2.191  -1.066  0.00  0.00    +0.151 HD
ATOM     14  H   UNL     1      -0.550   1.450  -4.505  0.00  0.00    +0.174 HD
BRANCH   9  15
ATOM     15  C   UNL     1      -0.013   1.086   0.008  0.00  0.00    +0.141 C 
BRANCH  15  20
ATOM     16  C   UNL     1      -2.717   2.949   4.763  0.00  0.00    +0.044 C 
ATOM     17  C   UNL     1      -2.012   2.463   3.523  0.00  0.00    -0.050 A 
ATOM     18  C   UNL     1      -2.366   1.254   2.955  0.00  0.00    +0.003 A 
ATOM     19  C   UNL     1      -1.719   0.808   1.818  0.00  0.00    +0.005 A 
ATOM     20  C   UNL     1      -0.718   1.572   1.248  0.00  0.00    -0.030 A 
ATOM     21  C   UNL     1      -0.360   2.779   1.819  0.00  0.00    +0.005 A 
ATOM     22  C   UNL     1      -1.010   3.227   2.953  0.00  0.00    +0.003 A 
ENDBRANCH  15  20
ENDBRANCH   9  15
ENDBRANCH   1  12
BRANCH   5  23
ATOM     23  S   UNL     1      -4.836   4.390  -8.178  0.00  0.00    +0.060 S 
ATOM     24  O   UNL     1      -5.565   5.559  -7.831  0.00  0.00    -0.153 OA
ATOM     25  O   UNL     1      -3.853   4.382  -9.204  0.00  0.00    -0.153 OA
BRANCH  23  26
ATOM     26  N   UNL     1      -5.955   3.238  -8.586  0.00  0.00    -0.187 NA
ATOM     27  H   UNL     1      -5.747   2.562  -9.428  0.00  0.00    +0.148 HD
BRANCH  26  28
ATOM     28  C   UNL     1      -7.097   2.982  -7.705  0.00  0.00    +0.070 C 
ATOM     29  C   UNL     1      -8.301   3.797  -8.181  0.00  0.00    +0.025 C 
ATOM     30  C   UNL     1      -7.444   1.492  -7.739  0.00  0.00    +0.025 C 
ENDBRANCH  26  28
ENDBRANCH  23  26
ENDBRANCH   5  23
TORSDOF 6
