REMARK  Name = ZINC67321616
REMARK  4 active torsions:
REMARK  status: ('A' for Active; 'I' for Inactive)
REMARK    1  A    between atoms: C_1  and  N_2
REMARK    2  A    between atoms: C_3  and  C_18
REMARK    3  A    between atoms: C_8  and  C_9
REMARK    4  A    between atoms: N_16  and  C_17
REMARK                            x       y       z     vdW  Elec       q    Type
REMARK                         _______ _______ _______ _____ _____    ______ ____
ROOT
ATOM      1  C   UNL     1       0.054   1.339  -0.330  0.00  0.00    +0.129 C 
ATOM      2  N   UNL     1      -0.060  -0.086   0.007  0.00  0.00    -0.215 NA
ATOM      3  C   UNL     1       0.341  -0.931  -1.130  0.00  0.00    +0.178 C 
ATOM      4  C   UNL     1       1.472  -1.789  -0.602  0.00  0.00    +0.201 C 
ATOM      5  O   UNL     1       2.099  -2.632  -1.209  0.00  0.00    -0.289 OA
ATOM      6  C   UNL     1       1.645  -1.400   0.753  0.00  0.00    +0.089 C 
ATOM      7  C   UNL     1       2.562  -1.921   1.606  0.00  0.00    +0.036 C 
ATOM      8  N   UNL     1       0.729  -0.401   1.071  0.00  0.00    -0.263 N 
ATOM      9  C   UNL     1       0.627   0.234   2.388  0.00  0.00    +0.150 C 
ENDROOT
BRANCH   7  10
ATOM     10  C   UNL     1       3.596  -2.837   1.104  0.00  0.00    -0.023 A 
ATOM     11  C   UNL     1       4.239  -2.574  -0.111  0.00  0.00    +0.009 A 
ATOM     12  C   UNL     1       5.207  -3.438  -0.575  0.00  0.00    +0.020 A 
ATOM     13  C   UNL     1       5.544  -4.564   0.157  0.00  0.00    +0.041 A 
ATOM     14  C   UNL     1       4.912  -4.832   1.360  0.00  0.00    +0.020 A 
ATOM     15  C   UNL     1       3.946  -3.975   1.841  0.00  0.00    +0.009 A 
ATOM     16 CL   UNL     1       6.765  -5.647  -0.437  0.00  0.00    -0.084 Cl
ENDBRANCH   7  10
BRANCH   3  17
ATOM     17  C   UNL     1      -0.812  -1.796  -1.573  0.00  0.00    -0.021 A 
ATOM     18  C   UNL     1      -1.645  -2.371  -0.632  0.00  0.00    +0.005 A 
ATOM     19  C   UNL     1      -2.702  -3.164  -1.038  0.00  0.00    +0.000 A 
ATOM     20  C   UNL     1      -2.927  -3.381  -2.384  0.00  0.00    +0.000 A 
ATOM     21  C   UNL     1      -2.094  -2.804  -3.325  0.00  0.00    +0.000 A 
ATOM     22  C   UNL     1      -1.039  -2.008  -2.919  0.00  0.00    +0.005 A 
ENDBRANCH   3  17
TORSDOF 2
