REMARK  Name = ZINC13680914
REMARK  5 active torsions:
REMARK  status: ('A' for Active; 'I' for Inactive)
REMARK    1  A    between atoms: C_1  and  C_2
REMARK    2  A    between atoms: C_5  and  C_33
REMARK    3  A    between atoms: N_8  and  C_10
REMARK    4  A    between atoms: C_10  and  C_11
REMARK    5  A    between atoms: C_19  and  C_20
REMARK                            x       y       z     vdW  Elec       q    Type
REMARK                         _______ _______ _______ _____ _____    ______ ____
ROOT
ATOM      1  C   UNL     1       4.393  -4.259  -0.063  0.00  0.00    +0.026 A 
ATOM      2  C   UNL     1       5.516  -5.071  -0.079  0.00  0.00    +0.184 A 
ATOM      3  C   UNL     1       6.792  -4.513  -0.088  0.00  0.00    +0.052 A 
ATOM      4  C   UNL     1       6.950  -3.156  -0.082  0.00  0.00    +0.019 A 
ATOM      5  C   UNL     1       5.829  -2.327  -0.067  0.00  0.00    +0.068 A 
ATOM      6  C   UNL     1       4.537  -2.879  -0.057  0.00  0.00    +0.144 A 
ATOM      7  O   UNL     1       3.635  -1.874  -0.038  0.00  0.00    -0.451 OA
ATOM      8  C   UNL     1       4.242  -0.663  -0.043  0.00  0.00    +0.176 C 
ATOM      9  C   UNL     1       3.610   0.544  -0.029  0.00  0.00    +0.060 C 
ATOM     10  C   UNL     1       5.648  -0.864  -0.057  0.00  0.00    +0.231 C 
ATOM     11  O   UNL     1       6.518  -0.010  -0.061  0.00  0.00    -0.283 OA
ATOM     12  O   UNL     1       5.372  -6.420  -0.085  0.00  0.00    -0.288 OA
ENDROOT
BRANCH   9  13
ATOM     13  C   UNL     1       2.150   0.605  -0.015  0.00  0.00    +0.004 A 
ATOM     14  C   UNL     1       1.278  -0.463  -0.013  0.00  0.00    +0.091 A 
ATOM     15  N   UNL     1       0.002  -0.004   0.002  0.00  0.00    -0.360 N 
ATOM     16  H   UNL     1      -0.838  -0.715   0.006  0.00  0.00    +0.165 HD
ATOM     17  C   UNL     1      -0.017   1.376   0.010  0.00  0.00    +0.047 A 
ATOM     18  C   UNL     1       1.315   1.821  -0.001  0.00  0.00    +0.007 A 
ATOM     19  C   UNL     1       1.596   3.184   0.005  0.00  0.00    +0.010 A 
ATOM     20  C   UNL     1       0.561   4.095   0.020  0.00  0.00    +0.001 A 
ATOM     21  C   UNL     1      -0.755   3.657   0.030  0.00  0.00    +0.002 A 
ATOM     22  C   UNL     1      -1.047   2.310   0.030  0.00  0.00    +0.026 A 
ENDBRANCH   9  13
BRANCH   1  23
ATOM     23  C   UNL     1       3.018  -4.875  -0.054  0.00  0.00    -0.035 C 
BRANCH  23  29
ATOM     24  C   UNL     1      -0.460  -6.795  -2.954  0.00  0.00    +0.005 C 
ATOM     25  C   UNL     1       0.804  -5.934  -2.910  0.00  0.00    -0.031 C 
ATOM     26  C   UNL     1       1.873  -6.548  -3.818  0.00  0.00    +0.003 C 
ATOM     27  C   UNL     1       3.154  -5.715  -3.722  0.00  0.00    -0.031 C 
ATOM     28  C   UNL     1       3.614  -5.663  -2.264  0.00  0.00    -0.075 C 
ATOM     29  N   UNL     1       2.558  -5.067  -1.436  0.00  0.00    +0.383 N 
ATOM     30  C   UNL     1       1.333  -5.876  -1.475  0.00  0.00    -0.075 C 
ATOM     31  C   UNL     1       4.246  -6.356  -4.581  0.00  0.00    +0.005 C 
ATOM     32  H   UNL     1       2.321  -4.079  -1.856  0.00  0.00    -0.081 HD
ENDBRANCH  23  29
ENDBRANCH   1  23
TORSDOF 3
