REMARK  Name = ZINC40304524
REMARK  5 active torsions:
REMARK  status: ('A' for Active; 'I' for Inactive)
REMARK    1  A    between atoms: C_1  and  C_2
REMARK    2  A    between atoms: C_2  and  C_3
REMARK    3  A    between atoms: C_7  and  C_22
REMARK    4  A    between atoms: C_11  and  C_13
REMARK    5  A    between atoms: C_15  and  N_21
REMARK                            x       y       z     vdW  Elec       q    Type
REMARK                         _______ _______ _______ _____ _____    ______ ____
ROOT
ATOM      1  C   UNL     1      -1.612  -0.726   0.027  0.00  0.00    +0.102 C 
ATOM      2  C   UNL     1      -1.889  -2.209   0.297  0.00  0.00    +0.182 C 
ATOM      3  O   UNL     1      -1.573  -2.968  -0.873  0.00  0.00    -0.373 OA
ATOM      4  C   UNL     1      -2.369  -2.640  -2.015  0.00  0.00    +0.133 C 
ATOM      5  C   UNL     1      -2.116  -1.179  -2.403  0.00  0.00    +0.139 C 
ATOM      6  N   UNL     1      -2.311  -0.340  -1.209  0.00  0.00    -0.290 N 
ATOM      7  C   UNL     1      -3.105   0.748  -1.246  0.00  0.00    +0.247 C 
ATOM      8  O   UNL     1      -3.338   1.366  -0.226  0.00  0.00    -0.270 OA
ATOM      9  C   UNL     1      -1.988  -3.554  -3.181  0.00  0.00    +0.039 C 
ENDROOT
BRANCH   7  10
ATOM     10  C   UNL     1      -3.694   1.190  -2.528  0.00  0.00    +0.040 A 
ATOM     11  C   UNL     1      -4.997   1.690  -2.564  0.00  0.00    +0.037 A 
ATOM     12  C   UNL     1      -5.543   2.102  -3.769  0.00  0.00    +0.045 A 
ATOM     13  C   UNL     1      -4.793   2.016  -4.938  0.00  0.00    +0.080 A 
ATOM     14  C   UNL     1      -3.502   1.520  -4.902  0.00  0.00    +0.062 A 
ATOM     15  C   UNL     1      -2.947   1.113  -3.705  0.00  0.00    +0.034 A 
ATOM     16 CL   UNL     1      -2.574   1.416  -6.366  0.00  0.00    -0.082 Cl
ATOM     17 CL   UNL     1      -5.481   2.533  -6.447  0.00  0.00    -0.080 Cl
BRANCH  12  18
ATOM     18  N   UNL     1      -6.847   2.603  -3.810  0.00  0.00    -0.357 N 
ATOM     19  H   UNL     1      -7.370   2.663  -2.995  0.00  0.00    +0.142 HD
ATOM     20  H   UNL     1      -7.229   2.892  -4.653  0.00  0.00    +0.142 HD
ENDBRANCH  12  18
ENDBRANCH   7  10
BRANCH   1  22
ATOM     21  C   UNL     1       0.174   0.991  -0.299  0.00  0.00    +0.006 C 
ATOM     22  C   UNL     1      -0.107  -0.505  -0.141  0.00  0.00    +0.021 C 
ENDBRANCH   1  22
TORSDOF 3
