REMARK  Name = ZINC13644587
REMARK  9 active torsions:
REMARK  status: ('A' for Active; 'I' for Inactive)
REMARK    1  A    between atoms: C_1  and  N_2
REMARK    2  A    between atoms: N_2  and  C_3
REMARK    3  A    between atoms: N_2  and  C_4
REMARK    4  A    between atoms: C_7  and  C_10
REMARK    5  A    between atoms: C_21  and  O_26
REMARK    6  A    between atoms: O_26  and  C_27
REMARK    7  A    between atoms: C_27  and  C_28
REMARK    8  A    between atoms: C_28  and  O_29
REMARK    9  A    between atoms: O_29  and  C_30
REMARK                            x       y       z     vdW  Elec       q    Type
REMARK                         _______ _______ _______ _____ _____    ______ ____
ROOT
ATOM      1  C   UNL     1      -0.092  11.932   3.149  0.00  0.00    +0.105 C 
ATOM      2  C   UNL     1       0.387  11.039   4.279  0.00  0.00    +0.029 C 
ATOM      3  C   UNL     1      -0.247  11.261   5.660  0.00  0.00    +0.033 C 
ATOM      4  C   UNL     1      -0.165   9.839   6.253  0.00  0.00    -0.030 C 
ATOM      5  C   UNL     1      -0.114   8.933   5.283  0.00  0.00    -0.023 C 
ATOM      6  C   UNL     1      -0.209   9.632   3.976  0.00  0.00    +0.049 C 
ATOM      7  C   UNL     1       0.451   9.111   2.760  0.00  0.00    -0.016 A 
ATOM      8  C   UNL     1       0.718   7.771   2.580  0.00  0.00    +0.051 A 
ATOM      9  C   UNL     1       1.323   7.329   1.413  0.00  0.00    +0.121 A 
ATOM     10  C   UNL     1       1.652   8.239   0.419  0.00  0.00    +0.047 A 
ATOM     11  C   UNL     1       1.389   9.581   0.594  0.00  0.00    +0.027 A 
ATOM     12  C   UNL     1       0.790  10.033   1.764  0.00  0.00    +0.032 A 
ATOM     13  N   UNL     1       0.551  11.406   1.925  0.00  0.00    -0.336 N 
ATOM     14  H   UNL     1       0.813  12.021   1.222  0.00  0.00    +0.147 HD
ENDROOT
BRANCH   1  18
ATOM     15  C   UNL     1       1.129  15.970   3.838  0.00  0.00    +0.029 A 
ATOM     16  C   UNL     1      -0.189  15.594   4.061  0.00  0.00    +0.023 A 
ATOM     17  C   UNL     1      -0.581  14.288   3.837  0.00  0.00    +0.007 A 
ATOM     18  C   UNL     1       0.339  13.356   3.392  0.00  0.00    -0.027 A 
ATOM     19  C   UNL     1       1.653  13.726   3.175  0.00  0.00    +0.007 A 
ATOM     20  C   UNL     1       2.050  15.031   3.391  0.00  0.00    +0.023 A 
BRANCH  15  22
ATOM     21  C   UNL     1       0.556  18.278   4.536  0.00  0.00    +0.129 C 
ATOM     22  N   UNL     1       1.529  17.289   4.064  0.00  0.00    -0.336 N 
ATOM     23  C   UNL     1       2.920  17.684   3.829  0.00  0.00    +0.129 C 
ENDBRANCH  15  22
ENDBRANCH   1  18
BRANCH   9  24
ATOM     24  O   UNL     1       1.588   6.006   1.242  0.00  0.00    -0.489 OA
BRANCH  24  25
ATOM     25  C   UNL     1       2.208   5.623   0.012  0.00  0.00    +0.270 C 
BRANCH  25  26
ATOM     26  C   UNL     1       2.426   4.108   0.001  0.00  0.00    +0.270 C 
BRANCH  26  27
ATOM     27  O   UNL     1       1.160   3.445   0.010  0.00  0.00    -0.489 OA
BRANCH  27  28
ATOM     28  C   UNL     1       1.176   2.086   0.002  0.00  0.00    +0.121 A 
ATOM     29  C   UNL     1      -0.017   1.377   0.010  0.00  0.00    +0.045 A 
ATOM     30  C   UNL     1       0.002  -0.004   0.002  0.00  0.00    +0.004 A 
ATOM     31  C   UNL     1       1.208  -0.680  -0.013  0.00  0.00    +0.000 A 
ATOM     32  C   UNL     1       2.398   0.024  -0.021  0.00  0.00    +0.004 A 
ATOM     33  C   UNL     1       2.385   1.405  -0.013  0.00  0.00    +0.045 A 
ENDBRANCH  27  28
ENDBRANCH  26  27
ENDBRANCH  25  26
ENDBRANCH  24  25
ENDBRANCH   9  24
TORSDOF 7
