REMARK  Name = ZINC36061390
REMARK  18 active torsions:
REMARK  status: ('A' for Active; 'I' for Inactive)
REMARK    1  A    between atoms: C_1  and  C_2
REMARK    2  A    between atoms: C_2  and  C_3
REMARK    3  A    between atoms: C_3  and  C_5
REMARK    4  A    between atoms: C_3  and  N_6
REMARK    5  A    between atoms: N_6  and  C_7
REMARK    6  A    between atoms: C_9  and  C_10
REMARK    7  A    between atoms: C_15  and  C_37
REMARK    8  A    between atoms: C_16  and  C_30
REMARK    9  A    between atoms: C_17  and  C_20
REMARK   10  A    between atoms: C_23  and  O_28
REMARK   11  A    between atoms: C_24  and  O_26
REMARK   12  A    between atoms: O_26  and  C_27
REMARK   13  A    between atoms: O_28  and  C_29
REMARK   14  A    between atoms: C_30  and  O_32
REMARK   15  A    between atoms: O_32  and  C_33
REMARK   16  A    between atoms: C_33  and  C_34
REMARK   17  A    between atoms: C_33  and  C_35
REMARK   18  A    between atoms: C_33  and  C_36
REMARK                            x       y       z     vdW  Elec       q    Type
REMARK                         _______ _______ _______ _____ _____    ______ ____
ROOT
ATOM      1  C   UNL     1       0.745   0.602  -5.029  0.00  0.00    +0.048 C 
ATOM      2  C   UNL     1       0.118   1.530  -5.785  0.00  0.00    +0.072 C 
ATOM      3  S   UNL     1       1.192   1.637  -7.202  0.00  0.00    -0.060 S 
ATOM      4  C   UNL     1       2.345   0.510  -6.737  0.00  0.00    +0.166 C 
ATOM      5  N   UNL     1       3.441   0.087  -7.332  0.00  0.00    -0.230 NA
ATOM      6  C   UNL     1       4.267  -0.820  -6.837  0.00  0.00    +0.053 C 
ATOM      7  C   UNL     1       4.013  -1.403  -5.610  0.00  0.00    +0.083 C 
ATOM      8  C   UNL     1       2.770  -0.967  -4.867  0.00  0.00    +0.150 C 
ATOM      9  N   UNL     1       1.919   0.064  -5.518  0.00  0.00    -0.267 N 
ATOM     10  C   UNL     1       5.492  -1.222  -7.617  0.00  0.00    +0.066 C 
ENDROOT
BRANCH   8  11
ATOM     11  C   UNL     1       3.196  -0.430  -3.525  0.00  0.00    -0.018 A 
ATOM     12  C   UNL     1       3.125  -1.237  -2.405  0.00  0.00    +0.009 A 
ATOM     13  C   UNL     1       3.515  -0.749  -1.172  0.00  0.00    +0.050 A 
ATOM     14  C   UNL     1       3.979   0.552  -1.057  0.00  0.00    +0.162 A 
ATOM     15  C   UNL     1       4.051   1.364  -2.184  0.00  0.00    +0.162 A 
ATOM     16  C   UNL     1       3.663   0.867  -3.418  0.00  0.00    +0.055 A 
BRANCH  15  17
ATOM     17  O   UNL     1       4.506   2.641  -2.077  0.00  0.00    -0.491 OA
ATOM     18  C   UNL     1       4.452   3.450  -3.253  0.00  0.00    +0.277 C 
ENDBRANCH  15  17
BRANCH  14  19
ATOM     19  O   UNL     1       4.363   1.034   0.156  0.00  0.00    -0.491 OA
ATOM     20  C   UNL     1       4.262   0.144   1.269  0.00  0.00    +0.277 C 
ENDBRANCH  14  19
ENDBRANCH   8  11
BRANCH   1  23
ATOM     21  C   UNL     1      -1.019   0.608  -3.343  0.00  0.00    +0.239 C 
ATOM     22  O   UNL     1      -1.804   1.295  -4.208  0.00  0.00    -0.271 OA
ATOM     23  C   UNL     1       0.199   0.185  -3.729  0.00  0.00    +0.091 C 
BRANCH  21  24
ATOM     24  N   UNL     1      -1.471   0.342  -2.061  0.00  0.00    -0.309 N 
ATOM     25  H   UNL     1      -0.882  -0.085  -1.419  0.00  0.00    +0.149 HD
BRANCH  24  26
ATOM     26  C   UNL     1      -2.837   0.704  -1.675  0.00  0.00    +0.070 C 
ATOM     27  C   UNL     1      -2.850   2.132  -1.127  0.00  0.00    +0.028 C 
BRANCH  26  29
ATOM     28  C   UNL     1      -3.400  -1.677  -1.172  0.00  0.00    +0.005 C 
ATOM     29  C   UNL     1      -3.335  -0.261  -0.598  0.00  0.00    +0.018 C 
ENDBRANCH  26  29
ENDBRANCH  24  26
ENDBRANCH  21  24
ENDBRANCH   1  23
BRANCH   7  30
ATOM     30  C   UNL     1       4.876  -2.365  -5.074  0.00  0.00    +0.340 C 
ATOM     31  O   UNL     1       5.929  -2.618  -5.633  0.00  0.00    -0.245 OA
BRANCH  30  32
ATOM     32  O   UNL     1       4.543  -3.014  -3.936  0.00  0.00    -0.456 OA
BRANCH  32  33
ATOM     33  C   UNL     1       5.416  -4.059  -3.505  0.00  0.00    +0.106 C 
ATOM     34  C   UNL     1       6.797  -3.477  -3.198  0.00  0.00    +0.055 C 
ATOM     35  C   UNL     1       4.846  -4.713  -2.244  0.00  0.00    +0.055 C 
ATOM     36  C   UNL     1       5.540  -5.109  -4.612  0.00  0.00    +0.055 C 
ENDBRANCH  32  33
ENDBRANCH  30  32
ENDBRANCH   7  30
TORSDOF 10
