REMARK  Name = ZINC05932478
REMARK  5 active torsions:
REMARK  status: ('A' for Active; 'I' for Inactive)
REMARK    1  A    between atoms: C_8  and  C_13
REMARK    2  A    between atoms: C_13  and  C_14
REMARK    3  A    between atoms: C_14  and  C_19
REMARK    4  A    between atoms: C_19  and  C_20
REMARK    5  A    between atoms: N_22  and  C_23
REMARK                            x       y       z     vdW  Elec       q    Type
REMARK                         _______ _______ _______ _____ _____    ______ ____
ROOT
ATOM      1  C   UNL     1       3.378  -4.812   0.885  0.00  0.00    -0.014 C 
ATOM      2  C   UNL     1       4.133  -4.434   2.176  0.00  0.00    +0.008 C 
ATOM      3  C   UNL     1       3.560  -5.397   3.246  0.00  0.00    +0.001 C 
ATOM      4  C   UNL     1       3.381  -6.717   2.457  0.00  0.00    +0.001 C 
ATOM      5  C   UNL     1       2.900  -6.263   1.064  0.00  0.00    +0.008 C 
ENDROOT
BRANCH   1   6
ATOM      6  C   UNL     1       2.177  -3.884   0.691  0.00  0.00    +0.080 C 
BRANCH   6  14
ATOM      7  C   UNL     1       0.956   2.041   0.747  0.00  0.00    +0.002 A 
ATOM      8  C   UNL     1       2.225   2.561   0.930  0.00  0.00    +0.002 A 
ATOM      9  C   UNL     1       3.328   1.725   0.898  0.00  0.00    +0.031 A 
ATOM     10  C   UNL     1       3.156   0.376   0.683  0.00  0.00    +0.134 A 
ATOM     11  C   UNL     1       1.885  -0.156   0.495  0.00  0.00    +0.059 A 
ATOM     12  C   UNL     1       0.781   0.689   0.530  0.00  0.00    +0.025 A 
ATOM     13  N   UNL     1       1.726  -1.520   0.270  0.00  0.00    -0.300 N 
ATOM     14  C   UNL     1       2.656  -2.461   0.565  0.00  0.00    +0.122 C 
ATOM     15  N   UNL     1       3.908  -2.248   0.748  0.00  0.00    -0.118 NA
ATOM     16  S   UNL     1       4.539  -0.719   0.639  0.00  0.00    +0.102 S 
ATOM     17  O   UNL     1       5.115  -0.602  -0.654  0.00  0.00    -0.146 OA
ATOM     18  O   UNL     1       5.279  -0.493   1.831  0.00  0.00    -0.146 OA
ATOM     19  H   UNL     1       0.892  -1.818  -0.125  0.00  0.00    +0.153 HD
ENDBRANCH   6  14
ENDBRANCH   1   6
BRANCH   1  20
ATOM     20  C   UNL     1       4.316  -4.713  -0.320  0.00  0.00    +0.103 C 
BRANCH  20  21
ATOM     21  C   UNL     1       3.596  -5.184  -1.557  0.00  0.00    +0.214 C 
ATOM     22  O   UNL     1       2.485  -5.664  -1.466  0.00  0.00    -0.276 OA
ATOM     23  N   UNL     1       4.185  -5.073  -2.763  0.00  0.00    -0.312 N 
ATOM     24  H   UNL     1       5.100  -4.756  -2.829  0.00  0.00    +0.149 HD
BRANCH  23  25
ATOM     25  C   UNL     1       3.445  -5.429  -3.976  0.00  0.00    +0.073 C 
ATOM     26  C   UNL     1       3.519  -6.942  -4.193  0.00  0.00    +0.022 C 
ATOM     27  C   UNL     1       2.447  -7.367  -5.198  0.00  0.00    +0.002 C 
ATOM     28  C   UNL     1       1.130  -6.661  -4.869  0.00  0.00    +0.000 C 
ATOM     29  C   UNL     1       0.787  -5.673  -5.985  0.00  0.00    +0.000 C 
ATOM     30  C   UNL     1       1.671  -4.431  -5.855  0.00  0.00    +0.000 C 
ATOM     31  C   UNL     1       3.081  -4.754  -6.354  0.00  0.00    +0.002 C 
ATOM     32  C   UNL     1       4.061  -4.712  -5.179  0.00  0.00    +0.022 C 
ENDBRANCH  23  25
ENDBRANCH  20  21
ENDBRANCH   1  20
TORSDOF 5
