REMARK  Name = ZINC35124196
REMARK  9 active torsions:
REMARK  status: ('A' for Active; 'I' for Inactive)
REMARK    1  A    between atoms: C_1  and  C_2
REMARK    2  A    between atoms: C_2  and  C_3
REMARK    3  A    between atoms: C_8  and  N_9
REMARK    4  A    between atoms: C_13  and  C_25
REMARK    5  A    between atoms: C_17  and  C_19
REMARK    6  A    between atoms: C_25  and  O_27
REMARK    7  A    between atoms: O_27  and  C_28
REMARK    8  A    between atoms: C_28  and  C_29
REMARK    9  A    between atoms: C_28  and  C_30
REMARK                            x       y       z     vdW  Elec       q    Type
REMARK                         _______ _______ _______ _____ _____    ______ ____
ROOT
ATOM      1  N   UNL     1       3.834   0.435  -0.968  0.00  0.00    -0.269 N 
ATOM      2  C   UNL     1       3.644   0.383   0.365  0.00  0.00    +0.308 C 
ATOM      3  O   UNL     1       2.532   0.552   0.827  0.00  0.00    -0.252 OA
ATOM      4  N   UNL     1       4.686   0.145   1.186  0.00  0.00    -0.259 N 
ATOM      5  C   UNL     1       4.510  -0.051   2.622  0.00  0.00    +0.197 C 
ATOM      6  C   UNL     1       5.585  -1.028   3.183  0.00  0.00    +0.105 C 
ATOM      7  S   UNL     1       7.025  -0.453   2.176  0.00  0.00    -0.136 S 
ATOM      8  C   UNL     1       6.071   0.062   0.686  0.00  0.00    +0.139 C 
ATOM      9  H   UNL     1       4.692   0.184  -1.345  0.00  0.00    +0.156 HD
ENDROOT
BRANCH   1  15
ATOM     10  C   UNL     1       2.863   0.606  -3.173  0.00  0.00    -0.026 A 
ATOM     11  C   UNL     1       1.833   1.011  -3.999  0.00  0.00    +0.005 A 
ATOM     12  C   UNL     1       0.736   1.664  -3.468  0.00  0.00    +0.000 A 
ATOM     13  C   UNL     1       0.667   1.914  -2.109  0.00  0.00    +0.002 A 
ATOM     14  C   UNL     1       1.694   1.511  -1.278  0.00  0.00    +0.023 A 
ATOM     15  C   UNL     1       2.794   0.849  -1.808  0.00  0.00    +0.038 A 
BRANCH  10  17
ATOM     16  C   UNL     1       3.910  -1.613  -3.534  0.00  0.00    +0.009 C 
ATOM     17  C   UNL     1       4.059  -0.106  -3.753  0.00  0.00    +0.033 C 
ENDBRANCH  10  17
ENDBRANCH   1  15
BRANCH   8  18
ATOM     18  C   UNL     1       6.549   1.427   0.186  0.00  0.00    +0.020 C 
ATOM     19  C   UNL     1       5.658   1.887  -0.970  0.00  0.00    +0.006 C 
ATOM     20  C   UNL     1       6.136   3.252  -1.469  0.00  0.00    +0.000 C 
ATOM     21  C   UNL     1       7.583   3.141  -1.953  0.00  0.00    +0.000 C 
ATOM     22  C   UNL     1       8.473   2.681  -0.797  0.00  0.00    +0.000 C 
ATOM     23  C   UNL     1       7.996   1.315  -0.298  0.00  0.00    +0.006 C 
ENDBRANCH   8  18
BRANCH   5  24
ATOM     24  C   UNL     1       3.139  -0.623   2.880  0.00  0.00    +0.329 C 
ATOM     25  O   UNL     1       2.615  -1.332   2.053  0.00  0.00    -0.249 OA
BRANCH  24  26
ATOM     26  O   UNL     1       2.501  -0.346   4.028  0.00  0.00    -0.461 OA
BRANCH  26  27
ATOM     27  C   UNL     1       1.256  -1.009   4.255  0.00  0.00    +0.170 C 
ATOM     28  C   UNL     1       1.496  -2.278   5.075  0.00  0.00    +0.052 C 
ATOM     29  C   UNL     1       0.314  -0.078   5.020  0.00  0.00    +0.052 C 
ENDBRANCH  26  27
ENDBRANCH  24  26
ENDBRANCH   5  24
TORSDOF 6
