REMARK  Name = ZINC01283396
REMARK  9 active torsions:
REMARK  status: ('A' for Active; 'I' for Inactive)
REMARK    1  A    between atoms: C_1  and  C_2
REMARK    2  A    between atoms: C_2  and  O_3
REMARK    3  A    between atoms: O_3  and  C_4
REMARK    4  A    between atoms: C_9  and  C_10
REMARK    5  A    between atoms: C_15  and  C_19
REMARK    6  A    between atoms: C_15  and  C_20
REMARK    7  A    between atoms: C_25  and  S_27
REMARK    8  A    between atoms: S_27  and  C_28
REMARK    9  A    between atoms: C_28  and  C_29
REMARK                            x       y       z     vdW  Elec       q    Type
REMARK                         _______ _______ _______ _____ _____    ______ ____
ROOT
ATOM      1  C   UNL     1      -3.981  -1.497   0.032  0.00  0.00    +0.179 C 
ATOM      2  C   UNL     1      -4.819  -1.760  -1.201  0.00  0.00    +0.041 C 
ATOM      3  C   UNL     1      -5.987  -2.433  -1.144  0.00  0.00    +0.020 C 
ATOM      4  C   UNL     1      -6.793  -2.696  -2.394  0.00  0.00    +0.058 C 
ATOM      5  C   UNL     1      -6.585  -1.553  -3.390  0.00  0.00    -0.023 C 
ATOM      6  C   UNL     1      -5.089  -1.456  -3.707  0.00  0.00    +0.086 C 
ATOM      7  C   UNL     1      -4.328  -1.268  -2.424  0.00  0.00    +0.164 C 
ATOM      8  O   UNL     1      -3.267  -0.677  -2.444  0.00  0.00    -0.292 OA
ATOM      9  C   UNL     1      -7.367  -1.838  -4.673  0.00  0.00    +0.011 C 
ATOM     10  C   UNL     1      -7.067  -0.238  -2.773  0.00  0.00    +0.011 C 
ATOM     11  N   UNL     1      -6.496  -2.903   0.043  0.00  0.00    -0.287 N 
ATOM     12  C   UNL     1      -5.944  -2.428   1.222  0.00  0.00    +0.219 A 
ATOM     13  N   UNL     1      -4.766  -1.762   1.231  0.00  0.00    -0.220 N 
ATOM     14  N   UNL     1      -4.512  -1.425   2.560  0.00  0.00    -0.141 NA
ATOM     15  C   UNL     1      -5.516  -1.895   3.268  0.00  0.00    +0.211 A 
ATOM     16  N   UNL     1      -6.380  -2.501   2.450  0.00  0.00    -0.187 NA
ATOM     17  H   UNL     1      -7.219  -3.549   0.056  0.00  0.00    +0.155 HD
ENDROOT
BRANCH   1  23
ATOM     18  C   UNL     1      -1.498  -1.848   0.006  0.00  0.00    +0.126 A 
ATOM     19  C   UNL     1      -0.387  -2.679  -0.003  0.00  0.00    +0.046 A 
ATOM     20  C   UNL     1      -0.552  -4.051  -0.008  0.00  0.00    +0.004 A 
ATOM     21  C   UNL     1      -1.823  -4.596  -0.004  0.00  0.00    +0.001 A 
ATOM     22  C   UNL     1      -2.932  -3.769   0.004  0.00  0.00    +0.009 A 
ATOM     23  C   UNL     1      -2.772  -2.397   0.016  0.00  0.00    +0.023 A 
BRANCH  18  24
ATOM     24  O   UNL     1      -1.339  -0.499   0.012  0.00  0.00    -0.492 OA
BRANCH  24  26
ATOM     25  C   UNL     1      -0.019   1.526   0.010  0.00  0.00    +0.048 C 
ATOM     26  C   UNL     1       0.002  -0.004   0.002  0.00  0.00    +0.225 C 
ENDBRANCH  24  26
ENDBRANCH  18  24
ENDBRANCH   1  23
BRANCH  15  27
ATOM     27  S   UNL     1      -5.695  -1.746   5.015  0.00  0.00    -0.080 S 
BRANCH  27  28
ATOM     28  C   UNL     1      -7.263  -2.587   5.369  0.00  0.00    +0.114 C 
BRANCH  28  29
ATOM     29  C   UNL     1      -7.539  -2.532   6.849  0.00  0.00    -0.019 A 
ATOM     30  C   UNL     1      -7.074  -3.537   7.677  0.00  0.00    +0.006 A 
ATOM     31  C   UNL     1      -7.327  -3.487   9.034  0.00  0.00    +0.000 A 
ATOM     32  C   UNL     1      -8.046  -2.432   9.566  0.00  0.00    +0.001 A 
ATOM     33  C   UNL     1      -8.511  -1.427   8.739  0.00  0.00    +0.020 A 
ATOM     34  C   UNL     1      -8.253  -1.473   7.381  0.00  0.00    +0.045 A 
ATOM     35 CL   UNL     1      -8.832  -0.208   6.343  0.00  0.00    -0.083 Cl
ENDBRANCH  28  29
ENDBRANCH  27  28
ENDBRANCH  15  27
TORSDOF 6
