REMARK  Name = ZINC67193559
REMARK  8 active torsions:
REMARK  status: ('A' for Active; 'I' for Inactive)
REMARK    1  A    between atoms: C_1  and  C_2
REMARK    2  A    between atoms: C_2  and  C_4
REMARK    3  A    between atoms: C_2  and  N_19
REMARK    4  A    between atoms: C_4  and  C_5
REMARK    5  A    between atoms: N_7  and  C_8
REMARK    6  A    between atoms: C_12  and  S_14
REMARK    7  A    between atoms: S_14  and  N_17
REMARK    8  A    between atoms: C_20  and  C_22
REMARK                            x       y       z     vdW  Elec       q    Type
REMARK                         _______ _______ _______ _____ _____    ______ ____
ROOT
ATOM      1  C   UNL     1      -1.416  -2.034  -0.121  0.00  0.00    +0.219 C 
ATOM      2  O   UNL     1      -0.360  -2.622  -0.223  0.00  0.00    -0.275 OA
ATOM      3  N   UNL     1      -2.574  -2.724  -0.133  0.00  0.00    -0.285 N 
ATOM      4  H   UNL     1      -3.415  -2.262   0.015  0.00  0.00    +0.155 HD
ENDROOT
BRANCH   3   5
ATOM      5  C   UNL     1      -2.565  -4.104  -0.361  0.00  0.00    +0.038 A 
ATOM      6  C   UNL     1      -3.596  -4.698  -1.076  0.00  0.00    +0.061 A 
ATOM      7  C   UNL     1      -3.583  -6.063  -1.299  0.00  0.00    +0.127 A 
ATOM      8  C   UNL     1      -2.543  -6.836  -0.809  0.00  0.00    +0.067 A 
ATOM      9  C   UNL     1      -1.516  -6.245  -0.096  0.00  0.00    +0.109 A 
ATOM     10  C   UNL     1      -1.521  -4.881   0.124  0.00  0.00    +0.052 A 
ATOM     11  F   UNL     1      -4.586  -6.643  -1.994  0.00  0.00    -0.205 F 
BRANCH   9  12
ATOM     12  S   UNL     1      -0.196  -7.232   0.526  0.00  0.00    +0.056 S 
ATOM     13  O   UNL     1       0.359  -6.522   1.625  0.00  0.00    -0.153 OA
ATOM     14  O   UNL     1      -0.701  -8.555   0.650  0.00  0.00    -0.153 OA
BRANCH  12  15
ATOM     15  N   UNL     1       0.974  -7.280  -0.645  0.00  0.00    -0.204 NA
ATOM     16  H   UNL     1       0.841  -6.809  -1.483  0.00  0.00    +0.144 HD
ATOM     17  H   UNL     1       1.791  -7.779  -0.494  0.00  0.00    +0.144 HD
ENDBRANCH  12  15
ENDBRANCH   9  12
ENDBRANCH   3   5
BRANCH   1  18
ATOM     18  C   UNL     1      -1.433  -0.534   0.020  0.00  0.00    +0.118 C 
BRANCH  18  20
ATOM     19  C   UNL     1      -0.019   1.526   0.022  0.00  0.00    +0.028 C 
ATOM     20  C   UNL     1       0.002  -0.004   0.005  0.00  0.00    +0.079 C 
BRANCH  20  21
ATOM     21  N   UNL     1       0.717  -0.496   1.185  0.00  0.00    -0.312 N 
ATOM     22  C   UNL     1       2.059  -0.606   1.163  0.00  0.00    +0.216 C 
ATOM     23  O   UNL     1       2.677  -0.297   0.165  0.00  0.00    -0.276 OA
ATOM     24  H   UNL     1       0.223  -0.742   1.983  0.00  0.00    +0.149 HD
BRANCH  22  25
ATOM     25  C   UNL     1       2.795  -1.112   2.377  0.00  0.00    +0.075 C 
ATOM     26  C   UNL     1       2.519  -0.184   3.563  0.00  0.00    +0.013 C 
ATOM     27  C   UNL     1       3.266  -0.698   4.796  0.00  0.00    +0.001 C 
ATOM     28  C   UNL     1       4.768  -0.726   4.508  0.00  0.00    +0.000 C 
ATOM     29  C   UNL     1       5.043  -1.653   3.322  0.00  0.00    +0.001 C 
ATOM     30  C   UNL     1       4.297  -1.139   2.089  0.00  0.00    +0.013 C 
ENDBRANCH  22  25
ENDBRANCH  20  21
ENDBRANCH  18  20
ENDBRANCH   1  18
TORSDOF 7
