REMARK  Name = ZINC09088783
REMARK  13 active torsions:
REMARK  status: ('A' for Active; 'I' for Inactive)
REMARK    1  A    between atoms: C_1  and  C_2
REMARK    2  A    between atoms: C_2  and  N_59
REMARK    3  A    between atoms: C_3  and  C_4
REMARK    4  A    between atoms: C_3  and  N_59
REMARK    5  A    between atoms: C_5  and  C_6
REMARK    6  A    between atoms: C_5  and  N_59
REMARK    7  A    between atoms: C_6  and  N_7
REMARK    8  A    between atoms: C_8  and  C_23
REMARK    9  A    between atoms: C_11  and  C_12
REMARK   10  A    between atoms: C_11  and  O_18
REMARK   11  A    between atoms: C_26  and  O_31
REMARK   12  A    between atoms: C_27  and  O_29
REMARK   13  A    between atoms: O_29  and  C_30
REMARK                            x       y       z     vdW  Elec       q    Type
REMARK                         _______ _______ _______ _____ _____    ______ ____
ROOT
ATOM      1  N   UNL     1       0.504  -0.902  -1.154  0.00  0.00    -0.285 N 
ATOM      2  C   UNL     1      -0.145  -0.863  -2.467  0.00  0.00    +0.144 C 
ATOM      3  C   UNL     1       0.750  -1.627  -3.416  0.00  0.00    +0.071 C 
ATOM      4  C   UNL     1       0.537  -1.846  -4.761  0.00  0.00    +0.133 C 
ATOM      5  C   UNL     1       1.839  -2.074  -2.650  0.00  0.00    +0.249 C 
ATOM      6  O   UNL     1       2.777  -2.733  -3.059  0.00  0.00    -0.282 OA
ATOM      7  C   UNL     1       1.647  -1.603  -1.251  0.00  0.00    +0.288 C 
ATOM      8  O   UNL     1       2.411  -1.819  -0.333  0.00  0.00    -0.266 OA
ENDROOT
BRANCH   4   9
ATOM      9  C   UNL     1       1.582  -2.489  -5.577  0.00  0.00    +0.017 A 
ATOM     10  C   UNL     1       2.872  -1.951  -5.620  0.00  0.00    +0.011 A 
ATOM     11  C   UNL     1       3.845  -2.561  -6.382  0.00  0.00    +0.001 A 
ATOM     12  C   UNL     1       3.545  -3.699  -7.112  0.00  0.00    +0.000 A 
ATOM     13  C   UNL     1       2.269  -4.235  -7.078  0.00  0.00    +0.001 A 
ATOM     14  C   UNL     1       1.287  -3.639  -6.317  0.00  0.00    +0.011 A 
ENDBRANCH   4   9
BRANCH   2  15
ATOM     15  C   UNL     1      -0.284   0.564  -2.931  0.00  0.00    -0.019 A 
ATOM     16  C   UNL     1       0.742   1.464  -2.712  0.00  0.00    +0.009 A 
ATOM     17  C   UNL     1       0.620   2.774  -3.137  0.00  0.00    +0.049 A 
ATOM     18  C   UNL     1      -0.534   3.188  -3.782  0.00  0.00    +0.158 A 
ATOM     19  C   UNL     1      -1.568   2.282  -4.002  0.00  0.00    +0.162 A 
ATOM     20  C   UNL     1      -1.436   0.969  -3.579  0.00  0.00    +0.055 A 
BRANCH  19  21
ATOM     21  O   UNL     1      -2.703   2.684  -4.635  0.00  0.00    -0.491 OA
ATOM     22  C   UNL     1      -3.722   1.700  -4.826  0.00  0.00    +0.277 C 
ENDBRANCH  19  21
BRANCH  18  23
ATOM     23  O   UNL     1      -0.657   4.476  -4.200  0.00  0.00    -0.503 OA
ATOM     24  H   UNL     1      -0.335   4.630  -5.099  0.00  0.00    +0.292 HD
ENDBRANCH  18  23
ENDBRANCH   2  15
BRANCH   4  25
ATOM     25  O   UNL     1      -0.628  -1.470  -5.330  0.00  0.00    -0.506 OA
ATOM     26  H   UNL     1      -0.614  -1.701  -6.303  0.00  0.00    +0.292 HD
ENDBRANCH   4  25
BRANCH   1  27
ATOM     27  C   UNL     1      -0.013  -0.284   0.070  0.00  0.00    +0.090 C 
BRANCH  27  28
ATOM     28  C   UNL     1       0.523   1.144   0.185  0.00  0.00    -0.060 C 
BRANCH  28  29
ATOM     29  N   UNL     1       0.092   1.709   1.481  0.00  0.00    +0.380 N 
ATOM     30  H   UNL     1      -0.885   1.444   1.651  0.00  0.00    -0.082 HD
BRANCH  29  32
ATOM     31  C   UNL     1       0.329   1.593   3.913  0.00  0.00    -0.017 C 
ATOM     32  C   UNL     1       0.933   1.172   2.571  0.00  0.00    -0.082 C 
ENDBRANCH  29  32
BRANCH  29  33
ATOM     33  C   UNL     1       0.189   3.184   1.447  0.00  0.00    -0.082 C 
ATOM     34  C   UNL     1      -1.001   3.736   0.659  0.00  0.00    -0.017 C 
ENDBRANCH  29  33
ENDBRANCH  28  29
ENDBRANCH  27  28
ENDBRANCH   1  27
TORSDOF 10
