REMARK  Name = ZINC23695349
REMARK  9 active torsions:
REMARK  status: ('A' for Active; 'I' for Inactive)
REMARK    1  A    between atoms: C_1  and  C_2
REMARK    2  A    between atoms: C_2  and  C_21
REMARK    3  A    between atoms: N_5  and  N_9
REMARK    4  A    between atoms: C_10  and  C_12
REMARK    5  A    between atoms: C_12  and  N_13
REMARK    6  A    between atoms: N_13  and  C_14
REMARK    7  A    between atoms: N_13  and  C_15
REMARK    8  A    between atoms: C_21  and  C_22
REMARK    9  A    between atoms: C_22  and  C_23
REMARK                            x       y       z     vdW  Elec       q    Type
REMARK                         _______ _______ _______ _____ _____    ______ ____
ROOT
ATOM      1  C   UNL     1      -0.013   1.086   0.008  0.00  0.00    +0.041 C 
ATOM      2  C   UNL     1      -0.729   1.579   1.267  0.00  0.00    +0.112 C 
ATOM      3  C   UNL     1      -0.654   3.090   1.365  0.00  0.00    +0.263 C 
ATOM      4  O   UNL     1      -1.103   3.898   0.580  0.00  0.00    -0.271 OA
ATOM      5  N   UNL     1       0.015   3.349   2.506  0.00  0.00    -0.137 N 
ATOM      6  C   UNL     1       0.371   2.223   3.135  0.00  0.00    +0.326 C 
ATOM      7  O   UNL     1       0.984   2.200   4.184  0.00  0.00    -0.251 OA
ATOM      8  N   UNL     1      -0.026   1.119   2.477  0.00  0.00    -0.284 N 
ATOM      9  H   UNL     1       0.078   0.042   2.676  0.00  0.00    +0.151 HD
ENDROOT
BRANCH   5  10
ATOM     10  N   UNL     1       0.304   4.637   2.974  0.00  0.00    -0.225 N 
ATOM     11  C   UNL     1       1.556   5.127   2.870  0.00  0.00    +0.213 C 
ATOM     12  O   UNL     1       2.432   4.452   2.372  0.00  0.00    -0.276 OA
ATOM     13  H   UNL     1      -0.490   5.249   3.426  0.00  0.00    +0.173 HD
BRANCH  11  14
ATOM     14  C   UNL     1       1.867   6.512   3.374  0.00  0.00    +0.020 C 
BRANCH  14  15
ATOM     15  N   UNL     1       3.288   6.808   3.148  0.00  0.00    +0.385 N 
ATOM     16  C   UNL     1       3.587   6.883   1.712  0.00  0.00    -0.095 C 
ATOM     17  H   UNL     1       3.877   5.983   3.574  0.00  0.00    -0.081 HD
BRANCH  15  18
ATOM     18  C   UNL     1       3.683   8.046   3.833  0.00  0.00    -0.068 C 
ATOM     19  C   UNL     1       2.938   9.231   3.216  0.00  0.00    -0.015 C 
ATOM     20  C   UNL     1       3.351  10.520   3.930  0.00  0.00    -0.002 C 
ATOM     21  C   UNL     1       4.858  10.729   3.776  0.00  0.00    -0.000 C 
ATOM     22  C   UNL     1       5.603   9.544   4.393  0.00  0.00    -0.002 C 
ATOM     23  C   UNL     1       5.191   8.255   3.679  0.00  0.00    -0.015 C 
ENDBRANCH  15  18
ENDBRANCH  14  15
ENDBRANCH  11  14
ENDBRANCH   5  10
BRANCH   2  24
ATOM     24  C   UNL     1      -2.184   1.107   1.276  0.00  0.00    +0.040 C 
BRANCH  24  25
ATOM     25  C   UNL     1      -2.224  -0.420   1.358  0.00  0.00    +0.038 C 
BRANCH  25  26
ATOM     26  C   UNL     1      -3.657  -0.886   1.367  0.00  0.00    -0.047 A 
ATOM     27  C   UNL     1      -4.326  -1.041   2.567  0.00  0.00    +0.003 A 
ATOM     28  C   UNL     1      -5.642  -1.463   2.576  0.00  0.00    +0.000 A 
ATOM     29  C   UNL     1      -6.287  -1.740   1.385  0.00  0.00    +0.000 A 
ATOM     30  C   UNL     1      -5.617  -1.590   0.185  0.00  0.00    +0.000 A 
ATOM     31  C   UNL     1      -4.302  -1.163   0.176  0.00  0.00    +0.003 A 
ENDBRANCH  25  26
ENDBRANCH  24  25
ENDBRANCH   2  24
TORSDOF 7
