REMARK  Name = ZINC25815348
REMARK  12 active torsions:
REMARK  status: ('A' for Active; 'I' for Inactive)
REMARK    1  A    between atoms: C_1  and  C_2
REMARK    2  A    between atoms: C_2  and  O_3
REMARK    3  A    between atoms: O_3  and  C_4
REMARK    4  A    between atoms: C_4  and  C_6
REMARK    5  A    between atoms: C_7  and  C_21
REMARK    6  A    between atoms: C_12  and  C_14
REMARK    7  A    between atoms: C_21  and  N_22
REMARK    8  A    between atoms: N_22  and  C_23
REMARK    9  A    between atoms: N_22  and  C_24
REMARK   10  A    between atoms: C_24  and  C_25
REMARK   11  A    between atoms: C_28  and  O_32
REMARK   12  A    between atoms: O_32  and  C_33
REMARK                            x       y       z     vdW  Elec       q    Type
REMARK                         _______ _______ _______ _____ _____    ______ ____
ROOT
ATOM      1  C   UNL     1      -5.521   5.269  -3.413  0.00  0.00    +0.076 C 
ATOM      2  C   UNL     1      -4.399   5.696  -2.795  0.00  0.00    +0.008 C 
ATOM      3  N   UNL     1      -3.518   6.526  -3.428  0.00  0.00    -0.274 N 
ATOM      4  C   UNL     1      -3.690   6.979  -4.676  0.00  0.00    +0.304 C 
ATOM      5  O   UNL     1      -2.849   7.715  -5.155  0.00  0.00    -0.252 OA
ATOM      6  N   UNL     1      -4.764   6.645  -5.418  0.00  0.00    -0.288 N 
ATOM      7  C   UNL     1      -5.775   5.752  -4.827  0.00  0.00    +0.143 C 
ATOM      8  H   UNL     1      -2.607   6.859  -2.909  0.00  0.00    +0.156 HD
ATOM      9  H   UNL     1      -4.896   7.022  -6.443  0.00  0.00    +0.151 HD
ENDROOT
BRANCH   7  10
ATOM     10  C   UNL     1      -7.098   6.473  -4.845  0.00  0.00    -0.022 A 
ATOM     11  C   UNL     1      -7.155   7.821  -4.543  0.00  0.00    +0.007 A 
ATOM     12  C   UNL     1      -8.368   8.483  -4.565  0.00  0.00    +0.020 A 
ATOM     13  C   UNL     1      -9.527   7.795  -4.879  0.00  0.00    +0.041 A 
ATOM     14  C   UNL     1      -9.470   6.445  -5.176  0.00  0.00    +0.020 A 
ATOM     15  C   UNL     1      -8.255   5.785  -5.159  0.00  0.00    +0.007 A 
ATOM     16 CL   UNL     1     -11.051   8.625  -4.900  0.00  0.00    -0.084 Cl
ENDBRANCH   7  10
BRANCH   1  17
ATOM     17  C   UNL     1      -6.431   4.405  -2.761  0.00  0.00    +0.339 C 
ATOM     18  O   UNL     1      -6.274   4.130  -1.587  0.00  0.00    -0.245 OA
BRANCH  17  19
ATOM     19  O   UNL     1      -7.474   3.885  -3.442  0.00  0.00    -0.462 OA
BRANCH  19  21
ATOM     20  C   UNL     1      -9.466   2.533  -3.652  0.00  0.00    +0.048 C 
ATOM     21  C   UNL     1      -8.354   3.020  -2.721  0.00  0.00    +0.229 C 
ENDBRANCH  19  21
ENDBRANCH  17  19
ENDBRANCH   1  17
BRANCH   2  22
ATOM     22  C   UNL     1      -4.110   5.243  -1.387  0.00  0.00    -0.026 C 
BRANCH  22  23
ATOM     23  N   UNL     1      -4.800   6.127  -0.438  0.00  0.00    +0.384 N 
ATOM     24  C   UNL     1      -4.247   7.487  -0.488  0.00  0.00    -0.095 C 
ATOM     25  H   UNL     1      -5.858   6.182  -0.734  0.00  0.00    -0.081 HD
BRANCH  23  26
ATOM     26  C   UNL     1      -4.740   5.585   0.926  0.00  0.00    -0.043 C 
BRANCH  26  27
ATOM     27  C   UNL     1      -5.655   6.377   1.823  0.00  0.00    -0.061 A 
ATOM     28  C   UNL     1      -6.974   5.992   1.976  0.00  0.00    +0.005 A 
ATOM     29  C   UNL     1      -7.817   6.717   2.797  0.00  0.00    +0.049 A 
ATOM     30  C   UNL     1      -7.338   7.831   3.470  0.00  0.00    +0.155 A 
ATOM     31  C   UNL     1      -6.013   8.216   3.316  0.00  0.00    +0.165 A 
ATOM     32  C   UNL     1      -5.176   7.491   2.488  0.00  0.00    +0.044 A 
ATOM     33  F   UNL     1      -5.543   9.302   3.969  0.00  0.00    -0.202 F 
BRANCH  30  34
ATOM     34  O   UNL     1      -8.166   8.545   4.279  0.00  0.00    -0.492 OA
ATOM     35  C   UNL     1      -9.516   8.091   4.390  0.00  0.00    +0.277 C 
ENDBRANCH  30  34
ENDBRANCH  26  27
ENDBRANCH  23  26
ENDBRANCH  22  23
ENDBRANCH   2  22
TORSDOF 9
