REMARK  Name = ZINC62969678
REMARK  9 active torsions:
REMARK  status: ('A' for Active; 'I' for Inactive)
REMARK    1  A    between atoms: C_1  and  C_2
REMARK    2  A    between atoms: C_2  and  C_3
REMARK    3  A    between atoms: C_2  and  C_4
REMARK    4  A    between atoms: C_2  and  C_5
REMARK    5  A    between atoms: C_11  and  C_14
REMARK    6  A    between atoms: C_14  and  N_15
REMARK    7  A    between atoms: C_18  and  N_21
REMARK    8  A    between atoms: N_21  and  C_22
REMARK    9  A    between atoms: N_21  and  C_23
REMARK                            x       y       z     vdW  Elec       q    Type
REMARK                         _______ _______ _______ _____ _____    ______ ____
ROOT
ATOM      1  C   UNL     1       0.673  -0.380  -1.337  0.00  0.00    -0.004 C 
ATOM      2  C   UNL     1      -0.025   0.015  -2.639  0.00  0.00    +0.011 C 
ATOM      3  C   UNL     1       0.679  -0.663  -3.819  0.00  0.00    +0.075 C 
ATOM      4  C   UNL     1       2.150  -0.312  -3.768  0.00  0.00    +0.138 C 
ATOM      5  O   UNL     1       2.714   0.132  -4.739  0.00  0.00    -0.297 OA
ATOM      6  C   UNL     1       2.895  -0.530  -2.470  0.00  0.00    +0.069 C 
ATOM      7  C   UNL     1       2.110   0.145  -1.340  0.00  0.00    +0.016 C 
ENDROOT
BRANCH   1   9
ATOM      8  C   UNL     1      -0.101   1.747  -0.278  0.00  0.00    +0.011 C 
ATOM      9  C   UNL     1      -0.085   0.222  -0.152  0.00  0.00    -0.035 C 
ATOM     10  C   UNL     1       0.610  -0.174   1.153  0.00  0.00    +0.011 C 
ATOM     11  C   UNL     1      -1.522  -0.304  -0.145  0.00  0.00    +0.011 C 
ENDBRANCH   1   9
BRANCH   6  12
ATOM     12  C   UNL     1       4.292   0.086  -2.570  0.00  0.00    +0.095 C 
BRANCH  12  13
ATOM     13  N   UNL     1       5.056  -0.235  -1.357  0.00  0.00    -0.303 NA
ATOM     14  C   UNL     1       5.567  -1.629  -1.403  0.00  0.00    +0.083 C 
ATOM     15  C   UNL     1       6.728  -1.615  -0.377  0.00  0.00    +0.001 C 
ATOM     16  C   UNL     1       7.359  -0.219  -0.588  0.00  0.00    -0.054 C 
ATOM     17  C   UNL     1       6.251   0.629  -1.239  0.00  0.00    +0.069 C 
BRANCH  16  18
ATOM     18  N   UNL     1       7.756   0.360   0.702  0.00  0.00    +0.379 N 
ATOM     19  C   UNL     1       8.765  -0.499   1.335  0.00  0.00    -0.096 C 
ATOM     20  C   UNL     1       8.321   1.699   0.484  0.00  0.00    -0.096 C 
ATOM     21  H   UNL     1       6.949   0.430   1.303  0.00  0.00    -0.082 HD
ENDBRANCH  16  18
ENDBRANCH  12  13
ENDBRANCH   6  12
TORSDOF 4
