REMARK  Name = ZINC23430496
REMARK  6 active torsions:
REMARK  status: ('A' for Active; 'I' for Inactive)
REMARK    1  A    between atoms: C_1  and  C_2
REMARK    2  A    between atoms: C_3  and  C_12
REMARK    3  A    between atoms: C_4  and  C_7
REMARK    4  A    between atoms: N_14  and  C_15
REMARK    5  A    between atoms: C_15  and  C_17
REMARK    6  A    between atoms: C_15  and  C_18
REMARK                            x       y       z     vdW  Elec       q    Type
REMARK                         _______ _______ _______ _____ _____    ______ ____
ROOT
ATOM      1  C   UNL     1      -5.979   3.481  -0.861  0.00  0.00    +0.250 C 
ATOM      2  O   UNL     1      -6.137   2.275  -0.895  0.00  0.00    -0.270 OA
ATOM      3  N   UNL     1      -4.821   3.996  -0.403  0.00  0.00    -0.305 N 
ATOM      4  H   UNL     1      -4.678   5.086  -0.372  0.00  0.00    +0.150 HD
ENDROOT
BRANCH   1   7
ATOM      5  C   UNL     1      -8.384   4.738   0.906  0.00  0.00    +0.070 C 
ATOM      6  C   UNL     1      -8.115   4.940  -0.563  0.00  0.00    +0.093 A 
ATOM      7  C   UNL     1      -7.050   4.375  -1.320  0.00  0.00    +0.107 A 
ATOM      8  C   UNL     1      -7.267   4.885  -2.609  0.00  0.00    +0.186 A 
ATOM      9  O   UNL     1      -8.370   5.647  -2.512  0.00  0.00    -0.353 OA
ATOM     10  N   UNL     1      -8.810   5.662  -1.388  0.00  0.00    -0.082 NA
BRANCH   8  11
ATOM     11  C   UNL     1      -6.464   4.636  -3.808  0.00  0.00    +0.058 A 
ATOM     12  C   UNL     1      -6.644   5.118  -5.096  0.00  0.00    +0.019 A 
ATOM     13  C   UNL     1      -5.731   4.722  -6.044  0.00  0.00    +0.008 A 
ATOM     14  C   UNL     1      -4.717   3.894  -5.683  0.00  0.00    +0.046 A 
ATOM     15  S   UNL     1      -4.995   3.640  -3.991  0.00  0.00    -0.093 S 
ENDBRANCH   8  11
ENDBRANCH   1   7
BRANCH   3  16
ATOM     16  C   UNL     1      -3.753   3.104   0.055  0.00  0.00    +0.101 C 
ATOM     17  C   UNL     1      -3.970   2.763   1.530  0.00  0.00    +0.033 C 
BRANCH  16  18
ATOM     18  C   UNL     1      -2.421   3.788  -0.112  0.00  0.00    -0.020 A 
ATOM     19  C   UNL     1      -2.343   5.147  -0.094  0.00  0.00    +0.006 A 
ATOM     20  C   UNL     1      -1.120   5.798  -0.246  0.00  0.00    +0.001 A 
ATOM     21  C   UNL     1       0.032   5.093  -0.417  0.00  0.00    +0.008 A 
ATOM     22  C   UNL     1      -0.009   3.689  -0.442  0.00  0.00    -0.018 A 
ATOM     23  C   UNL     1      -1.253   3.027  -0.287  0.00  0.00    -0.013 A 
ATOM     24  C   UNL     1      -1.294   1.623  -0.317  0.00  0.00    +0.009 A 
ATOM     25  C   UNL     1      -0.142   0.919  -0.484  0.00  0.00    +0.001 A 
ATOM     26  C   UNL     1       1.081   1.569  -0.636  0.00  0.00    +0.001 A 
ATOM     27  C   UNL     1       1.159   2.928  -0.617  0.00  0.00    +0.008 A 
ENDBRANCH  16  18
ENDBRANCH   3  16
TORSDOF 4
