REMARK  Name = ZINC52592367
REMARK  4 active torsions:
REMARK  status: ('A' for Active; 'I' for Inactive)
REMARK    1  A    between atoms: C_1  and  C_2
REMARK    2  A    between atoms: C_2  and  N_3
REMARK    3  A    between atoms: C_7  and  N_10
REMARK    4  A    between atoms: C_17  and  C_20
REMARK                            x       y       z     vdW  Elec       q    Type
REMARK                         _______ _______ _______ _____ _____    ______ ____
ROOT
ATOM      1  N   UNL     1       1.169  -3.896  -2.637  0.00  0.00    -0.298 N 
ATOM      2  C   UNL     1       1.188  -4.520  -3.831  0.00  0.00    +0.303 C 
ATOM      3  O   UNL     1       1.184  -3.868  -4.857  0.00  0.00    -0.253 OA
ATOM      4  N   UNL     1       1.212  -5.866  -3.887  0.00  0.00    -0.281 N 
ATOM      5  C   UNL     1       1.097  -6.678  -2.665  0.00  0.00    +0.137 C 
ATOM      6  C   UNL     1       0.005  -7.730  -2.885  0.00  0.00    +0.179 C 
ATOM      7  O   UNL     1       0.273  -8.441  -4.096  0.00  0.00    -0.369 OA
ATOM      8  C   UNL     1       0.249  -7.626  -5.271  0.00  0.00    +0.166 C 
ATOM      9  C   UNL     1       1.349  -6.568  -5.173  0.00  0.00    +0.145 C 
ATOM     10  H   UNL     1       1.099  -4.414  -1.820  0.00  0.00    +0.150 HD
ENDROOT
BRANCH   1  15
ATOM     11  N   UNL     1       0.698  -0.478  -1.205  0.00  0.00    +0.381 N 
ATOM     12  C   UNL     1       2.105  -0.062  -1.166  0.00  0.00    -0.079 C 
ATOM     13  C   UNL     1       2.802  -0.482  -2.462  0.00  0.00    -0.017 C 
ATOM     14  C   UNL     1       2.722  -2.004  -2.607  0.00  0.00    +0.018 C 
ATOM     15  C   UNL     1       1.252  -2.434  -2.572  0.00  0.00    +0.058 C 
ATOM     16  C   UNL     1       0.614  -1.942  -1.272  0.00  0.00    -0.056 C 
ATOM     17  H   UNL     1       0.254  -0.079  -2.018  0.00  0.00    -0.082 HD
BRANCH  11  19
ATOM     18  C   UNL     1      -0.006   1.526   0.015  0.00  0.00    -0.017 C 
ATOM     19  C   UNL     1       0.015  -0.004   0.006  0.00  0.00    -0.082 C 
ENDBRANCH  11  19
ENDBRANCH   1  15
BRANCH   8  20
ATOM     20  C   UNL     1       0.482  -8.487  -6.486  0.00  0.00    -0.017 A 
ATOM     21  C   UNL     1       1.331  -9.575  -6.410  0.00  0.00    +0.007 A 
ATOM     22  C   UNL     1       1.544 -10.365  -7.523  0.00  0.00    +0.020 A 
ATOM     23  C   UNL     1       0.907 -10.066  -8.715  0.00  0.00    +0.041 A 
ATOM     24  C   UNL     1       0.057  -8.977  -8.790  0.00  0.00    +0.020 A 
ATOM     25  C   UNL     1      -0.160  -8.192  -7.674  0.00  0.00    +0.007 A 
ATOM     26 CL   UNL     1       1.175 -11.058 -10.115  0.00  0.00    -0.084 Cl
ENDBRANCH   8  20
TORSDOF 3
