REMARK  Name = ZINC08142781
REMARK  8 active torsions:
REMARK  status: ('A' for Active; 'I' for Inactive)
REMARK    1  A    between atoms: C_1  and  C_2
REMARK    2  A    between atoms: C_3  and  C_26
REMARK    3  A    between atoms: N_4  and  C_20
REMARK    4  A    between atoms: C_5  and  N_9
REMARK    5  A    between atoms: C_6  and  C_7
REMARK    6  A    between atoms: C_10  and  C_12
REMARK    7  A    between atoms: C_12  and  N_58
REMARK    8  A    between atoms: C_16  and  C_19
REMARK                            x       y       z     vdW  Elec       q    Type
REMARK                         _______ _______ _______ _____ _____    ______ ____
ROOT
ATOM      1  C   UNL     1       3.430   1.104   1.173  0.00  0.00    +0.047 C 
ATOM      2  C   UNL     1       2.047   0.916   0.606  0.00  0.00    -0.011 A 
ATOM      3  C   UNL     1       1.515  -0.230   0.151  0.00  0.00    +0.022 A 
ATOM      4  N   UNL     1       0.237   0.004  -0.282  0.00  0.00    -0.329 N 
ATOM      5  C   UNL     1      -0.081   1.313  -0.113  0.00  0.00    +0.123 A 
ATOM      6  C   UNL     1       1.018   1.951   0.445  0.00  0.00    +0.095 A 
ATOM      7  C   UNL     1       2.215  -1.564   0.122  0.00  0.00    +0.064 C 
ENDROOT
BRANCH   4   8
ATOM      8  C   UNL     1      -0.656  -1.011  -0.845  0.00  0.00    +0.089 C 
ATOM      9  C   UNL     1      -1.158  -0.546  -2.213  0.00  0.00    +0.025 C 
ATOM     10  C   UNL     1      -2.091  -1.606  -2.802  0.00  0.00    +0.002 C 
ATOM     11  C   UNL     1      -3.283  -1.813  -1.865  0.00  0.00    +0.000 C 
ATOM     12  C   UNL     1      -2.782  -2.277  -0.496  0.00  0.00    +0.002 C 
ATOM     13  C   UNL     1      -1.848  -1.218   0.092  0.00  0.00    +0.025 C 
ENDBRANCH   4   8
BRANCH   5  14
ATOM     14  N   UNL     1      -1.289   1.909  -0.445  0.00  0.00    -0.272 N 
ATOM     15  C   UNL     1      -1.303   3.110  -1.057  0.00  0.00    +0.202 C 
ATOM     16  O   UNL     1      -0.259   3.658  -1.340  0.00  0.00    -0.278 OA
ATOM     17  H   UNL     1      -2.124   1.461  -0.237  0.00  0.00    +0.156 HD
BRANCH  15  18
ATOM     18  C   UNL     1      -2.615   3.771  -1.389  0.00  0.00    +0.019 C 
BRANCH  18  25
ATOM     19  C   UNL     1      -1.918   4.942  -3.390  0.00  0.00    -0.078 C 
ATOM     20  C   UNL     1      -1.526   6.314  -3.944  0.00  0.00    -0.018 C 
ATOM     21  C   UNL     1      -2.731   7.255  -3.866  0.00  0.00    -0.001 C 
ATOM     22  C   UNL     1      -3.203   7.347  -2.412  0.00  0.00    -0.031 C 
ATOM     23  C   UNL     1      -3.547   5.946  -1.903  0.00  0.00    -0.075 C 
ATOM     24  C   UNL     1      -4.444   8.239  -2.334  0.00  0.00    +0.005 C 
ATOM     25  N   UNL     1      -2.340   5.096  -1.982  0.00  0.00    +0.386 N 
ATOM     26  H   UNL     1      -1.581   5.546  -1.455  0.00  0.00    -0.081 HD
ENDBRANCH  18  25
ENDBRANCH  15  18
ENDBRANCH   5  14
BRANCH   6  27
ATOM     27  C   UNL     1       1.126   3.336   0.791  0.00  0.00    +0.103 C 
ATOM     28  N   UNL     1       1.212   4.435   1.066  0.00  0.00    -0.191 NA
ENDBRANCH   6  27
TORSDOF 5
