REMARK  Name = ZINC21136501
REMARK  11 active torsions:
REMARK  status: ('A' for Active; 'I' for Inactive)
REMARK    1  A    between atoms: C_1  and  C_2
REMARK    2  A    between atoms: C_2  and  N_3
REMARK    3  A    between atoms: N_3  and  C_4
REMARK    4  A    between atoms: C_14  and  C_16
REMARK    5  A    between atoms: C_16  and  O_17
REMARK    6  A    between atoms: O_17  and  C_18
REMARK    7  A    between atoms: C_18  and  C_20
REMARK    8  A    between atoms: C_20  and  N_21
REMARK    9  A    between atoms: C_26  and  C_33
REMARK   10  A    between atoms: C_29  and  C_31
REMARK   11  A    between atoms: C_29  and  C_32
REMARK                            x       y       z     vdW  Elec       q    Type
REMARK                         _______ _______ _______ _____ _____    ______ ____
ROOT
ATOM      1  C   UNL     1      -6.007   5.657   2.803  0.00  0.00    +0.326 C 
ATOM      2  O   UNL     1      -6.665   6.010   1.853  0.00  0.00    -0.249 OA
ENDROOT
BRANCH   1   3
ATOM      3  O   UNL     1      -4.836   5.029   2.612  0.00  0.00    -0.454 OA
BRANCH   3   4
ATOM      4  C   UNL     1      -4.423   4.807   1.238  0.00  0.00    +0.328 C 
BRANCH   4   6
ATOM      5  N   UNL     1      -2.513   3.781   0.047  0.00  0.00    -0.268 N 
ATOM      6  C   UNL     1      -3.096   4.094   1.221  0.00  0.00    +0.258 C 
ATOM      7  O   UNL     1      -2.551   3.802   2.265  0.00  0.00    -0.272 OA
BRANCH   5   8
ATOM      8  C   UNL     1      -1.283   3.121   0.032  0.00  0.00    +0.044 A 
ATOM      9  C   UNL     1      -1.233   1.744   0.017  0.00  0.00    +0.024 A 
ATOM     10  C   UNL     1      -0.013   1.076   0.008  0.00  0.00    +0.002 A 
ATOM     11  C   UNL     1       1.164   1.762   0.000  0.00  0.00    +0.008 A 
ATOM     12  C   UNL     1       1.157   3.167   0.008  0.00  0.00    -0.016 A 
ATOM     13  C   UNL     1      -0.080   3.858   0.024  0.00  0.00    +0.004 A 
ATOM     14  C   UNL     1      -0.085   5.261   0.030  0.00  0.00    +0.010 A 
ATOM     15  C   UNL     1       1.095   5.940   0.022  0.00  0.00    +0.001 A 
ATOM     16  C   UNL     1       2.312   5.261   0.007  0.00  0.00    +0.001 A 
ATOM     17  C   UNL     1       2.356   3.901  -0.000  0.00  0.00    +0.008 A 
ENDBRANCH   5   8
BRANCH   5  19
ATOM     18  C   UNL     1      -4.082   2.986  -1.652  0.00  0.00    +0.025 C 
ATOM     19  C   UNL     1      -3.171   4.134  -1.214  0.00  0.00    +0.110 C 
ENDBRANCH   5  19
ENDBRANCH   4   6
ENDBRANCH   3   4
ENDBRANCH   1   3
BRANCH   1  20
ATOM     20  C   UNL     1      -6.501   5.922   4.201  0.00  0.00    +0.238 C 
BRANCH  20  21
ATOM     21  N   UNL     1      -7.790   6.614   4.141  0.00  0.00    -0.213 N 
ATOM     22  C   UNL     1      -7.933   7.957   4.129  0.00  0.00    +0.247 C 
ATOM     23  O   UNL     1      -7.053   8.773   4.298  0.00  0.00    -0.273 OA
ATOM     24  C   UNL     1      -9.403   8.207   3.893  0.00  0.00    +0.113 C 
ATOM     25  C   UNL     1      -9.965   9.160   4.937  0.00  0.00    +0.038 C 
ATOM     26  C   UNL     1      -9.483  10.584   4.659  0.00  0.00    -0.011 C 
ATOM     27  C   UNL     1     -10.007  11.019   3.292  0.00  0.00    +0.009 C 
ATOM     28  C   UNL     1      -9.459  10.123   2.188  0.00  0.00    -0.032 C 
ATOM     29  C   UNL     1      -9.685   8.647   2.471  0.00  0.00    +0.041 C 
ATOM     30  C   UNL     1      -7.971  10.410   1.966  0.00  0.00    +0.011 C 
ATOM     31  C   UNL     1     -10.200  10.478   0.881  0.00  0.00    +0.011 C 
ATOM     32  C   UNL     1     -10.035  11.524   5.737  0.00  0.00    +0.007 C 
ATOM     33  N   UNL     1     -10.002   6.868   4.101  0.00  0.00    -0.285 N 
ATOM     34  C   UNL     1      -8.977   5.997   4.110  0.00  0.00    +0.310 C 
ATOM     35  O   UNL     1      -9.112   4.789   4.094  0.00  0.00    -0.252 OA
ATOM     36  H   UNL     1     -11.092   6.763   4.209  0.00  0.00    +0.151 HD
ENDBRANCH  20  21
ENDBRANCH   1  20
TORSDOF 7
