REMARK  Name = ZINC04755058
REMARK  7 active torsions:
REMARK  status: ('A' for Active; 'I' for Inactive)
REMARK    1  A    between atoms: C_1  and  C_2
REMARK    2  A    between atoms: C_4  and  C_29
REMARK    3  A    between atoms: C_5  and  C_9
REMARK    4  A    between atoms: C_6  and  C_8
REMARK    5  A    between atoms: C_21  and  S_24
REMARK    6  A    between atoms: S_24  and  C_25
REMARK    7  A    between atoms: C_25  and  C_26
REMARK                            x       y       z     vdW  Elec       q    Type
REMARK                         _______ _______ _______ _____ _____    ______ ____
ROOT
ATOM      1  C   UNL     1       0.095   5.592  -0.969  0.00  0.00    +0.294 C 
ATOM      2  N   UNL     1      -0.290   4.447  -0.150  0.00  0.00    -0.305 N 
ATOM      3  C   UNL     1       0.036   3.162  -0.593  0.00  0.00    +0.039 A 
ATOM      4  C   UNL     1      -0.938   2.277  -1.017  0.00  0.00    +0.024 A 
ATOM      5  C   UNL     1      -0.576   1.024  -1.478  0.00  0.00    +0.002 A 
ATOM      6  C   UNL     1       0.755   0.644  -1.504  0.00  0.00    +0.001 A 
ATOM      7  C   UNL     1       1.739   1.514  -1.075  0.00  0.00    +0.012 A 
ATOM      8  C   UNL     1       1.390   2.777  -0.615  0.00  0.00    +0.028 A 
ATOM      9  C   UNL     1       2.408   3.733  -0.129  0.00  0.00    +0.156 A 
ATOM     10  C   UNL     1       2.378   5.073  -0.577  0.00  0.00    +0.248 A 
ATOM     11  N   UNL     1       3.292   5.914  -0.125  0.00  0.00    -0.184 NA
ATOM     12  C   UNL     1       4.213   5.477   0.730  0.00  0.00    +0.213 A 
ATOM     13  N   UNL     1       4.226   4.213   1.134  0.00  0.00    -0.122 NA
ATOM     14  N   UNL     1       3.353   3.361   0.722  0.00  0.00    -0.141 NA
ATOM     15  O   UNL     1       1.427   5.469  -1.456  0.00  0.00    -0.449 OA
ATOM     16  H   UNL     1      -0.765   4.576   0.686  0.00  0.00    +0.150 HD
ENDROOT
BRANCH   1  21
ATOM     17  C   UNL     1      -3.519   5.997  -5.460  0.00  0.00    +0.044 C 
ATOM     18  C   UNL     1      -2.576   5.892  -4.289  0.00  0.00    -0.050 A 
ATOM     19  C   UNL     1      -2.750   6.707  -3.186  0.00  0.00    +0.007 A 
ATOM     20  C   UNL     1      -1.886   6.610  -2.112  0.00  0.00    -0.042 A 
ATOM     21  C   UNL     1      -0.847   5.698  -2.140  0.00  0.00    +0.017 A 
ATOM     22  C   UNL     1      -0.670   4.886  -3.246  0.00  0.00    -0.042 A 
ATOM     23  C   UNL     1      -1.538   4.980  -4.318  0.00  0.00    +0.007 A 
ATOM     24  C   UNL     1       0.465   3.896  -3.279  0.00  0.00    +0.044 C 
ATOM     25  C   UNL     1      -2.075   7.499  -0.909  0.00  0.00    +0.044 C 
ENDBRANCH   1  21
BRANCH  12  26
ATOM     26  S   UNL     1       5.433   6.594   1.335  0.00  0.00    -0.080 S 
BRANCH  26  27
ATOM     27  C   UNL     1       6.370   5.482   2.414  0.00  0.00    +0.104 C 
BRANCH  27  28
ATOM     28  C   UNL     1       7.499   6.242   3.060  0.00  0.00    -0.023 C 
ATOM     29  C   UNL     1       7.512   6.420   4.357  0.00  0.00    +0.005 C 
ENDBRANCH  27  28
ENDBRANCH  26  27
ENDBRANCH  12  26
TORSDOF 4
