REMARK  Name = ZINC20729640
REMARK  5 active torsions:
REMARK  status: ('A' for Active; 'I' for Inactive)
REMARK    1  A    between atoms: C_10  and  C_11
REMARK    2  A    between atoms: C_11  and  N_12
REMARK    3  A    between atoms: N_15  and  C_18
REMARK    4  A    between atoms: C_18  and  C_20
REMARK    5  A    between atoms: C_18  and  C_31
REMARK                            x       y       z     vdW  Elec       q    Type
REMARK                         _______ _______ _______ _____ _____    ______ ____
ROOT
ATOM      1  N   UNL     1      -5.312   3.648  -2.144  0.00  0.00    -0.302 NA
ATOM      2  C   UNL     1      -5.370   4.280  -0.818  0.00  0.00    +0.066 C 
ATOM      3  C   UNL     1      -3.959   4.683  -0.385  0.00  0.00    -0.062 C 
ATOM      4  N   UNL     1      -3.098   3.492  -0.360  0.00  0.00    +0.393 N 
ATOM      5  C   UNL     1      -3.039   2.860  -1.686  0.00  0.00    -0.062 C 
ATOM      6  C   UNL     1      -4.451   2.457  -2.119  0.00  0.00    +0.066 C 
ATOM      7  H   UNL     1      -3.539   2.769   0.342  0.00  0.00    -0.080 HD
ENDROOT
BRANCH   1   8
ATOM      8  C   UNL     1      -6.658   3.314  -2.628  0.00  0.00    +0.120 C 
BRANCH   8  18
ATOM      9  C   UNL     1      -6.186   6.150  -6.863  0.00  0.00    +0.001 A 
ATOM     10  C   UNL     1      -6.233   6.427  -5.497  0.00  0.00    +0.001 A 
ATOM     11  C   UNL     1      -6.370   5.427  -4.584  0.00  0.00    +0.009 A 
ATOM     12  C   UNL     1      -6.469   4.095  -5.021  0.00  0.00    -0.013 A 
ATOM     13  C   UNL     1      -6.416   3.813  -6.409  0.00  0.00    -0.018 A 
ATOM     14  C   UNL     1      -6.274   4.873  -7.322  0.00  0.00    +0.008 A 
ATOM     15  C   UNL     1      -6.511   2.481  -6.846  0.00  0.00    +0.008 A 
ATOM     16  C   UNL     1      -6.647   1.481  -5.932  0.00  0.00    +0.001 A 
ATOM     17  C   UNL     1      -6.694   1.758  -4.567  0.00  0.00    +0.005 A 
ATOM     18  C   UNL     1      -6.605   3.036  -4.108  0.00  0.00    -0.026 A 
ENDBRANCH   8  18
ENDBRANCH   1   8
BRANCH   4  19
ATOM     19  C   UNL     1      -1.752   3.826   0.124  0.00  0.00    +0.080 C 
BRANCH  19  20
ATOM     20  C   UNL     1      -0.900   2.583   0.136  0.00  0.00    -0.025 A 
ATOM     21  C   UNL     1      -1.338   1.314   0.130  0.00  0.00    +0.086 A 
ATOM     22  N   UNL     1      -0.275   0.453   0.148  0.00  0.00    -0.360 N 
ATOM     23  H   UNL     1      -0.447  -0.634   0.155  0.00  0.00    +0.165 HD
ATOM     24  C   UNL     1       0.904   1.165   0.156  0.00  0.00    +0.048 A 
ATOM     25  C   UNL     1       0.564   2.530   0.148  0.00  0.00    +0.002 A 
ATOM     26  C   UNL     1       1.570   3.498   0.154  0.00  0.00    +0.011 A 
ATOM     27  C   UNL     1       2.881   3.114   0.168  0.00  0.00    +0.016 A 
ATOM     28  C   UNL     1       3.222   1.768   0.175  0.00  0.00    +0.020 A 
ATOM     29  C   UNL     1       2.245   0.796   0.170  0.00  0.00    +0.041 A 
ATOM     30 BR   UNL     1       5.045   1.264   0.195  0.00  0.00    -0.050 Br
ENDBRANCH  19  20
BRANCH  19  31
ATOM     31  C   UNL     1      -1.844   4.385   1.520  0.00  0.00    +0.347 C 
ATOM     32  O   UNL     1      -2.921   4.494   2.057  0.00  0.00    -0.248 OA
ATOM     33  O   UNL     1      -0.730   4.761   2.168  0.00  0.00    -0.248 OA
ENDBRANCH  19  31
ENDBRANCH   4  19
TORSDOF 5
