REMARK  Name = ZINC05396173
REMARK  13 active torsions:
REMARK  status: ('A' for Active; 'I' for Inactive)
REMARK    1  A    between atoms: C_1  and  C_2
REMARK    2  A    between atoms: C_7  and  C_30
REMARK    3  A    between atoms: C_8  and  C_10
REMARK    4  A    between atoms: C_10  and  C_11
REMARK    5  A    between atoms: C_11  and  C_12
REMARK    6  A    between atoms: C_12  and  C_23
REMARK    7  A    between atoms: C_13  and  C_14
REMARK    8  A    between atoms: C_14  and  C_15
REMARK    9  A    between atoms: C_15  and  C_16
REMARK   10  A    between atoms: C_16  and  C_22
REMARK   11  A    between atoms: N_17  and  N_18
REMARK   12  A    between atoms: C_27  and  C_28
REMARK   13  A    between atoms: C_27  and  C_29
REMARK                            x       y       z     vdW  Elec       q    Type
REMARK                         _______ _______ _______ _____ _____    ______ ____
ROOT
ATOM      1  C   UNL     1       1.948   0.728   2.045  0.00  0.00    +0.031 C 
ENDROOT
BRANCH   1   2
ATOM      2  C   UNL     1       3.300   0.928   2.680  0.00  0.00    -0.077 C 
ATOM      3  C   UNL     1       4.282   1.442   1.982  0.00  0.00    -0.028 C 
ATOM      4  C   UNL     1       3.522   0.538   4.119  0.00  0.00    +0.039 C 
BRANCH   3   5
ATOM      5  C   UNL     1       5.667   1.515   2.570  0.00  0.00    +0.033 C 
BRANCH   5   6
ATOM      6  C   UNL     1       6.648   0.778   1.657  0.00  0.00    +0.056 C 
BRANCH   6   7
ATOM      7  C   UNL     1       8.034   0.850   2.245  0.00  0.00    +0.034 C 
ATOM      8  N   UNL     1       8.619  -0.218   2.639  0.00  0.00    -0.188 NA
ATOM      9  C   UNL     1       8.731   2.181   2.370  0.00  0.00    +0.062 C 
BRANCH   8  10
ATOM     10  N   UNL     1       9.907  -0.150   3.186  0.00  0.00    -0.191 N 
ATOM     11  C   UNL     1      10.523  -1.275   3.600  0.00  0.00    +0.317 C 
ATOM     12  O   UNL     1      11.641  -1.216   4.075  0.00  0.00    -0.251 OA
ATOM     13  N   UNL     1       9.900  -2.465   3.489  0.00  0.00    -0.312 N 
ATOM     14  H   UNL     1      10.355   0.706   3.266  0.00  0.00    +0.179 HD
ATOM     15  H   UNL     1       9.008  -2.512   3.110  0.00  0.00    +0.147 HD
ATOM     16  H   UNL     1      10.343  -3.274   3.787  0.00  0.00    +0.147 HD
ENDBRANCH   8  10
ENDBRANCH   6   7
ENDBRANCH   5   6
ENDBRANCH   3   5
ENDBRANCH   1   2
BRANCH   1  17
ATOM     17  C   UNL     1       1.838  -0.705   1.520  0.00  0.00    +0.013 C 
BRANCH  17  24
ATOM     18  C   UNL     1       0.109   1.396  -0.100  0.00  0.00    +0.039 C 
ATOM     19  C   UNL     1       0.281  -0.090  -0.284  0.00  0.00    -0.073 C 
ATOM     20  C   UNL     1       0.283  -0.554  -1.490  0.00  0.00    -0.027 C 
ATOM     21  C   UNL     1       0.438  -2.010  -1.830  0.00  0.00    +0.031 C 
ATOM     22  C   UNL     1       0.990  -2.777  -0.625  0.00  0.00    +0.005 C 
ATOM     23  C   UNL     1       0.193  -2.412   0.621  0.00  0.00    -0.022 C 
ATOM     24  C   UNL     1       0.443  -0.932   0.949  0.00  0.00    +0.021 C 
ATOM     25  C   UNL     1       0.608  -3.272   1.813  0.00  0.00    +0.007 C 
ATOM     26  C   UNL     1       0.457  -4.755   1.463  0.00  0.00    +0.001 C 
ATOM     27  C   UNL     1       1.423  -5.081   0.327  0.00  0.00    +0.007 C 
ATOM     28  C   UNL     1       1.091  -4.262  -0.920  0.00  0.00    -0.031 C 
ATOM     29  C   UNL     1       2.258  -4.473  -1.913  0.00  0.00    +0.011 C 
ATOM     30  C   UNL     1      -0.168  -4.828  -1.575  0.00  0.00    +0.011 C 
ATOM     31  C   UNL     1      -1.319  -2.576   0.392  0.00  0.00    +0.012 C 
ENDBRANCH  17  24
ENDBRANCH   1  17
TORSDOF 7
