REMARK  Name = ZINC08749789
REMARK  10 active torsions:
REMARK  status: ('A' for Active; 'I' for Inactive)
REMARK    1  A    between atoms: C_1  and  C_2
REMARK    2  A    between atoms: C_5  and  N_9
REMARK    3  A    between atoms: C_10  and  C_12
REMARK    4  A    between atoms: C_12  and  N_13
REMARK    5  A    between atoms: C_16  and  C_20
REMARK    6  A    between atoms: C_16  and  C_21
REMARK    7  A    between atoms: C_21  and  C_22
REMARK    8  A    between atoms: C_22  and  C_23
REMARK    9  A    between atoms: C_26  and  O_29
REMARK   10  A    between atoms: O_29  and  C_30
REMARK                            x       y       z     vdW  Elec       q    Type
REMARK                         _______ _______ _______ _____ _____    ______ ____
ROOT
ATOM      1  N   UNL     1       0.003  -0.004  -0.020  0.00  0.00    -0.215 N 
ATOM      2  C   UNL     1       0.017  -0.771   1.088  0.00  0.00    +0.247 C 
ATOM      3  O   UNL     1       0.014  -0.393   2.240  0.00  0.00    -0.273 OA
ATOM      4  C   UNL     1       0.034  -2.204   0.594  0.00  0.00    +0.110 C 
ATOM      5  N   UNL     1       0.028  -2.066  -0.872  0.00  0.00    -0.285 N 
ATOM      6  C   UNL     1       0.005  -0.746  -1.134  0.00  0.00    +0.310 C 
ATOM      7  O   UNL     1      -0.010  -0.280  -2.256  0.00  0.00    -0.252 OA
ATOM      8  C   UNL     1      -1.213  -2.953   1.069  0.00  0.00    +0.041 C 
ATOM      9  H   UNL     1       0.036  -2.785  -1.522  0.00  0.00    +0.151 HD
ENDROOT
BRANCH   1  10
ATOM     10  C   UNL     1      -0.017   1.460  -0.008  0.00  0.00    +0.214 C 
BRANCH  10  12
ATOM     11  N   UNL     1       1.624   3.311   0.004  0.00  0.00    -0.283 N 
ATOM     12  C   UNL     1       1.397   1.982  -0.007  0.00  0.00    +0.235 C 
ATOM     13  O   UNL     1       2.329   1.207  -0.016  0.00  0.00    -0.274 OA
ATOM     14  H   UNL     1       0.881   3.931  -0.054  0.00  0.00    +0.155 HD
BRANCH  11  19
ATOM     15  C   UNL     1       6.934   5.275   0.393  0.00  0.00    +0.044 C 
ATOM     16  C   UNL     1       5.523   4.753   0.290  0.00  0.00    -0.049 A 
ATOM     17  C   UNL     1       5.267   3.590  -0.413  0.00  0.00    +0.005 A 
ATOM     18  C   UNL     1       3.977   3.106  -0.505  0.00  0.00    +0.024 A 
ATOM     19  C   UNL     1       2.934   3.795   0.100  0.00  0.00    +0.048 A 
ATOM     20  C   UNL     1       3.194   4.964   0.805  0.00  0.00    +0.039 A 
ATOM     21  C   UNL     1       4.488   5.439   0.898  0.00  0.00    +0.020 A 
ATOM     22 BR   UNL     1       1.779   5.902   1.638  0.00  0.00    -0.048 Br
ENDBRANCH  11  19
ENDBRANCH  10  12
ENDBRANCH   1  10
BRANCH   4  23
ATOM     23  C   UNL     1       1.304  -2.919   1.062  0.00  0.00    +0.039 C 
BRANCH  23  24
ATOM     24  C   UNL     1       1.356  -4.320   0.449  0.00  0.00    +0.038 C 
BRANCH  24  25
ATOM     25  C   UNL     1       2.606  -5.024   0.910  0.00  0.00    -0.047 A 
ATOM     26  C   UNL     1       3.771  -4.915   0.173  0.00  0.00    +0.007 A 
ATOM     27  C   UNL     1       4.920  -5.554   0.596  0.00  0.00    +0.046 A 
ATOM     28  C   UNL     1       4.902  -6.316   1.756  0.00  0.00    +0.120 A 
ATOM     29  C   UNL     1       3.730  -6.428   2.490  0.00  0.00    +0.046 A 
ATOM     30  C   UNL     1       2.585  -5.782   2.066  0.00  0.00    +0.007 A 
BRANCH  28  31
ATOM     31  O   UNL     1       6.029  -6.950   2.172  0.00  0.00    -0.495 OA
ATOM     32  C   UNL     1       7.198  -6.790   1.366  0.00  0.00    +0.277 C 
ENDBRANCH  28  31
ENDBRANCH  24  25
ENDBRANCH  23  24
ENDBRANCH   4  23
TORSDOF 7
