REMARK  Name = ZINC36531332
REMARK  13 active torsions:
REMARK  status: ('A' for Active; 'I' for Inactive)
REMARK    1  A    between atoms: C_1  and  C_2
REMARK    2  A    between atoms: C_5  and  S_8
REMARK    3  A    between atoms: S_8  and  C_11
REMARK    4  A    between atoms: C_11  and  N_12
REMARK    5  A    between atoms: C_13  and  C_15
REMARK    6  A    between atoms: C_15  and  C_17
REMARK    7  A    between atoms: C_15  and  N_26
REMARK    8  A    between atoms: C_17  and  C_19
REMARK    9  A    between atoms: C_17  and  C_20
REMARK   10  A    between atoms: N_26  and  C_27
REMARK   11  A    between atoms: C_28  and  C_30
REMARK   12  A    between atoms: C_34  and  O_37
REMARK   13  A    between atoms: C_35  and  O_36
REMARK                            x       y       z     vdW  Elec       q    Type
REMARK                         _______ _______ _______ _____ _____    ______ ____
ROOT
ATOM      1  C   UNL     1       3.471  -5.383   3.243  0.00  0.00    +0.169 C 
ENDROOT
BRANCH   1   3
ATOM      2  N   UNL     1       3.746  -5.105   0.800  0.00  0.00    -0.295 N 
ATOM      3  C   UNL     1       3.265  -5.840   1.822  0.00  0.00    +0.235 C 
ATOM      4  O   UNL     1       2.666  -6.871   1.598  0.00  0.00    -0.274 OA
ATOM      5  H   UNL     1       4.155  -4.242   0.974  0.00  0.00    +0.150 HD
BRANCH   2   6
ATOM      6  C   UNL     1       3.652  -5.608  -0.573  0.00  0.00    +0.278 C 
BRANCH   6   7
ATOM      7  S   UNL     1       2.162  -4.939  -1.361  0.00  0.00    +0.013 S 
ATOM      8  O   UNL     1       1.044  -5.081  -0.496  0.00  0.00    -0.168 OA
ATOM      9  O   UNL     1       2.090  -5.367  -2.714  0.00  0.00    -0.168 OA
BRANCH   7  14
ATOM     10  C   UNL     1       3.113   1.011  -1.681  0.00  0.00    +0.044 C 
ATOM     11  C   UNL     1       2.875  -0.475  -1.601  0.00  0.00    -0.050 A 
ATOM     12  C   UNL     1       3.275  -1.295  -2.639  0.00  0.00    +0.005 A 
ATOM     13  C   UNL     1       3.057  -2.658  -2.566  0.00  0.00    +0.027 A 
ATOM     14  C   UNL     1       2.441  -3.201  -1.454  0.00  0.00    +0.090 A 
ATOM     15  C   UNL     1       2.042  -2.381  -0.415  0.00  0.00    +0.027 A 
ATOM     16  C   UNL     1       2.264  -1.018  -0.486  0.00  0.00    +0.005 A 
ENDBRANCH   7  14
ENDBRANCH   6   7
ENDBRANCH   2   6
ENDBRANCH   1   3
BRANCH   1  17
ATOM     17  N   UNL     1       3.693  -6.547   4.104  0.00  0.00    -0.288 N 
ATOM     18  C   UNL     1       2.665  -7.584   4.212  0.00  0.00    +0.133 C 
ATOM     19  C   UNL     1       4.844  -6.664   4.796  0.00  0.00    +0.251 C 
ATOM     20  O   UNL     1       5.655  -5.758   4.784  0.00  0.00    -0.270 OA
BRANCH  19  21
ATOM     21  C   UNL     1       5.119  -7.890   5.569  0.00  0.00    +0.082 A 
ATOM     22  C   UNL     1       4.860  -9.145   5.010  0.00  0.00    +0.017 A 
ATOM     23  C   UNL     1       5.118 -10.288   5.734  0.00  0.00    +0.005 A 
ATOM     24  C   UNL     1       5.634 -10.202   7.017  0.00  0.00    +0.049 A 
ATOM     25  C   UNL     1       5.895  -8.967   7.584  0.00  0.00    +0.159 A 
ATOM     26  C   UNL     1       5.645  -7.803   6.863  0.00  0.00    +0.171 A 
BRANCH  26  27
ATOM     27  O   UNL     1       5.905  -6.590   7.413  0.00  0.00    -0.503 OA
ATOM     28  H   UNL     1       5.162  -6.213   7.904  0.00  0.00    +0.292 HD
ENDBRANCH  26  27
BRANCH  25  29
ATOM     29  O   UNL     1       6.401  -8.891   8.844  0.00  0.00    -0.503 OA
ATOM     30  H   UNL     1       7.367  -8.891   8.881  0.00  0.00    +0.292 HD
ENDBRANCH  25  29
ENDBRANCH  19  21
ENDBRANCH   1  17
BRANCH   1  31
ATOM     31  C   UNL     1       2.231  -4.625   3.719  0.00  0.00    +0.045 C 
ATOM     32  C   UNL     1       1.981  -3.426   2.802  0.00  0.00    +0.015 C 
BRANCH  31  33
ATOM     33  C   UNL     1       2.449  -4.140   5.130  0.00  0.00    -0.042 A 
ATOM     34  C   UNL     1       3.491  -3.276   5.410  0.00  0.00    +0.004 A 
ATOM     35  C   UNL     1       3.692  -2.832   6.704  0.00  0.00    +0.000 A 
ATOM     36  C   UNL     1       2.850  -3.252   7.717  0.00  0.00    +0.000 A 
ATOM     37  C   UNL     1       1.807  -4.115   7.436  0.00  0.00    +0.000 A 
ATOM     38  C   UNL     1       1.604  -4.556   6.142  0.00  0.00    +0.004 A 
ENDBRANCH  31  33
ENDBRANCH   1  31
TORSDOF 10
