REMARK  Name = ZINC01394328
REMARK  6 active torsions:
REMARK  status: ('A' for Active; 'I' for Inactive)
REMARK    1  A    between atoms: C_1  and  C_2
REMARK    2  A    between atoms: C_6  and  C_25
REMARK    3  A    between atoms: C_7  and  N_8
REMARK    4  A    between atoms: N_11  and  N_12
REMARK    5  A    between atoms: C_13  and  C_15
REMARK    6  A    between atoms: C_16  and  N_20
REMARK                            x       y       z     vdW  Elec       q    Type
REMARK                         _______ _______ _______ _____ _____    ______ ____
ROOT
ATOM      1  N   UNL     1      -1.413   8.105  -0.067  0.00  0.00    -0.268 N 
ATOM      2  C   UNL     1      -2.401   7.640   0.723  0.00  0.00    +0.320 C 
ATOM      3  O   UNL     1      -3.008   8.403   1.450  0.00  0.00    -0.251 OA
ATOM      4  N   UNL     1      -2.716   6.330   0.709  0.00  0.00    -0.218 N 
ATOM      5  H   UNL     1      -0.895   7.489  -0.608  0.00  0.00    +0.156 HD
ATOM      6  H   UNL     1      -3.427   5.995   1.277  0.00  0.00    +0.174 HD
ENDROOT
BRANCH   1  13
ATOM      7  C   UNL     1      -3.566   9.897  -0.571  0.00  0.00    +0.045 C 
ATOM      8  C   UNL     1      -2.157  10.385  -0.351  0.00  0.00    -0.029 A 
ATOM      9  C   UNL     1      -1.881  11.738  -0.384  0.00  0.00    +0.005 A 
ATOM     10  C   UNL     1      -0.588  12.187  -0.188  0.00  0.00    +0.001 A 
ATOM     11  C   UNL     1       0.432  11.283   0.048  0.00  0.00    +0.005 A 
ATOM     12  C   UNL     1       0.162   9.929   0.089  0.00  0.00    -0.029 A 
ATOM     13  C   UNL     1      -1.136   9.476  -0.108  0.00  0.00    +0.041 A 
ATOM     14  C   UNL     1       1.274   8.945   0.347  0.00  0.00    +0.045 C 
ENDBRANCH   1  13
BRANCH   4  15
ATOM     15  N   UNL     1      -2.017   5.451  -0.129  0.00  0.00    -0.229 N 
ATOM     16  C   UNL     1      -2.332   4.140  -0.143  0.00  0.00    +0.269 C 
ATOM     17  O   UNL     1      -3.224   3.721   0.571  0.00  0.00    -0.268 OA
ATOM     18  H   UNL     1      -1.306   5.785  -0.698  0.00  0.00    +0.173 HD
BRANCH  16  19
ATOM     19  C   UNL     1      -1.603   3.223  -1.016  0.00  0.00    +0.099 A 
ATOM     20  C   UNL     1      -1.772   1.851  -1.186  0.00  0.00    +0.065 A 
ATOM     21  C   UNL     1      -0.932   1.228  -2.084  0.00  0.00    +0.034 A 
ATOM     22  C   UNL     1      -0.010   1.967  -2.751  0.00  0.00    +0.048 A 
ATOM     23  S   UNL     1      -0.268   3.571  -2.148  0.00  0.00    -0.090 S 
BRANCH  20  24
ATOM     24  N   UNL     1      -2.744   1.139  -0.476  0.00  0.00    -0.322 N 
ATOM     25  C   UNL     1      -2.938   1.188   0.876  0.00  0.00    +0.091 A 
ATOM     26  C   UNL     1      -3.966   0.370   1.183  0.00  0.00    +0.019 A 
ATOM     27  C   UNL     1      -4.416  -0.213  -0.019  0.00  0.00    +0.019 A 
ATOM     28  C   UNL     1      -3.652   0.274  -1.017  0.00  0.00    +0.091 A 
ENDBRANCH  20  24
ENDBRANCH  16  19
ENDBRANCH   4  15
TORSDOF 4
