REMARK  Name = ZINC00718063
REMARK  3 active torsions:
REMARK  status: ('A' for Active; 'I' for Inactive)
REMARK    1  A    between atoms: C_1  and  C_2
REMARK    2  A    between atoms: C_5  and  C_7
REMARK    3  A    between atoms: C_12  and  C_17
REMARK                            x       y       z     vdW  Elec       q    Type
REMARK                         _______ _______ _______ _____ _____    ______ ____
ROOT
ATOM      1  C   UNL     1       0.516   5.870   1.347  0.00  0.00    +0.172 C 
ATOM      2  C   UNL     1       1.997   5.654   1.542  0.00  0.00    +0.039 C 
ATOM      3  C   UNL     1       2.761   4.771   0.875  0.00  0.00    +0.017 C 
ATOM      4  C   UNL     1       4.248   4.662   1.163  0.00  0.00    +0.060 C 
ATOM      5  C   UNL     1       4.521   4.982   2.631  0.00  0.00    +0.033 C 
ATOM      6  C   UNL     1       4.024   6.408   2.898  0.00  0.00    +0.088 C 
ATOM      7  C   UNL     1       2.572   6.484   2.533  0.00  0.00    +0.163 C 
ATOM      8  O   UNL     1       1.864   7.287   3.109  0.00  0.00    -0.292 OA
ATOM      9  N   UNL     1       2.302   3.933  -0.089  0.00  0.00    -0.316 N 
ATOM     10  C   UNL     1       1.149   3.165   0.008  0.00  0.00    +0.052 A 
ATOM     11  C   UNL     1       1.179   1.781   0.000  0.00  0.00    +0.025 A 
ATOM     12  C   UNL     1      -0.013   1.076   0.008  0.00  0.00    +0.002 A 
ATOM     13  C   UNL     1      -1.222   1.747   0.017  0.00  0.00    +0.002 A 
ATOM     14  C   UNL     1      -1.254   3.131   0.049  0.00  0.00    +0.025 A 
ATOM     15  C   UNL     1      -0.063   3.838   0.059  0.00  0.00    +0.049 A 
ATOM     16  N   UNL     1      -0.039   5.228   0.174  0.00  0.00    -0.329 N 
ATOM     17  H   UNL     1       2.819   3.864  -0.907  0.00  0.00    +0.152 HD
ATOM     18  H   UNL     1      -0.399   5.773  -0.543  0.00  0.00    +0.147 HD
ENDROOT
BRANCH   5  19
ATOM     19  C   UNL     1       6.000   4.896   2.907  0.00  0.00    -0.025 A 
ATOM     20  C   UNL     1       6.879   5.715   2.224  0.00  0.00    +0.005 A 
ATOM     21  C   UNL     1       8.236   5.636   2.477  0.00  0.00    +0.000 A 
ATOM     22  C   UNL     1       8.714   4.738   3.413  0.00  0.00    +0.001 A 
ATOM     23  C   UNL     1       7.836   3.919   4.097  0.00  0.00    +0.020 A 
ATOM     24  C   UNL     1       6.477   4.001   3.848  0.00  0.00    +0.044 A 
ATOM     25 CL   UNL     1       5.372   2.978   4.712  0.00  0.00    -0.083 Cl
ENDBRANCH   5  19
BRANCH   1  30
ATOM     26  C   UNL     1      -1.769   2.712   4.548  0.00  0.00    +0.086 C 
ATOM     27  C   UNL     1      -1.200   3.975   3.954  0.00  0.00    +0.102 A 
ATOM     28  C   UNL     1      -1.224   5.193   4.524  0.00  0.00    +0.045 A 
ATOM     29  C   UNL     1      -0.584   6.078   3.627  0.00  0.00    +0.047 A 
ATOM     30  C   UNL     1      -0.206   5.348   2.562  0.00  0.00    +0.130 A 
ATOM     31  O   UNL     1      -0.587   4.076   2.763  0.00  0.00    -0.463 OA
ENDBRANCH   1  30
TORSDOF 2
