REMARK  Name = ZINC67577339
REMARK  7 active torsions:
REMARK  status: ('A' for Active; 'I' for Inactive)
REMARK    1  A    between atoms: C_1  and  C_2
REMARK    2  A    between atoms: C_2  and  S_3
REMARK    3  A    between atoms: S_3  and  C_4
REMARK    4  A    between atoms: C_9  and  N_10
REMARK    5  A    between atoms: N_13  and  C_14
REMARK    6  A    between atoms: C_14  and  C_16
REMARK    7  A    between atoms: C_14  and  C_17
REMARK                            x       y       z     vdW  Elec       q    Type
REMARK                         _______ _______ _______ _____ _____    ______ ____
ROOT
ATOM      1  N   UNL     1       1.986  -2.551  -3.451  0.00  0.00    -0.268 N 
ATOM      2  C   UNL     1       2.621  -3.319  -4.359  0.00  0.00    +0.304 C 
ATOM      3  O   UNL     1       2.580  -4.530  -4.265  0.00  0.00    -0.252 OA
ATOM      4  N   UNL     1       3.301  -2.743  -5.370  0.00  0.00    -0.288 N 
ATOM      5  H   UNL     1       1.948  -1.589  -3.571  0.00  0.00    +0.156 HD
ATOM      6  H   UNL     1       3.333  -1.777  -5.445  0.00  0.00    +0.151 HD
ENDROOT
BRANCH   1  12
ATOM      7  C   UNL     1       0.326  -2.496  -1.686  0.00  0.00    +0.029 A 
ATOM      8  C   UNL     1      -0.275  -3.090  -0.586  0.00  0.00    +0.018 A 
ATOM      9  C   UNL     1       0.173  -4.316  -0.131  0.00  0.00    +0.021 A 
ATOM     10  C   UNL     1       1.221  -4.954  -0.770  0.00  0.00    +0.043 A 
ATOM     11  C   UNL     1       1.826  -4.369  -1.868  0.00  0.00    +0.044 A 
ATOM     12  C   UNL     1       1.378  -3.143  -2.335  0.00  0.00    +0.050 A 
ATOM     13 CL   UNL     1       1.779  -6.493  -0.192  0.00  0.00    -0.083 Cl
BRANCH   7  14
ATOM     14  S   UNL     1      -0.243  -0.933  -2.268  0.00  0.00    -0.124 S 
BRANCH  14  16
ATOM     15  C   UNL     1      -2.183   0.848  -1.527  0.00  0.00    +0.015 C 
ATOM     16  C   UNL     1      -1.591  -0.506  -1.131  0.00  0.00    +0.071 C 
ENDBRANCH  14  16
ENDBRANCH   7  14
ENDBRANCH   1  12
BRANCH   4  17
ATOM     17  C   UNL     1       3.991  -3.578  -6.357  0.00  0.00    +0.157 C 
ATOM     18  C   UNL     1       3.006  -3.995  -7.451  0.00  0.00    +0.038 C 
BRANCH  17  19
ATOM     19  C   UNL     1       5.124  -2.796  -6.971  0.00  0.00    +0.236 C 
ATOM     20  O   UNL     1       5.082  -1.584  -6.994  0.00  0.00    -0.274 OA
ATOM     21  N   UNL     1       6.183  -3.444  -7.495  0.00  0.00    -0.300 N 
ATOM     22  C   UNL     1       6.196  -4.911  -7.581  0.00  0.00    +0.108 C 
ATOM     23  C   UNL     1       6.493  -5.318  -9.027  0.00  0.00    +0.019 C 
ATOM     24  C   UNL     1       7.792  -4.650  -9.485  0.00  0.00    +0.003 C 
ATOM     25  C   UNL     1       7.630  -3.129  -9.434  0.00  0.00    +0.019 C 
ATOM     26  C   UNL     1       7.344  -2.696  -7.998  0.00  0.00    +0.108 C 
ENDBRANCH  17  19
ENDBRANCH   4  17
TORSDOF 5
