REMARK  Name = ZINC22883446
REMARK  10 active torsions:
REMARK  status: ('A' for Active; 'I' for Inactive)
REMARK    1  A    between atoms: C_1  and  C_2
REMARK    2  A    between atoms: C_3  and  C_29
REMARK    3  A    between atoms: C_8  and  C_10
REMARK    4  A    between atoms: C_10  and  C_12
REMARK    5  A    between atoms: C_10  and  N_15
REMARK    6  A    between atoms: C_12  and  C_13
REMARK    7  A    between atoms: C_12  and  C_14
REMARK    8  A    between atoms: N_15  and  S_16
REMARK    9  A    between atoms: S_16  and  C_19
REMARK   10  A    between atoms: N_33  and  C_34
REMARK                            x       y       z     vdW  Elec       q    Type
REMARK                         _______ _______ _______ _____ _____    ______ ____
ROOT
ATOM      1  C   UNL     1       4.544   0.070  -2.555  0.00  0.00    +0.165 C 
ENDROOT
BRANCH   1   9
ATOM      2  C   UNL     1       1.491  -1.174  -8.377  0.00  0.00    +0.067 C 
ATOM      3  C   UNL     1       2.248  -0.017  -7.779  0.00  0.00    +0.058 A 
ATOM      4  C   UNL     1       2.442   1.143  -8.488  0.00  0.00    +0.079 A 
ATOM      5  S   UNL     1       3.370   2.104  -7.301  0.00  0.00    -0.049 S 
ATOM      6  C   UNL     1       3.408   0.920  -6.032  0.00  0.00    +0.165 A 
ATOM      7  N   UNL     1       2.747  -0.090  -6.567  0.00  0.00    -0.229 NA
ATOM      8  N   UNL     1       3.990   1.010  -4.775  0.00  0.00    -0.263 N 
ATOM      9  C   UNL     1       3.912  -0.028  -3.920  0.00  0.00    +0.238 C 
ATOM     10  O   UNL     1       3.332  -1.041  -4.248  0.00  0.00    -0.274 OA
ATOM     11  H   UNL     1       4.516   1.930  -4.478  0.00  0.00    +0.157 HD
BRANCH   4  12
ATOM     12  C   UNL     1       2.007   1.496  -9.848  0.00  0.00    +0.149 A 
ATOM     13  N   UNL     1       1.320   0.723 -10.664  0.00  0.00    -0.235 NA
ATOM     14  C   UNL     1       1.105   1.374 -11.814  0.00  0.00    +0.131 A 
ATOM     15  C   UNL     1       1.671   2.594 -11.726  0.00  0.00    +0.107 A 
ATOM     16  N   UNL     1       2.241   2.684 -10.481  0.00  0.00    -0.333 N 
ATOM     17  C   UNL     1       2.966   3.834  -9.935  0.00  0.00    +0.150 C 
ENDBRANCH   4  12
ENDBRANCH   1   9
BRANCH   1  18
ATOM     18  C   UNL     1       6.048   0.312  -2.707  0.00  0.00    +0.010 C 
ATOM     19  C   UNL     1       6.671   0.525  -1.326  0.00  0.00    +0.009 C 
ATOM     20  C   UNL     1       6.694  -0.902  -3.376  0.00  0.00    +0.009 C 
ENDBRANCH   1  18
BRANCH   1  21
ATOM     21  N   UNL     1       4.322  -1.179  -1.823  0.00  0.00    -0.178 NA
ATOM     22  H   UNL     1       4.632  -2.138  -2.263  0.00  0.00    +0.149 HD
BRANCH  21  23
ATOM     23  S   UNL     1       3.388  -1.181  -0.455  0.00  0.00    +0.059 S 
ATOM     24  O   UNL     1       3.880  -0.138   0.374  0.00  0.00    -0.153 OA
ATOM     25  O   UNL     1       3.312  -2.531  -0.018  0.00  0.00    -0.153 OA
BRANCH  23  26
ATOM     26  C   UNL     1       1.758  -0.715  -0.936  0.00  0.00    +0.109 A 
ATOM     27  C   UNL     1       0.846  -1.683  -1.313  0.00  0.00    +0.032 A 
ATOM     28  C   UNL     1      -0.433  -1.322  -1.691  0.00  0.00    +0.051 A 
ATOM     29  C   UNL     1      -0.805   0.014  -1.694  0.00  0.00    +0.162 A 
ATOM     30  C   UNL     1       0.111   0.988  -1.313  0.00  0.00    +0.164 A 
ATOM     31  C   UNL     1       1.393   0.618  -0.935  0.00  0.00    +0.078 A 
ATOM     32  O   UNL     1      -0.236   2.304  -1.301  0.00  0.00    -0.485 OA
ATOM     33  C   UNL     1      -1.407   2.667  -2.041  0.00  0.00    +0.270 C 
ATOM     34  C   UNL     1      -2.518   1.663  -1.707  0.00  0.00    +0.270 C 
ATOM     35  O   UNL     1      -2.065   0.356  -2.078  0.00  0.00    -0.485 OA
ENDBRANCH  23  26
ENDBRANCH  21  23
ENDBRANCH   1  21
TORSDOF 6
