REMARK  Name = ZINC03231285
REMARK  6 active torsions:
REMARK  status: ('A' for Active; 'I' for Inactive)
REMARK    1  A    between atoms: C_1  and  N_56
REMARK    2  A    between atoms: C_2  and  N_3
REMARK    3  A    between atoms: C_2  and  N_56
REMARK    4  A    between atoms: N_6  and  C_19
REMARK    5  A    between atoms: C_7  and  C_9
REMARK    6  A    between atoms: C_25  and  N_56
REMARK                            x       y       z     vdW  Elec       q    Type
REMARK                         _______ _______ _______ _____ _____    ______ ____
ROOT
ATOM      1  N   UNL     1       1.635   9.476   0.040  0.00  0.00    -0.257 N 
ATOM      2  C   UNL     1       2.936   9.121   0.025  0.00  0.00    +0.181 A 
ATOM      3  S   UNL     1       4.274  10.188   0.018  0.00  0.00    -0.011 S 
ATOM      4  N   UNL     1       2.993   7.774   0.021  0.00  0.00    -0.271 N 
ATOM      5  C   UNL     1       1.698   7.286   0.026  0.00  0.00    +0.175 A 
ATOM      6  N   UNL     1       0.874   8.299   0.040  0.00  0.00    -0.151 NA
ENDROOT
BRANCH   5   7
ATOM      7  C   UNL     1       1.314   5.864   0.021  0.00  0.00    +0.076 A 
ATOM      8  C   UNL     1       0.067   5.329   0.030  0.00  0.00    +0.066 A 
ATOM      9  C   UNL     1      -0.080   3.885   0.024  0.00  0.00    +0.008 A 
ATOM     10  C   UNL     1      -1.271   3.117   0.032  0.00  0.00    +0.010 A 
ATOM     11  C   UNL     1      -1.222   1.759   0.017  0.00  0.00    +0.001 A 
ATOM     12  C   UNL     1      -0.013   1.076   0.008  0.00  0.00    +0.001 A 
ATOM     13  C   UNL     1       1.171   1.787   0.001  0.00  0.00    +0.016 A 
ATOM     14  C   UNL     1       1.136   3.165   0.008  0.00  0.00    +0.021 A 
ATOM     15  S   UNL     1       2.377   4.433   0.003  0.00  0.00    -0.084 S 
ATOM     16 CL   UNL     1      -1.332   6.357   0.050  0.00  0.00    -0.082 Cl
ENDBRANCH   5   7
BRANCH   4  17
ATOM     17  C   UNL     1       4.162   7.002   0.012  0.00  0.00    +0.050 A 
ATOM     18  C   UNL     1       4.471   6.194   1.098  0.00  0.00    +0.026 A 
ATOM     19  C   UNL     1       5.622   5.430   1.083  0.00  0.00    +0.002 A 
ATOM     20  C   UNL     1       6.471   5.478  -0.007  0.00  0.00    +0.000 A 
ATOM     21  C   UNL     1       6.169   6.285  -1.088  0.00  0.00    +0.002 A 
ATOM     22  C   UNL     1       5.017   7.048  -1.081  0.00  0.00    +0.026 A 
ENDBRANCH   4  17
BRANCH   1  23
ATOM     23  C   UNL     1       1.112  10.844   0.053  0.00  0.00    +0.072 C 
BRANCH  23  25
ATOM     24  C   UNL     1       2.253  11.411   2.112  0.00  0.00    -0.093 C 
ATOM     25  N   UNL     1       0.936  11.274   1.456  0.00  0.00    +0.393 N 
ATOM     26  H   UNL     1       0.387  10.564   1.956  0.00  0.00    -0.079 HD
BRANCH  25  27
ATOM     27  C   UNL     1       0.212  12.561   1.504  0.00  0.00    -0.066 C 
ATOM     28  C   UNL     1       1.034  13.664   0.834  0.00  0.00    -0.015 C 
ATOM     29  C   UNL     1       0.264  14.985   0.898  0.00  0.00    -0.002 C 
ATOM     30  C   UNL     1       0.008  15.356   2.360  0.00  0.00    -0.000 C 
ATOM     31  C   UNL     1      -0.814  14.253   3.030  0.00  0.00    -0.002 C 
ATOM     32  C   UNL     1      -0.044  12.933   2.966  0.00  0.00    -0.015 C 
ENDBRANCH  25  27
ENDBRANCH  23  25
ENDBRANCH   1  23
TORSDOF 5
