REMARK  Name = ZINC12587711
REMARK  4 active torsions:
REMARK  status: ('A' for Active; 'I' for Inactive)
REMARK    1  A    between atoms: C_5  and  C_7
REMARK    2  A    between atoms: N_8  and  C_9
REMARK    3  A    between atoms: C_11  and  S_16
REMARK    4  A    between atoms: S_16  and  N_19
REMARK                            x       y       z     vdW  Elec       q    Type
REMARK                         _______ _______ _______ _____ _____    ______ ____
ROOT
ATOM      1  C   UNL     1      -3.679  -0.173   0.018  0.00  0.00    +0.084 A 
ATOM      2  C   UNL     1      -4.757   0.272  -0.750  0.00  0.00    +0.057 A 
ATOM      3  C   UNL     1      -5.942  -0.433  -0.744  0.00  0.00    +0.108 A 
ATOM      4  C   UNL     1      -6.066  -1.579   0.021  0.00  0.00    +0.030 A 
ATOM      5  C   UNL     1      -5.003  -2.027   0.786  0.00  0.00    +0.024 A 
ATOM      6  C   UNL     1      -3.809  -1.335   0.785  0.00  0.00    +0.066 A 
ATOM      7 CL   UNL     1      -2.473  -1.902   1.738  0.00  0.00    -0.081 Cl
ENDROOT
BRANCH   3   8
ATOM      8  S   UNL     1      -7.303   0.127  -1.713  0.00  0.00    +0.061 S 
ATOM      9  O   UNL     1      -8.476  -0.403  -1.111  0.00  0.00    -0.153 OA
ATOM     10  O   UNL     1      -7.113   1.521  -1.913  0.00  0.00    -0.153 OA
BRANCH   8  11
ATOM     11  N   UNL     1      -7.171  -0.587  -3.201  0.00  0.00    -0.177 NA
ATOM     12  C   UNL     1      -6.426   0.098  -4.235  0.00  0.00    +0.109 C 
ATOM     13  C   UNL     1      -7.363   1.034  -5.026  0.00  0.00    +0.017 C 
ATOM     14  C   UNL     1      -8.279   0.247  -5.867  0.00  0.00    +0.001 C 
ATOM     15  C   UNL     1      -9.222  -0.664  -5.087  0.00  0.00    +0.001 C 
ATOM     16  C   UNL     1      -8.525  -1.968  -4.789  0.00  0.00    +0.017 C 
ATOM     17  C   UNL     1      -7.823  -1.893  -3.421  0.00  0.00    +0.109 C 
ENDBRANCH   8  11
ENDBRANCH   3   8
BRANCH   1  19
ATOM     18  C   UNL     1      -2.512   1.824   0.024  0.00  0.00    +0.120 C 
ATOM     19  N   UNL     1      -2.500   0.521   0.017  0.00  0.00    -0.253 NA
BRANCH  18  24
ATOM     20  C   UNL     1      -0.059   4.663   0.028  0.00  0.00    +0.001 A 
ATOM     21  C   UNL     1       1.144   3.978   0.013  0.00  0.00    +0.001 A 
ATOM     22  C   UNL     1       1.161   2.595   0.005  0.00  0.00    +0.016 A 
ATOM     23  C   UNL     1      -0.024   1.887   0.012  0.00  0.00    +0.026 A 
ATOM     24  C   UNL     1      -1.243   2.572   0.022  0.00  0.00    +0.007 A 
ATOM     25  C   UNL     1      -1.251   3.970   0.035  0.00  0.00    +0.010 A 
ATOM     26 BR   UNL     1       0.002  -0.004   0.002  0.00  0.00    -0.050 Br
ENDBRANCH  18  24
ENDBRANCH   1  19
TORSDOF 4
