REMARK  Name = ZINC06752972
REMARK  7 active torsions:
REMARK  status: ('A' for Active; 'I' for Inactive)
REMARK    1  A    between atoms: C_1  and  C_2
REMARK    2  A    between atoms: C_2  and  C_3
REMARK    3  A    between atoms: C_3  and  C_4
REMARK    4  A    between atoms: C_4  and  N_5
REMARK    5  A    between atoms: C_6  and  C_23
REMARK    6  A    between atoms: C_9  and  C_16
REMARK    7  A    between atoms: C_21  and  O_22
REMARK                            x       y       z     vdW  Elec       q    Type
REMARK                         _______ _______ _______ _____ _____    ______ ____
ROOT
ATOM      1  N   UNL     1      -2.787  -2.571   0.015  0.00  0.00    -0.285 N 
ATOM      2  C   UNL     1      -3.585  -2.869   1.211  0.00  0.00    +0.141 C 
ATOM      3  C   UNL     1      -4.917  -3.358   0.712  0.00  0.00    +0.035 A 
ATOM      4  C   UNL     1      -6.195  -3.830   1.031  0.00  0.00    +0.102 A 
ATOM      5  N   UNL     1      -6.825  -4.058  -0.105  0.00  0.00    -0.173 NA
ATOM      6  N   UNL     1      -6.073  -3.777  -1.108  0.00  0.00    -0.272 N 
ATOM      7  H   UNL     1      -6.329  -3.867  -2.039  0.00  0.00    +0.189 HD
ATOM      8  C   UNL     1      -4.859  -3.331  -0.668  0.00  0.00    +0.126 A 
ATOM      9  C   UNL     1      -3.537  -2.837  -1.070  0.00  0.00    +0.265 C 
ATOM     10  O   UNL     1      -3.170  -2.691  -2.220  0.00  0.00    -0.268 OA
ENDROOT
BRANCH   2  11
ATOM     11  C   UNL     1      -3.765  -1.623   2.039  0.00  0.00    -0.021 A 
ATOM     12  C   UNL     1      -4.006  -0.411   1.419  0.00  0.00    +0.007 A 
ATOM     13  C   UNL     1      -4.171   0.733   2.177  0.00  0.00    +0.022 A 
ATOM     14  C   UNL     1      -4.095   0.666   3.557  0.00  0.00    +0.059 A 
ATOM     15  C   UNL     1      -3.854  -0.548   4.178  0.00  0.00    +0.060 A 
ATOM     16  C   UNL     1      -3.694  -1.693   3.417  0.00  0.00    +0.027 A 
ATOM     17 CL   UNL     1      -3.758  -0.634   5.909  0.00  0.00    -0.082 Cl
ATOM     18 CL   UNL     1      -4.302   2.102   4.509  0.00  0.00    -0.082 Cl
ENDBRANCH   2  11
BRANCH   4  19
ATOM     19  C   UNL     1      -6.740  -4.037   2.395  0.00  0.00    +0.044 A 
ATOM     20  C   UNL     1      -5.959  -3.749   3.512  0.00  0.00    +0.014 A 
ATOM     21  C   UNL     1      -6.471  -3.942   4.779  0.00  0.00    +0.001 A 
ATOM     22  C   UNL     1      -7.757  -4.423   4.945  0.00  0.00    +0.004 A 
ATOM     23  C   UNL     1      -8.540  -4.713   3.844  0.00  0.00    +0.046 A 
ATOM     24  C   UNL     1      -8.041  -4.518   2.566  0.00  0.00    +0.126 A 
BRANCH  24  25
ATOM     25  O   UNL     1      -8.812  -4.797   1.483  0.00  0.00    -0.506 OA
ATOM     26  H   UNL     1      -8.730  -5.707   1.166  0.00  0.00    +0.292 HD
ENDBRANCH  24  25
ENDBRANCH   4  19
BRANCH   1  27
ATOM     27  C   UNL     1      -1.413  -2.063   0.004  0.00  0.00    +0.109 C 
BRANCH  27  28
ATOM     28  C   UNL     1      -1.433  -0.534   0.013  0.00  0.00    +0.019 C 
BRANCH  28  30
ATOM     29  C   UNL     1      -0.019   1.526   0.010  0.00  0.00    +0.004 C 
ATOM     30  C   UNL     1       0.002  -0.004   0.002  0.00  0.00    -0.002 C 
ENDBRANCH  28  30
ENDBRANCH  27  28
ENDBRANCH   1  27
TORSDOF 6
