REMARK  Name = ZINC62734838
REMARK  9 active torsions:
REMARK  status: ('A' for Active; 'I' for Inactive)
REMARK    1  A    between atoms: C_1  and  C_2
REMARK    2  A    between atoms: C_2  and  N_3
REMARK    3  A    between atoms: N_6  and  C_9
REMARK    4  A    between atoms: C_14  and  C_15
REMARK    5  A    between atoms: C_15  and  N_16
REMARK    6  A    between atoms: N_16  and  C_17
REMARK    7  A    between atoms: C_17  and  C_18
REMARK    8  A    between atoms: C_18  and  C_19
REMARK    9  A    between atoms: C_18  and  C_20
REMARK                            x       y       z     vdW  Elec       q    Type
REMARK                         _______ _______ _______ _____ _____    ______ ____
ROOT
ATOM      1  C   UNL     1      -4.345  -2.849  -1.669  0.00  0.00    +0.032 A 
ATOM      2  C   UNL     1      -3.789  -3.461  -2.784  0.00  0.00    +0.038 A 
ATOM      3  C   UNL     1      -4.555  -4.311  -3.558  0.00  0.00    +0.020 A 
ATOM      4  C   UNL     1      -5.875  -4.553  -3.222  0.00  0.00    +0.015 A 
ATOM      5  C   UNL     1      -6.432  -3.946  -2.112  0.00  0.00    +0.004 A 
ATOM      6  C   UNL     1      -5.669  -3.098  -1.331  0.00  0.00    -0.043 A 
ATOM      7 BR   UNL     1      -3.799  -5.146  -5.077  0.00  0.00    -0.050 Br
ENDROOT
BRANCH   1  11
ATOM      8  N   UNL     1      -1.376  -0.512   0.012  0.00  0.00    +0.382 N 
ATOM      9  C   UNL     1      -2.051  -0.116  -1.230  0.00  0.00    -0.060 C 
ATOM     10  C   UNL     1      -3.521  -0.546  -1.171  0.00  0.00    +0.086 C 
ATOM     11  N   UNL     1      -3.574  -1.988  -0.884  0.00  0.00    -0.333 N 
ATOM     12  C   UNL     1      -2.790  -2.499   0.251  0.00  0.00    +0.086 C 
ATOM     13  C   UNL     1      -1.355  -1.976   0.125  0.00  0.00    -0.060 C 
ATOM     14  H   UNL     1      -1.871  -0.123   0.801  0.00  0.00    -0.082 HD
BRANCH   8  16
ATOM     15  C   UNL     1      -0.019   1.526   0.010  0.00  0.00    -0.017 C 
ATOM     16  C   UNL     1       0.002  -0.004   0.002  0.00  0.00    -0.082 C 
ENDBRANCH   8  16
ENDBRANCH   1  11
BRANCH   6  17
ATOM     17  C   UNL     1      -6.275  -2.441  -0.118  0.00  0.00    -0.045 C 
BRANCH  17  18
ATOM     18  N   UNL     1      -6.658  -1.062  -0.448  0.00  0.00    +0.382 N 
ATOM     19  H   UNL     1      -5.841  -0.546  -0.737  0.00  0.00    -0.085 HD
ATOM     20  H   UNL     1      -7.333  -1.071  -1.198  0.00  0.00    -0.085 HD
BRANCH  18  21
ATOM     21  C   UNL     1      -7.249  -0.421   0.735  0.00  0.00    -0.079 C 
BRANCH  21  22
ATOM     22  C   UNL     1      -7.648   1.015   0.391  0.00  0.00    -0.034 C 
ATOM     23  C   UNL     1      -8.375   1.642   1.583  0.00  0.00    +0.005 C 
ATOM     24  C   UNL     1      -6.393   1.831   0.073  0.00  0.00    +0.005 C 
ENDBRANCH  21  22
ENDBRANCH  18  21
ENDBRANCH  17  18
ENDBRANCH   6  17
TORSDOF 6
