REMARK  Name = ZINC12799242
REMARK  5 active torsions:
REMARK  status: ('A' for Active; 'I' for Inactive)
REMARK    1  A    between atoms: C_1  and  C_2
REMARK    2  A    between atoms: C_2  and  C_25
REMARK    3  A    between atoms: N_5  and  C_9
REMARK    4  A    between atoms: C_9  and  N_10
REMARK    5  A    between atoms: C_13  and  C_16
REMARK                            x       y       z     vdW  Elec       q    Type
REMARK                         _______ _______ _______ _____ _____    ______ ____
ROOT
ATOM      1  C   UNL     1       1.677   1.868  -0.851  0.00  0.00    +0.047 C 
ATOM      2  C   UNL     1       0.950   1.370   0.400  0.00  0.00    +0.135 C 
ATOM      3  C   UNL     1       0.534  -0.078   0.234  0.00  0.00    +0.252 C 
ATOM      4  O   UNL     1       1.260  -1.033   0.059  0.00  0.00    -0.272 OA
ATOM      5  N   UNL     1      -0.811  -0.083   0.320  0.00  0.00    -0.210 N 
ATOM      6  C   UNL     1      -1.297   1.148   0.515  0.00  0.00    +0.311 C 
ATOM      7  O   UNL     1      -2.482   1.398   0.620  0.00  0.00    -0.252 OA
ATOM      8  N   UNL     1      -0.329   2.080   0.577  0.00  0.00    -0.281 N 
ATOM      9  H   UNL     1      -0.338   3.170   0.723  0.00  0.00    +0.152 HD
ENDROOT
BRANCH   2  10
ATOM     10  C   UNL     1       1.821   1.535   1.619  0.00  0.00    -0.015 A 
ATOM     11  C   UNL     1       2.624   0.492   2.041  0.00  0.00    +0.007 A 
ATOM     12  C   UNL     1       3.426   0.644   3.156  0.00  0.00    +0.015 A 
ATOM     13  C   UNL     1       3.418   1.837   3.855  0.00  0.00    +0.018 A 
ATOM     14  C   UNL     1       2.611   2.880   3.436  0.00  0.00    +0.015 A 
ATOM     15  C   UNL     1       1.813   2.728   2.318  0.00  0.00    +0.007 A 
ATOM     16 BR   UNL     1       4.511   2.045   5.385  0.00  0.00    -0.050 Br
ENDBRANCH   2  10
BRANCH   5  17
ATOM     17  C   UNL     1      -1.638  -1.287   0.212  0.00  0.00    +0.205 C 
BRANCH  17  18
ATOM     18  N   UNL     1      -2.003  -1.506  -1.194  0.00  0.00    -0.286 NA
ATOM     19  C   UNL     1      -0.954  -1.009  -2.093  0.00  0.00    +0.086 C 
ATOM     20  C   UNL     1      -1.429  -1.120  -3.544  0.00  0.00    +0.028 C 
ATOM     21  C   UNL     1      -1.747  -2.584  -3.861  0.00  0.00    +0.078 C 
ATOM     22  C   UNL     1      -2.807  -3.092  -2.879  0.00  0.00    +0.028 C 
ATOM     23  C   UNL     1      -2.292  -2.924  -1.448  0.00  0.00    +0.086 C 
BRANCH  21  24
ATOM     24  C   UNL     1      -2.272  -2.692  -5.269  0.00  0.00    +0.219 C 
ATOM     25  O   UNL     1      -3.462  -2.824  -5.464  0.00  0.00    -0.275 OA
ATOM     26  N   UNL     1      -1.419  -2.643  -6.312  0.00  0.00    -0.301 N 
ATOM     27  C   UNL     1      -1.962  -2.650  -7.652  0.00  0.00    +0.108 C 
ATOM     28  C   UNL     1      -2.117  -4.103  -8.148  0.00  0.00    +0.019 C 
ATOM     29  C   UNL     1      -0.797  -4.693  -8.417  0.00  0.00    +0.002 C 
ATOM     30  C   UNL     1       0.103  -4.805  -7.190  0.00  0.00    +0.002 C 
ATOM     31  C   UNL     1       0.833  -3.501  -6.985  0.00  0.00    +0.019 C 
ATOM     32  C   UNL     1       0.030  -2.589  -6.039  0.00  0.00    +0.108 C 
ENDBRANCH  21  24
ENDBRANCH  17  18
ENDBRANCH   5  17
TORSDOF 4
