REMARK  Name = ZINC40783355
REMARK  5 active torsions:
REMARK  status: ('A' for Active; 'I' for Inactive)
REMARK    1  A    between atoms: C_6  and  O_7
REMARK    2  A    between atoms: O_7  and  C_8
REMARK    3  A    between atoms: C_9  and  N_23
REMARK    4  A    between atoms: C_10  and  N_14
REMARK    5  A    between atoms: N_14  and  C_15
REMARK                            x       y       z     vdW  Elec       q    Type
REMARK                         _______ _______ _______ _____ _____    ______ ____
ROOT
ATOM      1  C   UNL     1      -1.105  -2.053  -0.064  0.00  0.00    +0.246 A 
ATOM      2  C   UNL     1      -2.270  -2.810  -0.179  0.00  0.00    +0.128 A 
ATOM      3  C   UNL     1      -2.147  -4.195  -0.316  0.00  0.00    +0.151 A 
ATOM      4  N   UNL     1      -0.930  -4.735  -0.330  0.00  0.00    -0.218 NA
ATOM      5  C   UNL     1       0.145  -3.982  -0.217  0.00  0.00    +0.227 A 
ATOM      6  N   UNL     1       0.071  -2.673  -0.092  0.00  0.00    -0.199 NA
ENDROOT
BRANCH   2   7
ATOM      7  N   UNL     1      -3.532  -2.197  -0.159  0.00  0.00    -0.351 N 
ATOM      8  H   UNL     1      -3.603  -1.234  -0.063  0.00  0.00    +0.143 HD
ATOM      9  H   UNL     1      -4.335  -2.736  -0.240  0.00  0.00    +0.143 HD
ENDBRANCH   2   7
BRANCH   3  10
ATOM     10  N   UNL     1      -3.276  -4.996  -0.434  0.00  0.00    -0.297 N 
ATOM     11  H   UNL     1      -4.153  -4.589  -0.512  0.00  0.00    +0.154 HD
BRANCH  10  12
ATOM     12  C   UNL     1      -3.148  -6.389  -0.442  0.00  0.00    +0.051 A 
ATOM     13  C   UNL     1      -2.048  -6.990   0.156  0.00  0.00    +0.026 A 
ATOM     14  C   UNL     1      -1.924  -8.366   0.147  0.00  0.00    +0.022 A 
ATOM     15  C   UNL     1      -2.895  -9.146  -0.457  0.00  0.00    +0.042 A 
ATOM     16  C   UNL     1      -3.992  -8.550  -1.054  0.00  0.00    +0.041 A 
ATOM     17  C   UNL     1      -4.124  -7.175  -1.044  0.00  0.00    +0.063 A 
ATOM     18 CL   UNL     1      -5.505  -6.429  -1.786  0.00  0.00    -0.082 Cl
ATOM     19 CL   UNL     1      -2.735 -10.874  -0.466  0.00  0.00    -0.083 Cl
ENDBRANCH  10  12
ENDBRANCH   3  10
BRANCH   1  20
ATOM     20  O   UNL     1      -1.170  -0.705   0.071  0.00  0.00    -0.436 OA
BRANCH  20  26
ATOM     21  C   UNL     1       0.783   0.031  -1.073  0.00  0.00    +0.047 A 
ATOM     22  C   UNL     1       1.967   0.742  -1.071  0.00  0.00    +0.019 A 
ATOM     23  C   UNL     1       2.370   1.415   0.069  0.00  0.00    +0.018 A 
ATOM     24  C   UNL     1       1.587   1.379   1.209  0.00  0.00    +0.019 A 
ATOM     25  C   UNL     1       0.402   0.669   1.212  0.00  0.00    +0.047 A 
ATOM     26  C   UNL     1      -0.004  -0.007   0.070  0.00  0.00    +0.130 A 
ATOM     27 BR   UNL     1       3.993   2.386   0.068  0.00  0.00    -0.050 Br
ENDBRANCH  20  26
ENDBRANCH   1  20
TORSDOF 5
