REMARK  Name = ZINC35890390
REMARK  4 active torsions:
REMARK  status: ('A' for Active; 'I' for Inactive)
REMARK    1  A    between atoms: C_1  and  C_2
REMARK    2  A    between atoms: N_11  and  C_12
REMARK    3  A    between atoms: C_12  and  C_13
REMARK    4  A    between atoms: C_25  and  C_28
REMARK                            x       y       z     vdW  Elec       q    Type
REMARK                         _______ _______ _______ _____ _____    ______ ____
ROOT
ATOM      1  C   UNL     1       0.506   1.263   0.152  0.00  0.00    +0.030 C 
ATOM      2  C   UNL     1       0.656  -0.253   0.014  0.00  0.00    +0.092 C 
ATOM      3  C   UNL     1       1.046  -0.603  -1.427  0.00  0.00    +0.130 C 
ATOM      4  N   UNL     1       1.437  -2.018  -1.478  0.00  0.00    -0.297 N 
ATOM      5  C   UNL     1       2.496  -2.494  -0.576  0.00  0.00    +0.127 C 
ATOM      6  C   UNL     1       2.105  -2.144   0.865  0.00  0.00    +0.128 C 
ATOM      7  N   UNL     1       1.712  -0.729   0.919  0.00  0.00    -0.280 N 
ATOM      8  C   UNL     1       2.312   0.118   1.779  0.00  0.00    +0.303 C 
ATOM      9  O   UNL     1       1.918   1.264   1.877  0.00  0.00    -0.253 OA
ATOM     10  N   UNL     1       3.348  -0.306   2.530  0.00  0.00    -0.296 N 
ATOM     11  C   UNL     1       0.823  -2.882  -2.352  0.00  0.00    +0.206 A 
ATOM     12  N   UNL     1       0.357  -2.408  -3.478  0.00  0.00    -0.215 NA
ATOM     13  C   UNL     1      -0.262  -3.197  -4.392  0.00  0.00    +0.079 A 
ATOM     14  C   UNL     1      -0.753  -2.673  -5.589  0.00  0.00    +0.048 A 
ATOM     15  C   UNL     1      -1.376  -3.503  -6.496  0.00  0.00    +0.043 A 
ATOM     16  C   UNL     1      -1.522  -4.860  -6.233  0.00  0.00    +0.021 A 
ATOM     17  C   UNL     1      -1.045  -5.399  -5.058  0.00  0.00    +0.015 A 
ATOM     18  C   UNL     1      -0.412  -4.577  -4.129  0.00  0.00    +0.045 A 
ATOM     19  C   UNL     1       0.115  -5.096  -2.862  0.00  0.00    +0.173 A 
ATOM     20  N   UNL     1       0.730  -4.205  -2.011  0.00  0.00    -0.250 N 
ATOM     21  C   UNL     1       1.125  -4.941  -0.935  0.00  0.00    +0.143 A 
ATOM     22  N   UNL     1       0.766  -6.179  -1.155  0.00  0.00    -0.133 NA
ATOM     23  N   UNL     1       0.162  -6.274  -2.288  0.00  0.00    -0.129 NA
ATOM     24 CL   UNL     1      -1.986  -2.847  -7.983  0.00  0.00    -0.083 Cl
ATOM     25  H   UNL     1       3.615  -1.238   2.506  0.00  0.00    +0.151 HD
ENDROOT
BRANCH  21  26
ATOM     26  C   UNL     1       1.844  -4.424   0.284  0.00  0.00    +0.058 C 
ATOM     27  C   UNL     1       3.328  -4.783   0.192  0.00  0.00    +0.011 C 
ATOM     28  C   UNL     1       4.058  -4.258   1.430  0.00  0.00    +0.001 C 
ATOM     29  C   UNL     1       3.456  -4.893   2.685  0.00  0.00    +0.000 C 
ATOM     30  C   UNL     1       1.972  -4.534   2.777  0.00  0.00    +0.001 C 
ATOM     31  C   UNL     1       1.242  -5.059   1.539  0.00  0.00    +0.011 C 
ENDBRANCH  21  26
BRANCH  10  32
ATOM     32  C   UNL     1       4.070   0.642   3.382  0.00  0.00    +0.132 C 
BRANCH  32  33
ATOM     33  C   UNL     1       5.174  -0.080   4.112  0.00  0.00    -0.016 C 
ATOM     34  C   UNL     1       6.409   0.348   4.019  0.00  0.00    +0.005 C 
ENDBRANCH  32  33
ENDBRANCH  10  32
TORSDOF 3
