REMARK  Name = ZINC12224695
REMARK  6 active torsions:
REMARK  status: ('A' for Active; 'I' for Inactive)
REMARK    1  A    between atoms: C_5  and  C_7
REMARK    2  A    between atoms: C_7  and  S_8
REMARK    3  A    between atoms: S_8  and  C_9
REMARK    4  A    between atoms: C_14  and  N_18
REMARK    5  A    between atoms: C_15  and  N_17
REMARK    6  A    between atoms: C_19  and  C_21
REMARK                            x       y       z     vdW  Elec       q    Type
REMARK                         _______ _______ _______ _____ _____    ______ ____
ROOT
ATOM      1  C   UNL     1      -3.314  -1.976  -1.410  0.00  0.00    +0.171 A 
ATOM      2  N   UNL     1      -4.065  -2.401  -2.465  0.00  0.00    -0.300 N 
ATOM      3  H   UNL     1      -3.776  -2.212  -3.371  0.00  0.00    +0.171 HD
ATOM      4  C   UNL     1      -5.210  -3.082  -2.252  0.00  0.00    +0.275 A 
ATOM      5  O   UNL     1      -5.888  -3.467  -3.191  0.00  0.00    -0.266 OA
ATOM      6  C   UNL     1      -5.607  -3.341  -0.931  0.00  0.00    +0.139 A 
ATOM      7  C   UNL     1      -4.803  -2.884   0.108  0.00  0.00    +0.146 A 
ATOM      8  N   UNL     1      -3.676  -2.219  -0.168  0.00  0.00    -0.207 NA
ENDROOT
BRANCH   6   9
ATOM      9  N   UNL     1      -6.795  -4.048  -0.664  0.00  0.00    -0.274 N 
ATOM     10  C   UNL     1      -7.976  -3.571  -1.102  0.00  0.00    +0.248 C 
ATOM     11  O   UNL     1      -8.009  -2.576  -1.801  0.00  0.00    -0.270 OA
ATOM     12  H   UNL     1      -6.763  -4.879  -0.164  0.00  0.00    +0.155 HD
BRANCH  10  13
ATOM     13  C   UNL     1      -9.233  -4.256  -0.734  0.00  0.00    +0.037 A 
ATOM     14  C   UNL     1      -9.198  -5.401   0.064  0.00  0.00    +0.014 A 
ATOM     15  C   UNL     1     -10.375  -6.033   0.409  0.00  0.00    +0.016 A 
ATOM     16  C   UNL     1     -11.587  -5.540  -0.043  0.00  0.00    +0.018 A 
ATOM     17  C   UNL     1     -11.627  -4.408  -0.839  0.00  0.00    +0.016 A 
ATOM     18  C   UNL     1     -10.458  -3.764  -1.187  0.00  0.00    +0.014 A 
ATOM     19 BR   UNL     1     -13.195  -6.416   0.430  0.00  0.00    -0.050 Br
ENDBRANCH  10  13
ENDBRANCH   6   9
BRANCH   7  20
ATOM     20  N   UNL     1      -5.165  -3.122   1.422  0.00  0.00    -0.341 N 
ATOM     21  H   UNL     1      -5.981  -3.608   1.620  0.00  0.00    +0.144 HD
ATOM     22  H   UNL     1      -4.603  -2.803   2.145  0.00  0.00    +0.144 HD
ENDBRANCH   7  20
BRANCH   1  23
ATOM     23  S   UNL     1      -1.823  -1.089  -1.716  0.00  0.00    -0.083 S 
BRANCH  23  24
ATOM     24  C   UNL     1      -1.277  -0.796  -0.015  0.00  0.00    +0.115 C 
BRANCH  24  29
ATOM     25  C   UNL     1       2.414  -0.004  -0.067  0.00  0.00    +0.000 A 
ATOM     26  C   UNL     1       2.401   1.378  -0.054  0.00  0.00    +0.003 A 
ATOM     27  C   UNL     1       1.199   2.058  -0.029  0.00  0.00    +0.038 A 
ATOM     28  C   UNL     1       0.006   1.355  -0.016  0.00  0.00    +0.127 A 
ATOM     29  C   UNL     1       0.020  -0.029  -0.028  0.00  0.00    -0.002 A 
ATOM     30  C   UNL     1       1.224  -0.708  -0.053  0.00  0.00    +0.007 A 
ATOM     31  F   UNL     1      -1.171   2.019   0.003  0.00  0.00    -0.205 F 
ENDBRANCH  24  29
ENDBRANCH  23  24
ENDBRANCH   1  23
TORSDOF 6
