REMARK  Name = ZINC03291253
REMARK  5 active torsions:
REMARK  status: ('A' for Active; 'I' for Inactive)
REMARK    1  A    between atoms: C_2  and  C_3
REMARK    2  A    between atoms: C_2  and  N_8
REMARK    3  A    between atoms: N_8  and  N_9
REMARK    4  A    between atoms: C_10  and  C_22
REMARK    5  A    between atoms: N_14  and  C_15
REMARK                            x       y       z     vdW  Elec       q    Type
REMARK                         _______ _______ _______ _____ _____    ______ ____
ROOT
ATOM      1  N   UNL     1       2.374   4.318   0.090  0.00  0.00    -0.239 N 
ATOM      2  C   UNL     1       1.232   3.704  -0.348  0.00  0.00    +0.078 A 
ATOM      3  C   UNL     1       0.089   4.414  -0.447  0.00  0.00    +0.076 A 
ATOM      4  S   UNL     1       0.604   6.032   0.105  0.00  0.00    -0.058 S 
ATOM      5  C   UNL     1       2.319   5.652   0.423  0.00  0.00    +0.169 A 
ATOM      6  N   UNL     1       3.280   6.441   0.863  0.00  0.00    -0.332 N 
ATOM      7  H   UNL     1       4.312   6.067   0.928  0.00  0.00    +0.168 HD
ENDROOT
BRANCH   2   8
ATOM      8  C   UNL     1       1.252   2.272  -0.715  0.00  0.00    +0.002 A 
ATOM      9  C   UNL     1       0.394   1.791  -1.705  0.00  0.00    +0.011 A 
ATOM     10  C   UNL     1       0.416   0.454  -2.044  0.00  0.00    +0.022 A 
ATOM     11  C   UNL     1       1.288  -0.411  -1.404  0.00  0.00    +0.059 A 
ATOM     12  C   UNL     1       2.142   0.060  -0.420  0.00  0.00    +0.060 A 
ATOM     13  C   UNL     1       2.128   1.396  -0.073  0.00  0.00    +0.031 A 
ATOM     14 CL   UNL     1       3.231  -1.031   0.377  0.00  0.00    -0.082 Cl
ATOM     15 CL   UNL     1       1.310  -2.092  -1.836  0.00  0.00    -0.082 Cl
ENDBRANCH   2   8
BRANCH   6  16
ATOM     16  C   UNL     1       2.993   7.725   1.238  0.00  0.00    +0.077 A 
ATOM     17  C   UNL     1       2.534   7.993   2.529  0.00  0.00    +0.028 A 
ATOM     18  C   UNL     1       2.250   9.291   2.902  0.00  0.00    +0.002 A 
ATOM     19  C   UNL     1       2.411  10.326   1.997  0.00  0.00    +0.003 A 
ATOM     20  C   UNL     1       2.861  10.069   0.714  0.00  0.00    +0.040 A 
ATOM     21  C   UNL     1       3.153   8.775   0.328  0.00  0.00    +0.147 A 
ATOM     22  F   UNL     1       3.591   8.525  -0.925  0.00  0.00    -0.203 F 
ENDBRANCH   6  16
BRANCH   1  23
ATOM     23  N   UNL     1       3.574   3.604   0.196  0.00  0.00    -0.251 N 
ATOM     24  H   UNL     1       3.914   2.971  -0.637  0.00  0.00    +0.173 HD
BRANCH  23  26
ATOM     25  C   UNL     1       3.864   4.352   2.423  0.00  0.00    +0.036 C 
ATOM     26  C   UNL     1       4.339   3.693   1.361  0.00  0.00    +0.054 C 
BRANCH  26  27
ATOM     27  C   UNL     1       5.670   3.062   1.419  0.00  0.00    +0.034 A 
ATOM     28  C   UNL     1       6.569   3.035   2.454  0.00  0.00    +0.017 A 
ATOM     29  C   UNL     1       7.764   2.375   2.274  0.00  0.00    +0.008 A 
ATOM     30  C   UNL     1       8.016   1.774   1.083  0.00  0.00    +0.046 A 
ATOM     31  S   UNL     1       6.528   2.128   0.162  0.00  0.00    -0.095 S 
ENDBRANCH  26  27
ENDBRANCH  23  26
ENDBRANCH   1  23
TORSDOF 5
