REMARK  Name = ZINC27754424
REMARK  5 active torsions:
REMARK  status: ('A' for Active; 'I' for Inactive)
REMARK    1  A    between atoms: C_6  and  C_7
REMARK    2  A    between atoms: C_7  and  O_30
REMARK    3  A    between atoms: C_8  and  C_24
REMARK    4  A    between atoms: C_10  and  C_16
REMARK    5  A    between atoms: C_24  and  C_26
REMARK                            x       y       z     vdW  Elec       q    Type
REMARK                         _______ _______ _______ _____ _____    ______ ____
ROOT
ATOM      1  C   UNL     1       1.459   1.874  -0.029  0.00  0.00    +0.172 C 
ATOM      2  C   UNL     1      -0.016   1.496   0.145  0.00  0.00    +0.144 C 
ATOM      3  C   UNL     1      -0.129  -0.033   0.160  0.00  0.00    +0.121 C 
ATOM      4  N   UNL     1       0.745  -0.569   1.204  0.00  0.00    -0.292 N 
ATOM      5  C   UNL     1       1.865   0.070   1.573  0.00  0.00    +0.302 C 
ATOM      6  O   UNL     1       2.561  -0.425   2.439  0.00  0.00    -0.253 OA
ATOM      7  N   UNL     1       2.247   1.233   1.026  0.00  0.00    -0.267 N 
ATOM      8  H   UNL     1       0.488  -1.515   1.704  0.00  0.00    +0.151 HD
ATOM      9  H   UNL     1       3.173   1.707   1.385  0.00  0.00    +0.153 HD
ENDROOT
BRANCH   3  10
ATOM     10  C   UNL     1      -1.556  -0.429   0.441  0.00  0.00    -0.008 A 
ATOM     11  C   UNL     1      -2.000  -0.528   1.747  0.00  0.00    +0.008 A 
ATOM     12  C   UNL     1      -3.308  -0.891   2.006  0.00  0.00    +0.020 A 
ATOM     13  C   UNL     1      -4.174  -1.156   0.959  0.00  0.00    +0.042 A 
ATOM     14  C   UNL     1      -3.729  -1.057  -0.347  0.00  0.00    +0.040 A 
ATOM     15  C   UNL     1      -2.421  -0.688  -0.606  0.00  0.00    +0.047 A 
ATOM     16 CL   UNL     1      -1.865  -0.556  -2.245  0.00  0.00    -0.083 Cl
ATOM     17 CL   UNL     1      -5.817  -1.611   1.285  0.00  0.00    -0.083 Cl
ENDBRANCH   3  10
BRANCH   1  23
ATOM     18  C   UNL     1       1.420   4.157  -1.053  0.00  0.00    +0.011 A 
ATOM     19  C   UNL     1       1.553   5.529  -0.965  0.00  0.00    +0.039 A 
ATOM     20  C   UNL     1       1.888   6.116   0.243  0.00  0.00    +0.123 A 
ATOM     21  C   UNL     1       2.085   5.326   1.364  0.00  0.00    +0.039 A 
ATOM     22  C   UNL     1       1.945   3.954   1.274  0.00  0.00    +0.011 A 
ATOM     23  C   UNL     1       1.610   3.370   0.067  0.00  0.00    +0.003 A 
ATOM     24  F   UNL     1       2.025   7.457   0.330  0.00  0.00    -0.205 F 
ENDBRANCH   1  23
BRANCH   2  25
ATOM     25  C   UNL     1      -0.819   2.052  -1.002  0.00  0.00    +0.245 C 
ATOM     26  O   UNL     1      -0.424   1.922  -2.135  0.00  0.00    -0.287 OA
BRANCH  25  27
ATOM     27  C   UNL     1      -2.117   2.770  -0.734  0.00  0.00    +0.451 C 
ATOM     28  F   UNL     1      -2.723   3.107  -1.950  0.00  0.00    -0.163 F 
ATOM     29  F   UNL     1      -2.970   1.935  -0.004  0.00  0.00    -0.163 F 
ATOM     30  F   UNL     1      -1.863   3.934  -0.002  0.00  0.00    -0.163 F 
ENDBRANCH  25  27
ENDBRANCH   2  25
BRANCH   1  31
ATOM     31  O   UNL     1       1.919   1.427  -1.306  0.00  0.00    -0.367 OA
ATOM     32  H   UNL     1       1.886   0.357  -1.559  0.00  0.00    +0.212 HD
ENDBRANCH   1  31
TORSDOF 5
