REMARK  Name = ZINC16192673
REMARK  9 active torsions:
REMARK  status: ('A' for Active; 'I' for Inactive)
REMARK    1  A    between atoms: C_1  and  C_2
REMARK    2  A    between atoms: N_5  and  C_11
REMARK    3  A    between atoms: C_7  and  C_10
REMARK    4  A    between atoms: C_11  and  C_12
REMARK    5  A    between atoms: C_12  and  C_14
REMARK    6  A    between atoms: C_12  and  O_32
REMARK    7  A    between atoms: C_14  and  O_15
REMARK    8  A    between atoms: O_15  and  C_16
REMARK    9  A    between atoms: C_19  and  C_22
REMARK                            x       y       z     vdW  Elec       q    Type
REMARK                         _______ _______ _______ _____ _____    ______ ____
ROOT
ATOM      1  C   UNL     1      -5.224  -6.750  -0.270  0.00  0.00    +0.121 A 
ATOM      2  C   UNL     1      -6.422  -6.052  -0.273  0.00  0.00    +0.046 A 
ATOM      3  C   UNL     1      -7.620  -6.738  -0.317  0.00  0.00    +0.008 A 
ATOM      4  C   UNL     1      -7.626  -8.120  -0.359  0.00  0.00    -0.041 A 
ATOM      5  C   UNL     1      -6.433  -8.819  -0.356  0.00  0.00    +0.008 A 
ATOM      6  C   UNL     1      -5.232  -8.137  -0.318  0.00  0.00    +0.046 A 
ENDROOT
BRANCH   4   7
ATOM      7  C   UNL     1      -8.935  -8.865  -0.407  0.00  0.00    -0.003 C 
ATOM      8  C   UNL     1      -9.710  -8.454  -1.661  0.00  0.00    +0.015 C 
ATOM      9  C   UNL     1     -11.039  -9.211  -1.710  0.00  0.00    -0.010 C 
ATOM     10  C   UNL     1     -10.767 -10.716  -1.750  0.00  0.00    +0.007 C 
ATOM     11  C   UNL     1      -9.991 -11.128  -0.497  0.00  0.00    -0.010 C 
ATOM     12  C   UNL     1      -8.663 -10.370  -0.448  0.00  0.00    +0.015 C 
ATOM     13  C   UNL     1     -10.816 -10.791   0.747  0.00  0.00    +0.007 C 
ATOM     14  C   UNL     1     -11.088  -9.286   0.787  0.00  0.00    -0.010 C 
ATOM     15  C   UNL     1     -11.864  -8.875  -0.466  0.00  0.00    +0.007 C 
ATOM     16  C   UNL     1      -9.759  -8.529   0.836  0.00  0.00    +0.015 C 
ENDBRANCH   4   7
BRANCH   1  17
ATOM     17  O   UNL     1      -4.044  -6.078  -0.227  0.00  0.00    -0.489 OA
BRANCH  17  18
ATOM     18  C   UNL     1      -4.111  -4.651  -0.179  0.00  0.00    +0.261 C 
BRANCH  18  19
ATOM     19  C   UNL     1      -2.695  -4.075  -0.135  0.00  0.00    +0.166 C 
BRANCH  19  20
ATOM     20  O   UNL     1      -2.018  -4.380  -1.355  0.00  0.00    -0.387 OA
ATOM     21  H   UNL     1      -2.447  -4.022  -2.144  0.00  0.00    +0.210 HD
ENDBRANCH  19  20
BRANCH  19  22
ATOM     22  C   UNL     1      -2.768  -2.557   0.042  0.00  0.00    +0.119 C 
BRANCH  22  26
ATOM     23  C   UNL     1      -0.019   1.526   0.010  0.00  0.00    +0.039 C 
ATOM     24  C   UNL     1       0.002  -0.004   0.002  0.00  0.00    +0.130 C 
ATOM     25  C   UNL     1      -1.434  -0.535   0.015  0.00  0.00    +0.115 C 
ATOM     26  N   UNL     1      -1.407  -2.003   0.085  0.00  0.00    -0.295 NA
ATOM     27  C   UNL     1      -0.692  -2.455   1.287  0.00  0.00    +0.115 C 
ATOM     28  C   UNL     1       0.736  -1.905   1.261  0.00  0.00    +0.130 C 
ATOM     29  O   UNL     1       0.692  -0.479   1.161  0.00  0.00    -0.371 OA
ATOM     30  C   UNL     1       1.461  -2.305   2.548  0.00  0.00    +0.039 C 
ENDBRANCH  22  26
ENDBRANCH  19  22
ENDBRANCH  18  19
ENDBRANCH  17  18
ENDBRANCH   1  17
TORSDOF 7
