REMARK  Name = ZINC40946918
REMARK  8 active torsions:
REMARK  status: ('A' for Active; 'I' for Inactive)
REMARK    1  A    between atoms: C_1  and  C_2
REMARK    2  A    between atoms: C_2  and  C_3
REMARK    3  A    between atoms: C_3  and  O_4
REMARK    4  A    between atoms: O_4  and  C_5
REMARK    5  A    between atoms: C_10  and  C_11
REMARK    6  A    between atoms: C_12  and  C_13
REMARK    7  A    between atoms: N_15  and  C_16
REMARK    8  A    between atoms: C_17  and  C_24
REMARK                            x       y       z     vdW  Elec       q    Type
REMARK                         _______ _______ _______ _____ _____    ______ ____
ROOT
ATOM      1  C   UNL     1       0.273  -6.917  -0.350  0.00  0.00    +0.241 C 
ATOM      2  O   UNL     1      -0.269  -6.383   0.600  0.00  0.00    -0.270 OA
ATOM      3  N   UNL     1       0.331  -8.261  -0.427  0.00  0.00    -0.276 N 
ATOM      4  H   UNL     1       0.763  -8.686  -1.184  0.00  0.00    +0.156 HD
ENDROOT
BRANCH   3   5
ATOM      5  C   UNL     1      -0.228  -9.036   0.576  0.00  0.00    +0.085 A 
ATOM      6  C   UNL     1      -0.258 -10.416   0.667  0.00  0.00    +0.068 A 
ATOM      7  C   UNL     1      -0.915 -10.995   1.839  0.00  0.00    -0.023 A 
ATOM      8  C   UNL     1      -1.416 -10.085   2.693  0.00  0.00    -0.004 A 
ATOM      9  S   UNL     1      -1.016  -8.517   1.963  0.00  0.00    -0.077 S 
ATOM     10  C   UNL     1      -2.083 -10.733   3.876  0.00  0.00    +0.043 C 
ATOM     11  C   UNL     1      -2.312 -12.197   3.440  0.00  0.00    +0.010 C 
ATOM     12  C   UNL     1      -1.201 -12.391   2.388  0.00  0.00    +0.037 C 
BRANCH   6  13
ATOM     13  C   UNL     1       0.342 -11.262  -0.367  0.00  0.00    +0.244 C 
ATOM     14  O   UNL     1       1.508 -11.600  -0.277  0.00  0.00    -0.270 OA
ATOM     15  N   UNL     1      -0.397 -11.667  -1.420  0.00  0.00    -0.325 N 
ATOM     16  H   UNL     1      -1.326 -11.398  -1.492  0.00  0.00    +0.145 HD
ATOM     17  H   UNL     1       0.001 -12.227  -2.105  0.00  0.00    +0.145 HD
ENDBRANCH   6  13
ENDBRANCH   3   5
BRANCH   1  19
ATOM     18  C   UNL     1       0.805  -4.752  -1.332  0.00  0.00    +0.016 C 
ATOM     19  C   UNL     1       0.863  -6.098  -1.409  0.00  0.00    +0.068 C 
BRANCH  18  25
ATOM     20  C   UNL     1       1.340  -2.528  -2.321  0.00  0.00    +0.128 A 
ATOM     21  C   UNL     1       1.908  -1.764  -3.328  0.00  0.00    +0.046 A 
ATOM     22  C   UNL     1       2.521  -2.377  -4.403  0.00  0.00    +0.004 A 
ATOM     23  C   UNL     1       2.574  -3.760  -4.485  0.00  0.00    +0.001 A 
ATOM     24  C   UNL     1       2.017  -4.537  -3.494  0.00  0.00    +0.011 A 
ATOM     25  C   UNL     1       1.397  -3.929  -2.396  0.00  0.00    +0.017 A 
BRANCH  20  26
ATOM     26  O   UNL     1       0.738  -1.926  -1.265  0.00  0.00    -0.491 OA
BRANCH  26  27
ATOM     27  C   UNL     1       0.718  -0.497  -1.257  0.00  0.00    +0.229 C 
BRANCH  27  29
ATOM     28  C   UNL     1      -0.019   1.526   0.010  0.00  0.00    +0.007 C 
ATOM     29  C   UNL     1       0.002  -0.004   0.002  0.00  0.00    +0.038 C 
ENDBRANCH  27  29
ENDBRANCH  26  27
ENDBRANCH  20  26
ENDBRANCH  18  25
ENDBRANCH   1  19
TORSDOF 7
