REMARK  Name = ZINC33253252
REMARK  12 active torsions:
REMARK  status: ('A' for Active; 'I' for Inactive)
REMARK    1  A    between atoms: C_1  and  C_2
REMARK    2  A    between atoms: C_2  and  C_3
REMARK    3  A    between atoms: C_6  and  S_9
REMARK    4  A    between atoms: S_9  and  N_12
REMARK    5  A    between atoms: N_12  and  C_13
REMARK    6  A    between atoms: C_15  and  C_32
REMARK    7  A    between atoms: C_18  and  N_19
REMARK    8  A    between atoms: N_22  and  C_25
REMARK    9  A    between atoms: C_25  and  C_26
REMARK   10  A    between atoms: N_28  and  C_29
REMARK   11  A    between atoms: C_29  and  C_30
REMARK   12  A    between atoms: C_29  and  C_31
REMARK                            x       y       z     vdW  Elec       q    Type
REMARK                         _______ _______ _______ _____ _____    ______ ____
ROOT
ATOM      1  C   UNL     1       4.171   0.317  -5.230  0.00  0.00    +0.070 A 
ATOM      2  C   UNL     1       5.232  -0.120  -4.460  0.00  0.00    +0.041 A 
ATOM      3  C   UNL     1       6.100   0.811  -3.879  0.00  0.00    +0.065 A 
ATOM      4  C   UNL     1       5.891   2.180  -4.080  0.00  0.00    +0.017 A 
ATOM      5  C   UNL     1       4.832   2.610  -4.848  0.00  0.00    +0.026 A 
ATOM      6  C   UNL     1       3.971   1.686  -5.430  0.00  0.00    +0.052 A 
ENDROOT
BRANCH   6   7
ATOM      7  N   UNL     1       2.906   2.125  -6.211  0.00  0.00    -0.326 N 
ATOM      8  C   UNL     1       1.596   2.412  -5.607  0.00  0.00    +0.120 C 
ATOM      9  C   UNL     1       1.150   3.809  -6.052  0.00  0.00    +0.104 C 
ATOM     10  N   UNL     1       1.189   3.888  -7.518  0.00  0.00    -0.291 NA
ATOM     11  C   UNL     1       2.557   3.715  -8.025  0.00  0.00    +0.104 C 
ATOM     12  C   UNL     1       3.062   2.320  -7.660  0.00  0.00    +0.120 C 
BRANCH  10  13
ATOM     13  C   UNL     1       0.607   5.151  -7.993  0.00  0.00    +0.180 C 
BRANCH  13  14
ATOM     14  C   UNL     1       0.438   5.094  -9.490  0.00  0.00    +0.227 C 
ATOM     15  O   UNL     1       0.770   4.100 -10.100  0.00  0.00    -0.274 OA
ATOM     16  N   UNL     1      -0.082   6.148 -10.149  0.00  0.00    -0.312 N 
ATOM     17  H   UNL     1      -0.347   6.943  -9.661  0.00  0.00    +0.149 HD
BRANCH  16  18
ATOM     18  C   UNL     1      -0.246   6.093 -11.604  0.00  0.00    +0.067 C 
ATOM     19  C   UNL     1      -1.574   5.414 -11.942  0.00  0.00    +0.027 C 
ATOM     20  C   UNL     1      -0.241   7.514 -12.172  0.00  0.00    +0.027 C 
ENDBRANCH  16  18
ENDBRANCH  13  14
ENDBRANCH  10  13
ENDBRANCH   6   7
BRANCH   3  21
ATOM     21  C   UNL     1       7.231   0.351  -3.058  0.00  0.00    +0.387 C 
ATOM     22  O   UNL     1       7.414  -0.846  -2.882  0.00  0.00    -0.241 OA
ATOM     23  O   UNL     1       7.990   1.167  -2.550  0.00  0.00    -0.241 OA
ENDBRANCH   3  21
BRANCH   1  24
ATOM     24  N   UNL     1       3.300  -0.612  -5.813  0.00  0.00    -0.214 N 
ATOM     25  H   UNL     1       2.921  -0.437  -6.689  0.00  0.00    +0.174 HD
BRANCH  24  26
ATOM     26  S   UNL     1       2.918  -2.008  -5.009  0.00  0.00    +0.072 S 
ATOM     27  O   UNL     1       4.149  -2.627  -4.662  0.00  0.00    -0.150 OA
ATOM     28  O   UNL     1       1.927  -2.666  -5.787  0.00  0.00    -0.150 OA
BRANCH  26  32
ATOM     29  C   UNL     1       0.929  -0.815  -1.122  0.00  0.00    -0.048 A 
ATOM     30  C   UNL     1       0.165  -1.015  -2.257  0.00  0.00    +0.005 A 
ATOM     31  C   UNL     1       0.772  -1.379  -3.444  0.00  0.00    +0.029 A 
ATOM     32  C   UNL     1       2.144  -1.543  -3.496  0.00  0.00    +0.109 A 
ATOM     33  C   UNL     1       2.908  -1.341  -2.362  0.00  0.00    +0.029 A 
ATOM     34  C   UNL     1       2.301  -0.973  -1.176  0.00  0.00    +0.005 A 
BRANCH  29  36
ATOM     35  C   UNL     1       0.189   1.108   0.258  0.00  0.00    +0.009 C 
ATOM     36  C   UNL     1       0.267  -0.418   0.172  0.00  0.00    +0.032 C 
ENDBRANCH  29  36
ENDBRANCH  26  32
ENDBRANCH  24  26
ENDBRANCH   1  24
TORSDOF 9
