REMARK  Name = ZINC09203148
REMARK  8 active torsions:
REMARK  status: ('A' for Active; 'I' for Inactive)
REMARK    1  A    between atoms: C_4  and  N_17
REMARK    2  A    between atoms: C_5  and  C_7
REMARK    3  A    between atoms: N_9  and  C_10
REMARK    4  A    between atoms: C_10  and  C_11
REMARK    5  A    between atoms: N_17  and  S_18
REMARK    6  A    between atoms: S_18  and  C_21
REMARK    7  A    between atoms: C_24  and  S_27
REMARK    8  A    between atoms: S_27  and  N_30
REMARK                            x       y       z     vdW  Elec       q    Type
REMARK                         _______ _______ _______ _____ _____    ______ ____
ROOT
ATOM      1  N   UNL     1      -8.083  -0.280  -2.392  0.00  0.00    -0.216 N 
ATOM      2  H   UNL     1      -7.363  -0.928  -2.349  0.00  0.00    +0.174 HD
ENDROOT
BRANCH   1   6
ATOM      3  C   UNL     1      -8.143   2.950   0.239  0.00  0.00    +0.001 A 
ATOM      4  C   UNL     1      -9.327   2.343  -0.150  0.00  0.00    +0.002 A 
ATOM      5  C   UNL     1      -9.310   1.273  -1.021  0.00  0.00    +0.025 A 
ATOM      6  C   UNL     1      -8.102   0.796  -1.515  0.00  0.00    +0.060 A 
ATOM      7  C   UNL     1      -6.902   1.409  -1.123  0.00  0.00    +0.059 A 
ATOM      8  C   UNL     1      -6.935   2.488  -0.236  0.00  0.00    +0.015 A 
BRANCH   7   9
ATOM      9  C   UNL     1      -5.613   0.913  -1.640  0.00  0.00    +0.246 C 
ATOM     10  O   UNL     1      -5.588  -0.030  -2.408  0.00  0.00    -0.270 OA
ATOM     11  N   UNL     1      -4.463   1.504  -1.261  0.00  0.00    -0.309 N 
ATOM     12  H   UNL     1      -4.483   2.256  -0.648  0.00  0.00    +0.149 HD
BRANCH  11  13
ATOM     13  C   UNL     1      -3.182   1.011  -1.774  0.00  0.00    +0.136 C 
BRANCH  13  14
ATOM     14  C   UNL     1      -2.043   1.850  -1.193  0.00  0.00    +0.135 C 
ATOM     15  C   UNL     1      -0.703   1.422  -1.822  0.00  0.00    +0.035 C 
ATOM     16  C   UNL     1       0.162   0.988  -0.614  0.00  0.00    +0.031 C 
ATOM     17  C   UNL     1      -0.541   1.708   0.565  0.00  0.00    +0.160 C 
ATOM     18  O   UNL     1      -1.942   1.623   0.223  0.00  0.00    -0.375 OA
ENDBRANCH  13  14
ENDBRANCH  11  13
ENDBRANCH   7   9
ENDBRANCH   1   6
BRANCH   1  19
ATOM     19  S   UNL     1      -9.290  -0.458  -3.512  0.00  0.00    +0.072 S 
ATOM     20  O   UNL     1      -8.924  -1.558  -4.333  0.00  0.00    -0.150 OA
ATOM     21  O   UNL     1     -10.517  -0.417  -2.796  0.00  0.00    -0.150 OA
BRANCH  19  22
ATOM     22  C   UNL     1      -9.260   0.972  -4.541  0.00  0.00    +0.109 A 
ATOM     23  C   UNL     1     -10.018   2.079  -4.210  0.00  0.00    +0.031 A 
ATOM     24  C   UNL     1      -9.991   3.202  -5.015  0.00  0.00    +0.030 A 
ATOM     25  C   UNL     1      -9.213   3.214  -6.158  0.00  0.00    +0.106 A 
ATOM     26  C   UNL     1      -8.459   2.105  -6.492  0.00  0.00    +0.030 A 
ATOM     27  C   UNL     1      -8.482   0.984  -5.684  0.00  0.00    +0.031 A 
BRANCH  25  28
ATOM     28  S   UNL     1      -9.184   4.643  -7.188  0.00  0.00    +0.061 S 
ATOM     29  O   UNL     1      -9.550   5.743  -6.367  0.00  0.00    -0.153 OA
ATOM     30  O   UNL     1      -7.957   4.602  -7.904  0.00  0.00    -0.153 OA
BRANCH  28  31
ATOM     31  N   UNL     1     -10.391   4.465  -8.307  0.00  0.00    -0.177 NA
ATOM     32  C   UNL     1     -10.250   3.831  -9.626  0.00  0.00    +0.109 C 
ATOM     33  C   UNL     1     -11.623   3.915 -10.325  0.00  0.00    +0.018 C 
ATOM     34  C   UNL     1     -12.309   5.100  -9.595  0.00  0.00    +0.018 C 
ATOM     35  C   UNL     1     -11.784   4.921  -8.149  0.00  0.00    +0.109 C 
ENDBRANCH  28  31
ENDBRANCH  25  28
ENDBRANCH  19  22
ENDBRANCH   1  19
TORSDOF 8
