REMARK  Name = ZINC40985770
REMARK  8 active torsions:
REMARK  status: ('A' for Active; 'I' for Inactive)
REMARK    1  A    between atoms: C_4  and  C_7
REMARK    2  A    between atoms: C_7  and  S_8
REMARK    3  A    between atoms: S_8  and  C_9
REMARK    4  A    between atoms: C_12  and  C_16
REMARK    5  A    between atoms: N_18  and  C_19
REMARK    6  A    between atoms: C_19  and  C_20
REMARK    7  A    between atoms: C_20  and  C_22
REMARK    8  A    between atoms: C_20  and  N_29
REMARK                            x       y       z     vdW  Elec       q    Type
REMARK                         _______ _______ _______ _____ _____    ______ ____
ROOT
ATOM      1  C   UNL     1      12.352  -3.685   1.487  0.00  0.00    +0.248 C 
ATOM      2  O   UNL     1      11.505  -4.131   2.237  0.00  0.00    -0.270 OA
ATOM      3  N   UNL     1      12.316  -3.988   0.174  0.00  0.00    -0.312 N 
ATOM      4  H   UNL     1      12.991  -3.631  -0.425  0.00  0.00    +0.149 HD
ENDROOT
BRANCH   1   8
ATOM      5  C   UNL     1      15.356  -1.225   2.971  0.00  0.00    +0.190 A 
ATOM      6  N   UNL     1      15.338  -1.511   1.675  0.00  0.00    -0.229 NA
ATOM      7  C   UNL     1      14.402  -2.288   1.165  0.00  0.00    +0.129 A 
ATOM      8  C   UNL     1      13.417  -2.813   2.013  0.00  0.00    +0.092 A 
ATOM      9  C   UNL     1      13.472  -2.486   3.377  0.00  0.00    +0.146 A 
ATOM     10  N   UNL     1      14.446  -1.705   3.809  0.00  0.00    -0.209 NA
ATOM     11 CL   UNL     1      12.282  -3.102   4.480  0.00  0.00    -0.061 Cl
BRANCH   5  12
ATOM     12  S   UNL     1      16.630  -0.181   3.599  0.00  0.00    -0.081 S 
BRANCH  12  13
ATOM     13  C   UNL     1      17.622   0.229   2.136  0.00  0.00    +0.112 C 
BRANCH  13  17
ATOM     14  C   UNL     1      20.853   2.780   3.274  0.00  0.00    +0.000 A 
ATOM     15  C   UNL     1      21.018   1.408   3.288  0.00  0.00    +0.000 A 
ATOM     16  C   UNL     1      19.972   0.582   2.920  0.00  0.00    +0.004 A 
ATOM     17  C   UNL     1      18.762   1.129   2.538  0.00  0.00    -0.037 A 
ATOM     18  C   UNL     1      18.596   2.501   2.525  0.00  0.00    +0.004 A 
ATOM     19  C   UNL     1      19.642   3.327   2.891  0.00  0.00    +0.000 A 
ENDBRANCH  13  17
ENDBRANCH  12  13
ENDBRANCH   5  12
ENDBRANCH   1   8
BRANCH   3  20
ATOM     20  C   UNL     1      11.257  -4.854  -0.349  0.00  0.00    +0.094 C 
BRANCH  20  21
ATOM     21  C   UNL     1      11.368  -4.932  -1.873  0.00  0.00    -0.019 C 
BRANCH  21  22
ATOM     22  N   UNL     1      11.384  -3.574  -2.433  0.00  0.00    +0.385 N 
ATOM     23  C   UNL     1      10.179  -2.858  -1.973  0.00  0.00    -0.078 C 
ATOM     24  C   UNL     1      10.465  -1.377  -2.010  0.00  0.00    -0.019 C 
ATOM     25  C   UNL     1       9.957  -0.738  -3.316  0.00  0.00    -0.002 C 
ATOM     26  C   UNL     1      10.232  -1.637  -4.538  0.00  0.00    -0.002 C 
ATOM     27  C   UNL     1      11.597  -2.275  -4.485  0.00  0.00    -0.019 C 
ATOM     28  C   UNL     1      11.478  -3.664  -3.823  0.00  0.00    -0.078 C 
ATOM     29  H   UNL     1      12.199  -3.091  -2.084  0.00  0.00    -0.081 HD
ENDBRANCH  21  22
BRANCH  21  30
ATOM     30  C   UNL     1      12.641  -5.646  -2.249  0.00  0.00    -0.041 A 
ATOM     31  C   UNL     1      13.784  -4.920  -2.527  0.00  0.00    +0.003 A 
ATOM     32  C   UNL     1      14.952  -5.574  -2.871  0.00  0.00    +0.000 A 
ATOM     33  C   UNL     1      14.978  -6.955  -2.937  0.00  0.00    +0.001 A 
ATOM     34  C   UNL     1      13.836  -7.682  -2.659  0.00  0.00    +0.020 A 
ATOM     35  C   UNL     1      12.668  -7.027  -2.309  0.00  0.00    +0.043 A 
ATOM     36 CL   UNL     1      11.235  -7.940  -1.953  0.00  0.00    -0.083 Cl
ENDBRANCH  21  30
ENDBRANCH  20  21
ENDBRANCH   3  20
TORSDOF 8
