REMARK  Name = ZINC12501067
REMARK  6 active torsions:
REMARK  status: ('A' for Active; 'I' for Inactive)
REMARK    1  A    between atoms: C_5  and  C_7
REMARK    2  A    between atoms: N_9  and  N_10
REMARK    3  A    between atoms: N_10  and  C_11
REMARK    4  A    between atoms: C_11  and  N_13
REMARK    5  A    between atoms: C_14  and  C_16
REMARK    6  A    between atoms: C_19  and  N_22
REMARK                            x       y       z     vdW  Elec       q    Type
REMARK                         _______ _______ _______ _____ _____    ______ ____
ROOT
ATOM      1  C   UNL     1      -1.033  -4.952  -0.015  0.00  0.00    +0.153 C 
ATOM      2  S   UNL     1      -1.001  -6.664  -0.025  0.00  0.00    -0.017 S 
ENDROOT
BRANCH   1   3
ATOM      3  N   UNL     1      -2.212  -4.300   0.001  0.00  0.00    -0.263 N 
ATOM      4  C   UNL     1      -3.367  -4.996   0.009  0.00  0.00    +0.250 C 
ATOM      5  O   UNL     1      -3.344  -6.211   0.002  0.00  0.00    -0.270 OA
ATOM      6  H   UNL     1      -2.231  -3.330   0.007  0.00  0.00    +0.157 HD
BRANCH   4   7
ATOM      7  C   UNL     1      -4.660  -4.281   0.026  0.00  0.00    +0.037 A 
ATOM      8  C   UNL     1      -4.690  -2.885   0.028  0.00  0.00    +0.015 A 
ATOM      9  C   UNL     1      -5.901  -2.224   0.044  0.00  0.00    +0.033 A 
ATOM     10  C   UNL     1      -7.084  -2.942   0.058  0.00  0.00    +0.126 A 
ATOM     11  C   UNL     1      -7.061  -4.325   0.056  0.00  0.00    +0.033 A 
ATOM     12  C   UNL     1      -5.858  -4.998   0.034  0.00  0.00    +0.015 A 
BRANCH  10  13
ATOM     13  N   UNL     1      -8.379  -2.225   0.076  0.00  0.00    +0.056 N 
ATOM     14  O   UNL     1      -8.402  -1.017   0.078  0.00  0.00    -0.126 OA
ATOM     15  O   UNL     1      -9.415  -2.849   0.088  0.00  0.00    -0.126 OA
ENDBRANCH  10  13
ENDBRANCH   4   7
ENDBRANCH   1   3
BRANCH   1  16
ATOM     16  N   UNL     1       0.121  -4.257  -0.022  0.00  0.00    -0.245 N 
ATOM     17  H   UNL     1       0.970  -4.726  -0.034  0.00  0.00    +0.172 HD
BRANCH  16  20
ATOM     18  C   UNL     1       1.250  -2.160  -0.022  0.00  0.00    +0.261 C 
ATOM     19  O   UNL     1       2.313  -2.748  -0.036  0.00  0.00    -0.269 OA
ATOM     20  N   UNL     1       0.095  -2.856  -0.014  0.00  0.00    -0.231 N 
ATOM     21  H   UNL     1      -0.754  -2.387  -0.003  0.00  0.00    +0.173 HD
BRANCH  18  26
ATOM     22  C   UNL     1      -0.017   1.375   0.010  0.00  0.00    +0.001 A 
ATOM     23  C   UNL     1       1.170   2.087   0.002  0.00  0.00    +0.001 A 
ATOM     24  C   UNL     1       2.383   1.421  -0.013  0.00  0.00    +0.015 A 
ATOM     25  C   UNL     1       2.416   0.041  -0.021  0.00  0.00    +0.026 A 
ATOM     26  C   UNL     1       1.222  -0.683  -0.013  0.00  0.00    +0.051 A 
ATOM     27  C   UNL     1       0.002  -0.004   0.002  0.00  0.00    +0.014 A 
ATOM     28  I   UNL     1       4.254  -0.965  -0.045  0.00  0.00    -0.043 I 
ENDBRANCH  18  26
ENDBRANCH  16  20
ENDBRANCH   1  16
TORSDOF 6
