REMARK  Name = ZINC14794302
REMARK  4 active torsions:
REMARK  status: ('A' for Active; 'I' for Inactive)
REMARK    1  A    between atoms: C_1  and  C_2
REMARK    2  A    between atoms: C_2  and  C_3
REMARK    3  A    between atoms: C_13  and  C_15
REMARK    4  A    between atoms: C_15  and  N_16
REMARK                            x       y       z     vdW  Elec       q    Type
REMARK                         _______ _______ _______ _____ _____    ______ ____
ROOT
ATOM      1  C   UNL     1       0.731  -0.503   1.223  0.00  0.00    -0.046 A 
ATOM      2  C   UNL     1       2.102  -0.713   1.184  0.00  0.00    +0.006 A 
ATOM      3  C   UNL     1       2.789  -1.166   2.280  0.00  0.00    +0.029 A 
ATOM      4  C   UNL     1       2.115  -1.436   3.493  0.00  0.00    +0.080 A 
ATOM      5  C   UNL     1       0.720  -1.212   3.496  0.00  0.00    +0.041 A 
ATOM      6  C   UNL     1       0.041  -0.752   2.395  0.00  0.00    +0.021 A 
ATOM      7  S   UNL     1       0.268  -1.657   5.156  0.00  0.00    -0.052 S 
ATOM      8  C   UNL     1       1.905  -2.098   5.723  0.00  0.00    +0.165 A 
ATOM      9  N   UNL     1       2.638  -1.884   4.655  0.00  0.00    -0.225 NA
ATOM     10  N   UNL     1       2.299  -2.552   6.971  0.00  0.00    -0.263 N 
ATOM     11  C   UNL     1       3.595  -2.835   7.207  0.00  0.00    +0.237 C 
ATOM     12  O   UNL     1       4.417  -2.692   6.326  0.00  0.00    -0.274 OA
ATOM     13  H   UNL     1       1.642  -2.666   7.676  0.00  0.00    +0.157 HD
ENDROOT
BRANCH   1  15
ATOM     14  C   UNL     1      -0.019   1.526   0.010  0.00  0.00    +0.009 C 
ATOM     15  C   UNL     1       0.002  -0.004   0.002  0.00  0.00    +0.032 C 
ENDBRANCH   1  15
BRANCH  11  16
ATOM     16  C   UNL     1       4.024  -3.328   8.565  0.00  0.00    +0.212 C 
BRANCH  16  17
ATOM     17  N   UNL     1       5.471  -3.562   8.565  0.00  0.00    -0.233 N 
ATOM     18  C   UNL     1       6.033  -4.751   8.225  0.00  0.00    +0.226 C 
ATOM     19  O   UNL     1       5.484  -5.689   7.688  0.00  0.00    -0.275 OA
ATOM     20  C   UNL     1       7.469  -4.670   8.646  0.00  0.00    +0.091 C 
ATOM     21  C   UNL     1       8.507  -5.370   7.793  0.00  0.00    +0.040 C 
ATOM     22  C   UNL     1       9.859  -4.846   8.227  0.00  0.00    -0.030 C 
ATOM     23  C   UNL     1      10.039  -3.748   8.897  0.00  0.00    -0.030 C 
ATOM     24  C   UNL     1       8.925  -2.814   9.323  0.00  0.00    +0.040 C 
ATOM     25  C   UNL     1       7.716  -3.139   8.483  0.00  0.00    +0.091 C 
ATOM     26  C   UNL     1       6.379  -2.609   8.900  0.00  0.00    +0.226 C 
ATOM     27  O   UNL     1       6.153  -1.543   9.431  0.00  0.00    -0.275 OA
ENDBRANCH  16  17
ENDBRANCH  11  16
TORSDOF 3
