REMARK  Name = ZINC59241789
REMARK  7 active torsions:
REMARK  status: ('A' for Active; 'I' for Inactive)
REMARK    1  A    between atoms: C_4  and  C_7
REMARK    2  A    between atoms: C_8  and  C_9
REMARK    3  A    between atoms: C_8  and  C_15
REMARK    4  A    between atoms: N_17  and  C_18
REMARK    5  A    between atoms: C_21  and  S_24
REMARK    6  A    between atoms: S_24  and  N_27
REMARK    7  A    between atoms: N_27  and  C_28
REMARK                            x       y       z     vdW  Elec       q    Type
REMARK                         _______ _______ _______ _____ _____    ______ ____
ROOT
ATOM      1  C   UNL     1       2.573  -2.980   0.643  0.00  0.00    +0.249 C 
ATOM      2  O   UNL     1       1.547  -2.454   1.032  0.00  0.00    -0.270 OA
ATOM      3  N   UNL     1       2.556  -4.261   0.225  0.00  0.00    -0.281 N 
ATOM      4  H   UNL     1       3.357  -4.660  -0.148  0.00  0.00    +0.155 HD
ENDROOT
BRANCH   3   5
ATOM      5  C   UNL     1       1.383  -5.015   0.330  0.00  0.00    +0.034 A 
ATOM      6  C   UNL     1       0.148  -4.412   0.130  0.00  0.00    +0.025 A 
ATOM      7  C   UNL     1      -1.009  -5.160   0.233  0.00  0.00    +0.030 A 
ATOM      8  C   UNL     1      -0.938  -6.508   0.536  0.00  0.00    +0.105 A 
ATOM      9  C   UNL     1       0.290  -7.111   0.736  0.00  0.00    +0.030 A 
ATOM     10  C   UNL     1       1.451  -6.370   0.628  0.00  0.00    +0.025 A 
BRANCH   8  11
ATOM     11  S   UNL     1      -2.416  -7.458   0.668  0.00  0.00    +0.059 S 
ATOM     12  O   UNL     1      -2.110  -8.572   1.496  0.00  0.00    -0.153 OA
ATOM     13  O   UNL     1      -3.460  -6.545   0.974  0.00  0.00    -0.153 OA
BRANCH  11  14
ATOM     14  N   UNL     1      -2.743  -8.064  -0.838  0.00  0.00    -0.187 NA
ATOM     15  H   UNL     1      -3.542  -7.782  -1.311  0.00  0.00    +0.148 HD
BRANCH  14  16
ATOM     16  C   UNL     1      -1.827  -9.026  -1.456  0.00  0.00    +0.077 C 
ATOM     17  C   UNL     1      -0.848  -8.285  -2.368  0.00  0.00    +0.020 C 
ATOM     18  C   UNL     1       0.109  -9.289  -3.013  0.00  0.00    +0.002 C 
ATOM     19  C   UNL     1      -0.692 -10.299  -3.838  0.00  0.00    +0.000 C 
ATOM     20  C   UNL     1      -1.671 -11.040  -2.926  0.00  0.00    +0.002 C 
ATOM     21  C   UNL     1      -2.628 -10.036  -2.281  0.00  0.00    +0.020 C 
ENDBRANCH  14  16
ENDBRANCH  11  14
ENDBRANCH   8  11
ENDBRANCH   3   5
BRANCH   1  23
ATOM     22  C   UNL     1       3.879  -0.974   1.177  0.00  0.00    +0.021 C 
ATOM     23  C   UNL     1       3.831  -2.218   0.630  0.00  0.00    +0.045 C 
BRANCH  22  27
ATOM     24  C   UNL     1       0.625   0.451   3.492  0.00  0.00    +0.000 A 
ATOM     25  C   UNL     1       1.078  -0.846   3.666  0.00  0.00    +0.001 A 
ATOM     26  C   UNL     1       2.136  -1.317   2.917  0.00  0.00    +0.008 A 
ATOM     27  C   UNL     1       2.751  -0.480   1.979  0.00  0.00    -0.024 A 
ATOM     28  C   UNL     1       2.287   0.829   1.809  0.00  0.00    +0.008 A 
ATOM     29  C   UNL     1       1.228   1.284   2.566  0.00  0.00    +0.001 A 
ENDBRANCH  22  27
BRANCH  23  30
ATOM     30  C   UNL     1       5.046  -2.805   0.019  0.00  0.00    -0.013 A 
ATOM     31  C   UNL     1       5.612  -2.223  -1.115  0.00  0.00    +0.008 A 
ATOM     32  C   UNL     1       6.743  -2.775  -1.679  0.00  0.00    +0.001 A 
ATOM     33  C   UNL     1       7.317  -3.904  -1.123  0.00  0.00    +0.000 A 
ATOM     34  C   UNL     1       6.760  -4.487   0.003  0.00  0.00    +0.001 A 
ATOM     35  C   UNL     1       5.632  -3.940   0.580  0.00  0.00    +0.008 A 
ENDBRANCH  23  30
ENDBRANCH   1  23
TORSDOF 7
