REMARK  Name = ZINC12199847
REMARK  5 active torsions:
REMARK  status: ('A' for Active; 'I' for Inactive)
REMARK    1  A    between atoms: C_1  and  C_2
REMARK    2  A    between atoms: C_2  and  C_3
REMARK    3  A    between atoms: C_3  and  C_5
REMARK    4  A    between atoms: C_3  and  N_12
REMARK    5  A    between atoms: C_13  and  C_15
REMARK                            x       y       z     vdW  Elec       q    Type
REMARK                         _______ _______ _______ _____ _____    ______ ____
ROOT
ATOM      1  N   UNL     1       6.143  -3.172  -1.037  0.00  0.00    -0.304 N 
ATOM      2  C   UNL     1       4.796  -3.147  -1.007  0.00  0.00    +0.250 C 
ATOM      3  O   UNL     1       4.170  -4.184  -0.902  0.00  0.00    -0.270 OA
ATOM      4  H   UNL     1       6.644  -2.342  -1.042  0.00  0.00    +0.150 HD
ENDROOT
BRANCH   2   5
ATOM      5  C   UNL     1       4.083  -1.863  -1.100  0.00  0.00    +0.101 A 
ATOM      6  C   UNL     1       2.692  -1.828  -1.182  0.00  0.00    +0.023 A 
ATOM      7  C   UNL     1       2.056  -0.588  -1.268  0.00  0.00    -0.027 A 
ATOM      8  C   UNL     1       2.774   0.551  -1.272  0.00  0.00    +0.022 A 
ATOM      9  N   UNL     1       4.130   0.528  -1.194  0.00  0.00    -0.325 N 
ATOM     10  H   UNL     1       4.624   1.363  -1.200  0.00  0.00    +0.169 HD
ATOM     11  C   UNL     1       4.798  -0.638  -1.109  0.00  0.00    +0.261 A 
ATOM     12  O   UNL     1       6.015  -0.640  -1.038  0.00  0.00    -0.267 OA
ATOM     13  C   UNL     1       2.069   1.890  -1.362  0.00  0.00    +0.053 C 
ATOM     14  C   UNL     1       1.350   2.153  -0.037  0.00  0.00    +0.006 C 
ATOM     15  C   UNL     1      -0.026   1.514  -0.032  0.00  0.00    +0.001 C 
ATOM     16  C   UNL     1      -0.004  -0.003  -0.034  0.00  0.00    +0.005 C 
ATOM     17  C   UNL     1       0.545  -0.538  -1.358  0.00  0.00    +0.037 C 
ENDBRANCH   2   5
BRANCH   1  18
ATOM     18  C   UNL     1       6.850  -4.455  -1.063  0.00  0.00    +0.103 C 
BRANCH  18  19
ATOM     19  C   UNL     1       8.234  -4.278  -0.492  0.00  0.00    -0.027 A 
ATOM     20  C   UNL     1       8.967  -3.146  -0.797  0.00  0.00    +0.008 A 
ATOM     21  C   UNL     1      10.233  -2.979  -0.269  0.00  0.00    +0.038 A 
ATOM     22  C   UNL     1      10.772  -3.952   0.556  0.00  0.00    +0.123 A 
ATOM     23  C   UNL     1      10.039  -5.088   0.856  0.00  0.00    +0.038 A 
ATOM     24  C   UNL     1       8.771  -5.249   0.332  0.00  0.00    +0.008 A 
ATOM     25  F   UNL     1      12.012  -3.793   1.067  0.00  0.00    -0.205 F 
ENDBRANCH  18  19
BRANCH  18  27
ATOM     26  C   UNL     1       5.554  -5.250  -3.046  0.00  0.00    +0.006 C 
ATOM     27  C   UNL     1       6.955  -4.951  -2.507  0.00  0.00    +0.024 C 
ENDBRANCH  18  27
ENDBRANCH   1  18
TORSDOF 4
