REMARK  Name = ZINC40741732
REMARK  11 active torsions:
REMARK  status: ('A' for Active; 'I' for Inactive)
REMARK    1  A    between atoms: C_1  and  C_2
REMARK    2  A    between atoms: C_2  and  O_3
REMARK    3  A    between atoms: O_3  and  C_4
REMARK    4  A    between atoms: C_6  and  C_20
REMARK    5  A    between atoms: C_9  and  O_10
REMARK    6  A    between atoms: O_10  and  C_11
REMARK    7  A    between atoms: C_11  and  C_12
REMARK    8  A    between atoms: C_20  and  N_21
REMARK    9  A    between atoms: N_21  and  C_22
REMARK   10  A    between atoms: C_22  and  C_23
REMARK   11  A    between atoms: C_23  and  C_24
REMARK                            x       y       z     vdW  Elec       q    Type
REMARK                         _______ _______ _______ _____ _____    ______ ____
ROOT
ATOM      1  C   UNL     1       0.777  -1.811  -1.336  0.00  0.00    +0.163 A 
ATOM      2  C   UNL     1       0.243  -2.669  -0.388  0.00  0.00    +0.051 A 
ATOM      3  C   UNL     1       0.352  -4.037  -0.554  0.00  0.00    -0.060 A 
ATOM      4  C   UNL     1       0.992  -4.553  -1.665  0.00  0.00    +0.021 A 
ATOM      5  C   UNL     1       1.527  -3.702  -2.616  0.00  0.00    +0.063 A 
ATOM      6  C   UNL     1       1.416  -2.329  -2.458  0.00  0.00    +0.176 A 
ATOM      7 BR   UNL     1       2.403  -4.412  -4.134  0.00  0.00    -0.046 Br
ENDROOT
BRANCH   1   8
ATOM      8  O   UNL     1       0.671  -0.465  -1.174  0.00  0.00    -0.489 OA
BRANCH   8  10
ATOM      9  C   UNL     1      -0.019   1.526   0.010  0.00  0.00    +0.048 C 
ATOM     10  C   UNL     1       0.002  -0.004   0.002  0.00  0.00    +0.226 C 
ENDBRANCH   8  10
ENDBRANCH   1   8
BRANCH   6  11
ATOM     11  O   UNL     1       1.936  -1.491  -3.394  0.00  0.00    -0.483 OA
BRANCH  11  12
ATOM     12  C   UNL     1       3.293  -1.080  -3.215  0.00  0.00    +0.264 C 
BRANCH  12  13
ATOM     13  C   UNL     1       3.692  -0.161  -4.341  0.00  0.00    -0.009 A 
ATOM     14  C   UNL     1       4.240  -0.683  -5.498  0.00  0.00    +0.007 A 
ATOM     15  C   UNL     1       4.607   0.159  -6.530  0.00  0.00    +0.002 A 
ATOM     16  C   UNL     1       4.426   1.524  -6.407  0.00  0.00    +0.020 A 
ATOM     17  C   UNL     1       3.877   2.047  -5.250  0.00  0.00    +0.041 A 
ATOM     18  C   UNL     1       3.505   1.203  -4.219  0.00  0.00    +0.027 A 
ATOM     19 CL   UNL     1       3.650   3.761  -5.095  0.00  0.00    -0.084 Cl
ENDBRANCH  12  13
ENDBRANCH  11  12
ENDBRANCH   6  11
BRANCH   3  20
ATOM     20  C   UNL     1      -0.228  -4.968   0.479  0.00  0.00    -0.047 C 
BRANCH  20  21
ATOM     21  N   UNL     1      -1.619  -5.283   0.128  0.00  0.00    +0.382 N 
ATOM     22  H   UNL     1      -2.160  -4.432   0.101  0.00  0.00    -0.085 HD
ATOM     23  H   UNL     1      -1.646  -5.727  -0.777  0.00  0.00    -0.085 HD
BRANCH  21  24
ATOM     24  C   UNL     1      -2.185  -6.191   1.135  0.00  0.00    -0.077 C 
BRANCH  24  25
ATOM     25  C   UNL     1      -3.634  -6.519   0.770  0.00  0.00    +0.018 C 
BRANCH  25  26
ATOM     26  C   UNL     1      -4.215  -7.450   1.803  0.00  0.00    -0.024 A 
ATOM     27  C   UNL     1      -4.263  -8.789   1.733  0.00  0.00    +0.087 A 
ATOM     28  N   UNL     1      -4.862  -9.294   2.855  0.00  0.00    -0.360 N 
ATOM     29  H   UNL     1      -5.010 -10.236   3.032  0.00  0.00    +0.165 HD
ATOM     30  C   UNL     1      -5.223  -8.265   3.696  0.00  0.00    +0.047 A 
ATOM     31  C   UNL     1      -4.827  -7.065   3.077  0.00  0.00    +0.003 A 
ATOM     32  C   UNL     1      -5.064  -5.843   3.710  0.00  0.00    +0.010 A 
ATOM     33  C   UNL     1      -5.675  -5.820   4.932  0.00  0.00    +0.001 A 
ATOM     34  C   UNL     1      -6.063  -7.001   5.549  0.00  0.00    +0.002 A 
ATOM     35  C   UNL     1      -5.848  -8.217   4.937  0.00  0.00    +0.026 A 
ENDBRANCH  25  26
ENDBRANCH  24  25
ENDBRANCH  21  24
ENDBRANCH  20  21
ENDBRANCH   3  20
TORSDOF 10
