REMARK  Name = ZINC38689281
REMARK  11 active torsions:
REMARK  status: ('A' for Active; 'I' for Inactive)
REMARK    1  A    between atoms: C_1  and  C_2
REMARK    2  A    between atoms: C_2  and  C_4
REMARK    3  A    between atoms: C_2  and  N_23
REMARK    4  A    between atoms: N_6  and  C_7
REMARK    5  A    between atoms: C_11  and  C_13
REMARK    6  A    between atoms: C_13  and  O_15
REMARK    7  A    between atoms: O_15  and  C_16
REMARK    8  A    between atoms: C_20  and  O_21
REMARK    9  A    between atoms: O_21  and  C_22
REMARK   10  A    between atoms: N_26  and  C_29
REMARK   11  A    between atoms: C_29  and  C_30
REMARK                            x       y       z     vdW  Elec       q    Type
REMARK                         _______ _______ _______ _____ _____    ______ ____
ROOT
ATOM      1  C   UNL     1       0.273  -0.634   2.075  0.00  0.00    +0.203 C 
ATOM      2  O   UNL     1       1.111  -1.287   1.490  0.00  0.00    -0.277 OA
ATOM      3  N   UNL     1       0.441  -0.336   3.379  0.00  0.00    -0.287 N 
ATOM      4  H   UNL     1      -0.256   0.135   3.862  0.00  0.00    +0.155 HD
ENDROOT
BRANCH   3   5
ATOM      5  C   UNL     1       1.590  -0.697   4.018  0.00  0.00    +0.056 C 
ATOM      6  C   UNL     1       1.974  -0.350   5.297  0.00  0.00    +0.059 A 
ATOM      7  C   UNL     1       3.287  -0.958   5.581  0.00  0.00    +0.048 A 
ATOM      8  N   UNL     1       3.707  -1.648   4.539  0.00  0.00    -0.367 N 
ATOM      9  C   UNL     1       2.703  -1.564   3.473  0.00  0.00    +0.234 C 
ATOM     10  C   UNL     1       3.868  -0.725   6.851  0.00  0.00    +0.026 A 
ATOM     11  C   UNL     1       3.227   0.035   7.773  0.00  0.00    +0.006 A 
ATOM     12  C   UNL     1       1.987   0.621   7.532  0.00  0.00    +0.046 A 
ATOM     13  C   UNL     1       1.342   0.459   6.340  0.00  0.00    +0.131 A 
ATOM     14  H   UNL     1       4.544  -2.137   4.487  0.00  0.00    +0.161 HD
BRANCH   9  15
ATOM     15  C   UNL     1       2.177  -2.936   3.141  0.00  0.00    +0.335 C 
ATOM     16  O   UNL     1       1.919  -3.715   4.028  0.00  0.00    -0.248 OA
BRANCH  15  17
ATOM     17  O   UNL     1       1.996  -3.293   1.860  0.00  0.00    -0.466 OA
ATOM     18  C   UNL     1       1.494  -4.610   1.619  0.00  0.00    +0.280 C 
ENDBRANCH  15  17
ENDBRANCH   9  15
BRANCH  13  19
ATOM     19  O   UNL     1       0.134   1.037   6.126  0.00  0.00    -0.494 OA
ATOM     20  C   UNL     1      -0.413   1.811   7.195  0.00  0.00    +0.277 C 
ENDBRANCH  13  19
ENDBRANCH   3   5
BRANCH   1  22
ATOM     21  C   UNL     1      -0.709   1.250   0.797  0.00  0.00    -0.004 C 
ATOM     22  C   UNL     1      -0.956  -0.157   1.345  0.00  0.00    +0.016 C 
BRANCH  22  23
ATOM     23  N   UNL     1      -1.250  -1.070   0.233  0.00  0.00    +0.389 N 
ATOM     24  C   UNL     1      -1.593  -2.395   0.765  0.00  0.00    -0.062 C 
ATOM     25  C   UNL     1      -1.882  -3.352  -0.393  0.00  0.00    +0.066 C 
ATOM     26  N   UNL     1      -2.995  -2.825  -1.195  0.00  0.00    -0.302 NA
ATOM     27  C   UNL     1      -2.676  -1.487  -1.714  0.00  0.00    +0.066 C 
ATOM     28  C   UNL     1      -2.381  -0.546  -0.545  0.00  0.00    -0.062 C 
ATOM     29  H   UNL     1      -0.440  -1.147  -0.363  0.00  0.00    -0.081 HD
BRANCH  26  30
ATOM     30  C   UNL     1      -3.340  -3.745  -2.286  0.00  0.00    +0.119 C 
BRANCH  30  31
ATOM     31  C   UNL     1      -4.628  -3.300  -2.930  0.00  0.00    -0.030 A 
ATOM     32  C   UNL     1      -5.837  -3.771  -2.452  0.00  0.00    +0.009 A 
ATOM     33  C   UNL     1      -7.021  -3.366  -3.039  0.00  0.00    +0.050 A 
ATOM     34  C   UNL     1      -6.999  -2.485  -4.108  0.00  0.00    +0.166 A 
ATOM     35  C   UNL     1      -5.782  -2.011  -4.590  0.00  0.00    +0.167 A 
ATOM     36  C   UNL     1      -4.599  -2.417  -3.993  0.00  0.00    +0.054 A 
ATOM     37  O   UNL     1      -6.025  -1.167  -5.635  0.00  0.00    -0.453 OA
ATOM     38  C   UNL     1      -7.375  -1.449  -6.050  0.00  0.00    +0.466 C 
ATOM     39  O   UNL     1      -8.005  -1.940  -4.852  0.00  0.00    -0.453 OA
ENDBRANCH  30  31
ENDBRANCH  26  30
ENDBRANCH  22  23
ENDBRANCH   1  22
TORSDOF 8
