REMARK  Name = ZINC00914344
REMARK  13 active torsions:
REMARK  status: ('A' for Active; 'I' for Inactive)
REMARK    1  A    between atoms: C_1  and  C_2
REMARK    2  A    between atoms: C_7  and  C_15
REMARK    3  A    between atoms: C_13  and  C_14
REMARK    4  A    between atoms: C_15  and  N_16
REMARK    5  A    between atoms: N_16  and  C_17
REMARK    6  A    between atoms: N_16  and  S_26
REMARK    7  A    between atoms: C_17  and  C_18
REMARK    8  A    between atoms: C_21  and  O_24
REMARK    9  A    between atoms: O_24  and  C_25
REMARK   10  A    between atoms: S_26  and  C_29
REMARK   11  A    between atoms: C_34  and  C_35
REMARK   12  A    between atoms: C_35  and  O_37
REMARK   13  A    between atoms: O_37  and  C_38
REMARK                            x       y       z     vdW  Elec       q    Type
REMARK                         _______ _______ _______ _____ _____    ______ ____
ROOT
ATOM      1  N   UNL     1      -0.965   1.633  -1.513  0.00  0.00    -0.168 NA
ENDROOT
BRANCH   1   2
ATOM      2  S   UNL     1      -0.495   3.094  -2.137  0.00  0.00    +0.062 S 
ATOM      3  O   UNL     1      -1.680   3.753  -2.564  0.00  0.00    -0.153 OA
ATOM      4  O   UNL     1       0.400   3.669  -1.195  0.00  0.00    -0.153 OA
BRANCH   2   5
ATOM      5  C   UNL     1       0.446   2.761  -3.589  0.00  0.00    +0.119 A 
ATOM      6  C   UNL     1       0.654   1.459  -3.995  0.00  0.00    +0.029 A 
ATOM      7  C   UNL     1       1.388   1.197  -5.138  0.00  0.00    +0.002 A 
ATOM      8  C   UNL     1       1.929   2.236  -5.874  0.00  0.00    +0.001 A 
ATOM      9  C   UNL     1       1.735   3.542  -5.476  0.00  0.00    +0.017 A 
ATOM     10  C   UNL     1       0.990   3.815  -4.327  0.00  0.00    +0.085 A 
BRANCH  10  11
ATOM     11  C   UNL     1       0.777   5.211  -3.894  0.00  0.00    +0.341 C 
ATOM     12  O   UNL     1       0.151   5.444  -2.879  0.00  0.00    -0.245 OA
BRANCH  11  13
ATOM     13  O   UNL     1       1.278   6.226  -4.624  0.00  0.00    -0.464 OA
ATOM     14  C   UNL     1       1.031   7.572  -4.139  0.00  0.00    +0.280 C 
ENDBRANCH  11  13
ENDBRANCH  10  11
ENDBRANCH   2   5
ENDBRANCH   1   2
BRANCH   1  15
ATOM     15  C   UNL     1      -2.151   0.957  -2.046  0.00  0.00    +0.150 C 
BRANCH  15  22
ATOM     16  C   UNL     1      -8.654   3.370   1.891  0.00  0.00    +0.044 C 
ATOM     17  C   UNL     1      -7.475   3.086   0.997  0.00  0.00    -0.046 A 
ATOM     18  C   UNL     1      -7.268   3.863  -0.135  0.00  0.00    +0.004 A 
ATOM     19  C   UNL     1      -6.205   3.622  -0.959  0.00  0.00    +0.010 A 
ATOM     20  C   UNL     1      -5.318   2.583  -0.660  0.00  0.00    -0.001 A 
ATOM     21  C   UNL     1      -4.166   2.301  -1.518  0.00  0.00    +0.020 A 
ATOM     22  C   UNL     1      -3.343   1.277  -1.181  0.00  0.00    +0.033 A 
ATOM     23  C   UNL     1      -3.595   0.514  -0.021  0.00  0.00    +0.254 A 
ATOM     24  O   UNL     1      -2.840  -0.399   0.266  0.00  0.00    -0.268 OA
ATOM     25  N   UNL     1      -4.648   0.769   0.776  0.00  0.00    -0.322 N 
ATOM     26  H   UNL     1      -4.796   0.208   1.590  0.00  0.00    +0.169 HD
ATOM     27  C   UNL     1      -5.525   1.793   0.486  0.00  0.00    +0.052 A 
ATOM     28  C   UNL     1      -6.614   2.057   1.311  0.00  0.00    -0.024 A 
ATOM     29  C   UNL     1      -6.851   1.220   2.542  0.00  0.00    +0.046 C 
ENDBRANCH  15  22
ENDBRANCH   1  15
BRANCH   1  30
ATOM     30  C   UNL     1      -0.196   1.018  -0.429  0.00  0.00    +0.145 C 
BRANCH  30  31
ATOM     31  C   UNL     1       0.760   0.005  -1.004  0.00  0.00    -0.031 A 
ATOM     32  C   UNL     1       0.329  -1.285  -1.256  0.00  0.00    +0.008 A 
ATOM     33  C   UNL     1       1.202  -2.214  -1.788  0.00  0.00    +0.046 A 
ATOM     34  C   UNL     1       2.514  -1.856  -2.058  0.00  0.00    +0.120 A 
ATOM     35  C   UNL     1       2.946  -0.563  -1.799  0.00  0.00    +0.046 A 
ATOM     36  C   UNL     1       2.068   0.364  -1.272  0.00  0.00    +0.008 A 
BRANCH  34  37
ATOM     37  O   UNL     1       3.376  -2.770  -2.577  0.00  0.00    -0.495 OA
ATOM     38  C   UNL     1       2.863  -4.082  -2.818  0.00  0.00    +0.277 C 
ENDBRANCH  34  37
ENDBRANCH  30  31
ENDBRANCH   1  30
TORSDOF 9
