REMARK  Name = ZINC21712685
REMARK  10 active torsions:
REMARK  status: ('A' for Active; 'I' for Inactive)
REMARK    1  A    between atoms: C_1  and  C_2
REMARK    2  A    between atoms: C_2  and  C_3
REMARK    3  A    between atoms: C_2  and  C_4
REMARK    4  A    between atoms: C_4  and  C_5
REMARK    5  A    between atoms: C_5  and  N_6
REMARK    6  A    between atoms: C_7  and  C_9
REMARK    7  A    between atoms: C_15  and  C_17
REMARK    8  A    between atoms: C_20  and  N_23
REMARK    9  A    between atoms: N_23  and  S_24
REMARK   10  A    between atoms: S_24  and  C_27
REMARK                            x       y       z     vdW  Elec       q    Type
REMARK                         _______ _______ _______ _____ _____    ______ ____
ROOT
ATOM      1  C   UNL     1       3.788  -0.640  -5.230  0.00  0.00    +0.037 A 
ATOM      2  C   UNL     1       2.897  -1.715  -5.158  0.00  0.00    +0.015 A 
ATOM      3  C   UNL     1       1.708  -1.577  -4.479  0.00  0.00    +0.025 A 
ATOM      4  C   UNL     1       1.392  -0.369  -3.863  0.00  0.00    +0.048 A 
ATOM      5  C   UNL     1       2.275   0.705  -3.938  0.00  0.00    +0.025 A 
ATOM      6  C   UNL     1       3.468   0.571  -4.611  0.00  0.00    +0.015 A 
ENDROOT
BRANCH   1  12
ATOM      7  C   UNL     1       6.724  -2.297  -7.081  0.00  0.00    +0.162 C 
ATOM      8  C   UNL     1       6.935  -3.816  -6.852  0.00  0.00    +0.033 C 
ATOM      9  C   UNL     1       5.485  -4.353  -6.986  0.00  0.00    +0.021 C 
ATOM     10  C   UNL     1       4.639  -3.224  -6.360  0.00  0.00    +0.109 C 
ATOM     11  N   UNL     1       5.441  -1.993  -6.421  0.00  0.00    -0.286 N 
ATOM     12  C   UNL     1       5.063  -0.785  -5.957  0.00  0.00    +0.247 C 
ATOM     13  O   UNL     1       5.773   0.185  -6.138  0.00  0.00    -0.270 OA
BRANCH   7  15
ATOM     14  N   UNL     1       8.915  -1.153  -7.173  0.00  0.00    -0.314 N 
ATOM     15  C   UNL     1       7.841  -1.511  -6.442  0.00  0.00    +0.234 C 
ATOM     16  O   UNL     1       7.772  -1.202  -5.272  0.00  0.00    -0.274 OA
ATOM     17  H   UNL     1       8.977  -1.433  -8.235  0.00  0.00    +0.149 HD
BRANCH  14  18
ATOM     18  C   UNL     1      10.001  -0.389  -6.552  0.00  0.00    +0.104 C 
BRANCH  18  19
ATOM     19  C   UNL     1      11.090  -0.114  -7.591  0.00  0.00    +0.022 C 
BRANCH  19  21
ATOM     20  C   UNL     1      12.897  -0.170  -5.867  0.00  0.00    +0.007 C 
ATOM     21  C   UNL     1      12.223   0.683  -6.944  0.00  0.00    -0.016 C 
ATOM     22  C   UNL     1      13.252   1.065  -8.010  0.00  0.00    +0.007 C 
ENDBRANCH  19  21
ENDBRANCH  18  19
ENDBRANCH  14  18
ENDBRANCH   7  15
ENDBRANCH   1  12
BRANCH   4  23
ATOM     23  N   UNL     1       0.190  -0.233  -3.178  0.00  0.00    -0.216 N 
ATOM     24  H   UNL     1      -0.627   0.360  -3.614  0.00  0.00    +0.174 HD
BRANCH  23  25
ATOM     25  S   UNL     1      -0.011  -0.964  -1.706  0.00  0.00    +0.072 S 
ATOM     26  O   UNL     1       0.421  -2.309  -1.858  0.00  0.00    -0.150 OA
ATOM     27  O   UNL     1      -1.318  -0.629  -1.261  0.00  0.00    -0.150 OA
BRANCH  25  28
ATOM     28  C   UNL     1       1.113  -0.198  -0.586  0.00  0.00    +0.109 A 
ATOM     29  C   UNL     1       0.760   0.974   0.059  0.00  0.00    +0.029 A 
ATOM     30  C   UNL     1       1.647   1.569   0.931  0.00  0.00    +0.006 A 
ATOM     31  C   UNL     1       2.893   1.002   1.168  0.00  0.00    -0.044 A 
ATOM     32  C   UNL     1       3.242  -0.167   0.531  0.00  0.00    -0.042 A 
ATOM     33  C   UNL     1       2.349  -0.764  -0.349  0.00  0.00    +0.032 A 
ATOM     34  C   UNL     1       4.570  -0.843   0.749  0.00  0.00    +0.035 C 
ATOM     35  C   UNL     1       5.572   0.127   1.370  0.00  0.00    +0.005 C 
ATOM     36  C   UNL     1       4.922   0.773   2.600  0.00  0.00    +0.005 C 
ATOM     37  C   UNL     1       3.817   1.712   2.123  0.00  0.00    +0.035 C 
ENDBRANCH  25  28
ENDBRANCH  23  25
ENDBRANCH   4  23
TORSDOF 8
