REMARK  Name = ZINC38669661
REMARK  8 active torsions:
REMARK  status: ('A' for Active; 'I' for Inactive)
REMARK    1  A    between atoms: C_1  and  C_2
REMARK    2  A    between atoms: C_2  and  C_3
REMARK    3  A    between atoms: C_2  and  C_4
REMARK    4  A    between atoms: C_2  and  C_5
REMARK    5  A    between atoms: C_8  and  C_11
REMARK    6  A    between atoms: N_13  and  C_14
REMARK    7  A    between atoms: C_18  and  C_21
REMARK    8  A    between atoms: C_21  and  C_22
REMARK                            x       y       z     vdW  Elec       q    Type
REMARK                         _______ _______ _______ _____ _____    ______ ____
ROOT
ATOM      1  C   UNL     1       4.667  -1.994  -6.158  0.00  0.00    +0.275 C 
ATOM      2  N   UNL     1       5.140  -3.388  -5.998  0.00  0.00    -0.157 NA
ATOM      3  N   UNL     1       6.314  -3.625  -5.795  0.00  0.00    -0.175 NA
ATOM      4  C   UNL     1       7.303  -2.526  -5.702  0.00  0.00    +0.192 C 
ATOM      5  S   UNL     1       6.290  -1.138  -6.389  0.00  0.00    -0.085 S 
ENDROOT
BRANCH   1   8
ATOM      6  C   UNL     1       2.696  -1.860  -4.732  0.00  0.00    +0.246 C 
ATOM      7  O   UNL     1       2.106  -2.559  -5.533  0.00  0.00    -0.270 OA
ATOM      8  N   UNL     1       3.981  -1.521  -4.953  0.00  0.00    -0.280 N 
ATOM      9  H   UNL     1       4.452  -0.963  -4.314  0.00  0.00    +0.152 HD
BRANCH   6  13
ATOM     10  C   UNL     1       0.707  -0.490  -1.238  0.00  0.00    -0.042 A 
ATOM     11  C   UNL     1       0.033  -1.285  -2.147  0.00  0.00    +0.005 A 
ATOM     12  C   UNL     1       0.672  -1.733  -3.284  0.00  0.00    +0.013 A 
ATOM     13  C   UNL     1       2.004  -1.383  -3.516  0.00  0.00    +0.037 A 
ATOM     14  C   UNL     1       2.679  -0.581  -2.595  0.00  0.00    +0.013 A 
ATOM     15  C   UNL     1       2.025  -0.135  -1.464  0.00  0.00    +0.005 A 
BRANCH  10  17
ATOM     16  C   UNL     1      -0.019   1.526   0.010  0.00  0.00    +0.015 C 
ATOM     17  C   UNL     1       0.002  -0.004   0.002  0.00  0.00    -0.013 C 
ATOM     18  C   UNL     1       0.742  -0.511   1.242  0.00  0.00    +0.015 C 
ATOM     19  C   UNL     1      -1.433  -0.534   0.013  0.00  0.00    +0.015 C 
ENDBRANCH  10  17
ENDBRANCH   6  13
ENDBRANCH   1   8
BRANCH   4  20
ATOM     20  C   UNL     1       8.530  -2.805  -6.571  0.00  0.00    +0.077 C 
BRANCH  20  21
ATOM     21  C   UNL     1       9.543  -1.706  -6.378  0.00  0.00    -0.019 A 
ATOM     22  C   UNL     1      10.552  -1.627  -5.319  0.00  0.00    +0.003 A 
ATOM     23  C   UNL     1      10.894  -2.446  -4.242  0.00  0.00    +0.010 A 
ATOM     24  C   UNL     1      11.916  -2.083  -3.411  0.00  0.00    +0.001 A 
ATOM     25  C   UNL     1      12.618  -0.905  -3.630  0.00  0.00    +0.002 A 
ATOM     26  C   UNL     1      12.298  -0.083  -4.688  0.00  0.00    +0.026 A 
ATOM     27  C   UNL     1      11.261  -0.433  -5.546  0.00  0.00    +0.047 A 
ATOM     28  N   UNL     1      10.713   0.159  -6.662  0.00  0.00    -0.360 N 
ATOM     29  C   UNL     1       9.695  -0.616  -7.147  0.00  0.00    +0.087 A 
ATOM     30  H   UNL     1      11.007   0.998  -7.049  0.00  0.00    +0.165 HD
ENDBRANCH  20  21
ENDBRANCH   4  20
TORSDOF 5
