REMARK  Name = ZINC39980242
REMARK  6 active torsions:
REMARK  status: ('A' for Active; 'I' for Inactive)
REMARK    1  A    between atoms: C_1  and  C_2
REMARK    2  A    between atoms: C_3  and  C_18
REMARK    3  A    between atoms: C_4  and  C_10
REMARK    4  A    between atoms: C_13  and  O_16
REMARK    5  A    between atoms: O_16  and  C_17
REMARK    6  A    between atoms: C_20  and  C_23
REMARK                            x       y       z     vdW  Elec       q    Type
REMARK                         _______ _______ _______ _____ _____    ______ ____
ROOT
ATOM      1  C   UNL     1      -0.018   1.503   0.010  0.00  0.00    +0.061 C 
ATOM      2  C   UNL     1       0.002  -0.004   0.002  0.00  0.00    +0.017 C 
ATOM      3  C   UNL     1      -1.161  -0.682   0.004  0.00  0.00    +0.058 C 
ATOM      4  C   UNL     1      -1.096  -2.196  -0.005  0.00  0.00    +0.139 C 
ATOM      5  N   UNL     1       0.243  -2.808  -0.015  0.00  0.00    -0.315 N 
ATOM      6  C   UNL     1       1.319  -1.996  -0.016  0.00  0.00    +0.135 C 
ATOM      7  N   UNL     1       1.204  -0.662  -0.013  0.00  0.00    -0.300 N 
ATOM      8  S   UNL     1       2.883  -2.693  -0.028  0.00  0.00    -0.019 S 
ATOM      9  H   UNL     1       0.348  -3.772  -0.021  0.00  0.00    +0.149 HD
ATOM     10  H   UNL     1       2.017  -0.132  -0.018  0.00  0.00    +0.154 HD
ENDROOT
BRANCH   4  11
ATOM     11  C   UNL     1      -1.839  -2.685  -1.222  0.00  0.00    -0.022 A 
ATOM     12  C   UNL     1      -1.221  -2.671  -2.459  0.00  0.00    +0.009 A 
ATOM     13  C   UNL     1      -1.899  -3.119  -3.576  0.00  0.00    +0.046 A 
ATOM     14  C   UNL     1      -3.201  -3.583  -3.456  0.00  0.00    +0.120 A 
ATOM     15  C   UNL     1      -3.819  -3.596  -2.214  0.00  0.00    +0.046 A 
ATOM     16  C   UNL     1      -3.134  -3.152  -1.099  0.00  0.00    +0.009 A 
BRANCH  14  17
ATOM     17  O   UNL     1      -3.871  -4.023  -4.553  0.00  0.00    -0.495 OA
ATOM     18  C   UNL     1      -5.208  -4.487  -4.355  0.00  0.00    +0.277 C 
ENDBRANCH  14  17
ENDBRANCH   4  11
BRANCH   3  19
ATOM     19  C   UNL     1      -2.445   0.019   0.015  0.00  0.00    +0.258 A 
ATOM     20  N   UNL     1      -2.613   1.327   0.018  0.00  0.00    -0.187 NA
ATOM     21  C   UNL     1      -3.921   1.618   0.029  0.00  0.00    +0.202 A 
ATOM     22  N   UNL     1      -4.607   0.500   0.032  0.00  0.00    -0.056 NA
ATOM     23  O   UNL     1      -3.662  -0.559   0.017  0.00  0.00    -0.333 OA
BRANCH  21  24
ATOM     24  C   UNL     1      -4.500   2.985   0.036  0.00  0.00    +0.022 A 
ATOM     25  C   UNL     1      -3.664   4.099   0.026  0.00  0.00    +0.012 A 
ATOM     26  C   UNL     1      -4.207   5.368   0.033  0.00  0.00    +0.001 A 
ATOM     27  C   UNL     1      -5.580   5.534   0.050  0.00  0.00    +0.000 A 
ATOM     28  C   UNL     1      -6.416   4.432   0.060  0.00  0.00    +0.001 A 
ATOM     29  C   UNL     1      -5.883   3.159   0.047  0.00  0.00    +0.012 A 
ENDBRANCH  21  24
ENDBRANCH   3  19
TORSDOF 4
