REMARK  Name = ZINC41635956
REMARK  6 active torsions:
REMARK  status: ('A' for Active; 'I' for Inactive)
REMARK    1  A    between atoms: C_1  and  C_2
REMARK    2  A    between atoms: N_8  and  C_9
REMARK    3  A    between atoms: C_9  and  C_11
REMARK    4  A    between atoms: C_9  and  C_19
REMARK    5  A    between atoms: C_14  and  O_17
REMARK    6  A    between atoms: O_17  and  C_18
REMARK                            x       y       z     vdW  Elec       q    Type
REMARK                         _______ _______ _______ _____ _____    ______ ____
ROOT
ATOM      1  C   UNL     1       2.164   0.086   1.034  0.00  0.00    +0.006 C 
ENDROOT
BRANCH   1   2
ATOM      2  C   UNL     1       2.988  -0.511   2.146  0.00  0.00    +0.050 A 
ATOM      3  C   UNL     1       4.168  -1.139   2.080  0.00  0.00    +0.282 A 
ATOM      4  N   UNL     1       4.770  -1.619   3.218  0.00  0.00    -0.170 N 
ATOM      5  C   UNL     1       4.117  -1.427   4.397  0.00  0.00    +0.199 A 
ATOM      6  S   UNL     1       2.650  -0.558   3.899  0.00  0.00    -0.050 S 
ATOM      7  N   UNL     1       4.817  -1.938   5.373  0.00  0.00    -0.208 NA
ATOM      8  C   UNL     1       5.932  -2.474   4.881  0.00  0.00    +0.246 A 
ATOM      9  N   UNL     1       5.954  -2.309   3.586  0.00  0.00    -0.150 NA
ATOM     10  O   UNL     1       4.776  -1.304   0.874  0.00  0.00    -0.265 OA
ENDBRANCH   1   2
BRANCH   1  17
ATOM     11  C   UNL     1       0.073   1.424  -0.279  0.00  0.00    -0.013 C 
ATOM     12  C   UNL     1       0.088  -0.101  -0.151  0.00  0.00    -0.070 C 
ATOM     13  C   UNL     1      -1.349  -0.621  -0.082  0.00  0.00    -0.016 C 
ATOM     14  C   UNL     1      -1.329  -2.147   0.046  0.00  0.00    -0.003 C 
ATOM     15  C   UNL     1      -0.511  -2.535   1.281  0.00  0.00    -0.019 C 
ATOM     16  C   UNL     1       0.896  -1.944   1.161  0.00  0.00    -0.077 C 
ATOM     17  N   UNL     1       0.809  -0.482   1.069  0.00  0.00    +0.389 N 
ATOM     18  H   UNL     1       0.318  -0.123   1.875  0.00  0.00    -0.080 HD
ENDBRANCH   1  17
BRANCH   1  19
ATOM     19  C   UNL     1       2.087   1.580   1.211  0.00  0.00    -0.056 A 
ATOM     20  C   UNL     1       1.313   2.116   2.223  0.00  0.00    +0.006 A 
ATOM     21  C   UNL     1       1.240   3.486   2.388  0.00  0.00    +0.046 A 
ATOM     22  C   UNL     1       1.946   4.324   1.536  0.00  0.00    +0.120 A 
ATOM     23  C   UNL     1       2.724   3.783   0.522  0.00  0.00    +0.046 A 
ATOM     24  C   UNL     1       2.796   2.413   0.365  0.00  0.00    +0.006 A 
BRANCH  22  25
ATOM     25  O   UNL     1       1.877   5.672   1.696  0.00  0.00    -0.495 OA
ATOM     26  C   UNL     1       2.630   6.473   0.783  0.00  0.00    +0.277 C 
ENDBRANCH  22  25
ENDBRANCH   1  19
TORSDOF 4
