REMARK  Name = ZINC39914531
REMARK  13 active torsions:
REMARK  status: ('A' for Active; 'I' for Inactive)
REMARK    1  A    between atoms: C_1  and  C_2
REMARK    2  A    between atoms: C_2  and  C_3
REMARK    3  A    between atoms: C_3  and  C_4
REMARK    4  A    between atoms: C_4  and  O_5
REMARK    5  A    between atoms: O_5  and  C_6
REMARK    6  A    between atoms: C_9  and  C_14
REMARK    7  A    between atoms: C_11  and  O_12
REMARK    8  A    between atoms: O_12  and  C_13
REMARK    9  A    between atoms: C_17  and  C_28
REMARK   10  A    between atoms: N_24  and  C_25
REMARK   11  A    between atoms: C_25  and  C_26
REMARK   12  A    between atoms: C_31  and  C_35
REMARK   13  A    between atoms: C_33  and  O_34
REMARK                            x       y       z     vdW  Elec       q    Type
REMARK                         _______ _______ _______ _____ _____    ______ ____
ROOT
ATOM      1  C   UNL     1      -3.312  -8.020  -0.900  0.00  0.00    +0.142 C 
ATOM      2  C   UNL     1      -3.172  -8.321  -2.367  0.00  0.00    +0.035 A 
ATOM      3  C   UNL     1      -3.653  -8.116  -3.665  0.00  0.00    +0.102 A 
ATOM      4  N   UNL     1      -2.892  -8.815  -4.483  0.00  0.00    -0.173 NA
ATOM      5  N   UNL     1      -1.978  -9.441  -3.831  0.00  0.00    -0.272 N 
ATOM      6  H   UNL     1      -1.305 -10.016  -4.228  0.00  0.00    +0.189 HD
ATOM      7  C   UNL     1      -2.094  -9.176  -2.496  0.00  0.00    +0.126 A 
ATOM      8  C   UNL     1      -1.540  -9.432  -1.162  0.00  0.00    +0.266 C 
ATOM      9  O   UNL     1      -0.583 -10.147  -0.934  0.00  0.00    -0.268 OA
ATOM     10  N   UNL     1      -2.241  -8.765  -0.226  0.00  0.00    -0.281 N 
ENDROOT
BRANCH   3  11
ATOM     11  C   UNL     1      -4.809  -7.268  -4.049  0.00  0.00    +0.045 A 
ATOM     12  C   UNL     1      -5.606  -6.686  -3.067  0.00  0.00    +0.034 A 
ATOM     13  C   UNL     1      -6.681  -5.897  -3.430  0.00  0.00    +0.045 A 
ATOM     14  C   UNL     1      -6.969  -5.684  -4.768  0.00  0.00    -0.029 A 
ATOM     15  C   UNL     1      -6.183  -6.258  -5.749  0.00  0.00    +0.050 A 
ATOM     16  C   UNL     1      -5.099  -7.046  -5.398  0.00  0.00    +0.126 A 
ATOM     17  C   UNL     1      -8.143  -4.823  -5.155  0.00  0.00    +0.045 C 
ATOM     18 CL   UNL     1      -7.675  -5.172  -2.205  0.00  0.00    -0.083 Cl
BRANCH  16  19
ATOM     19  O   UNL     1      -4.323  -7.606  -6.363  0.00  0.00    -0.506 OA
ATOM     20  H   UNL     1      -4.619  -8.481  -6.647  0.00  0.00    +0.292 HD
ENDBRANCH  16  19
ENDBRANCH   3  11
BRANCH   1  24
ATOM     21  C   UNL     1      -2.852  -3.825  -0.205  0.00  0.00    +0.162 A 
ATOM     22  C   UNL     1      -4.088  -4.427  -0.035  0.00  0.00    +0.050 A 
ATOM     23  C   UNL     1      -4.234  -5.783  -0.261  0.00  0.00    +0.009 A 
ATOM     24  C   UNL     1      -3.148  -6.542  -0.656  0.00  0.00    -0.019 A 
ATOM     25  C   UNL     1      -1.911  -5.948  -0.827  0.00  0.00    +0.055 A 
ATOM     26  C   UNL     1      -1.760  -4.588  -0.608  0.00  0.00    +0.162 A 
BRANCH  26  27
ATOM     27  O   UNL     1      -0.545  -4.001  -0.781  0.00  0.00    -0.491 OA
ATOM     28  C   UNL     1       0.519  -4.836  -1.241  0.00  0.00    +0.277 C 
ENDBRANCH  26  27
BRANCH  21  29
ATOM     29  O   UNL     1      -2.707  -2.491   0.016  0.00  0.00    -0.488 OA
BRANCH  29  30
ATOM     30  C   UNL     1      -3.871  -1.772   0.428  0.00  0.00    +0.229 C 
BRANCH  30  31
ATOM     31  C   UNL     1      -3.515  -0.297   0.626  0.00  0.00    +0.041 C 
BRANCH  31  33
ATOM     32  C   UNL     1      -4.406   1.948   1.265  0.00  0.00    +0.004 C 
ATOM     33  C   UNL     1      -4.761   0.474   1.067  0.00  0.00    -0.000 C 
ENDBRANCH  31  33
ENDBRANCH  30  31
ENDBRANCH  29  30
ENDBRANCH  21  29
ENDBRANCH   1  24
BRANCH  10  34
ATOM     34  C   UNL     1      -1.982  -8.779   1.216  0.00  0.00    +0.135 C 
BRANCH  34  35
ATOM     35  C   UNL     1      -2.761  -9.899   1.855  0.00  0.00    -0.016 C 
ATOM     36  C   UNL     1      -2.142 -10.798   2.580  0.00  0.00    +0.005 C 
ENDBRANCH  34  35
ENDBRANCH  10  34
TORSDOF 10
