REMARK  Name = ZINC20424162
REMARK  12 active torsions:
REMARK  status: ('A' for Active; 'I' for Inactive)
REMARK    1  A    between atoms: C_1  and  C_2
REMARK    2  A    between atoms: C_3  and  C_8
REMARK    3  A    between atoms: N_5  and  C_7
REMARK    4  A    between atoms: N_9  and  N_10
REMARK    5  A    between atoms: C_13  and  S_16
REMARK    6  A    between atoms: S_16  and  C_17
REMARK    7  A    between atoms: C_17  and  C_18
REMARK    8  A    between atoms: C_24  and  S_26
REMARK    9  A    between atoms: S_26  and  C_27
REMARK   10  A    between atoms: C_27  and  C_28
REMARK   11  A    between atoms: C_28  and  C_29
REMARK   12  A    between atoms: C_28  and  C_30
REMARK                            x       y       z     vdW  Elec       q    Type
REMARK                         _______ _______ _______ _____ _____    ______ ____
ROOT
ATOM      1  N   UNL     1      -1.300 -10.461  -0.040  0.00  0.00    -0.205 N 
ATOM      2  C   UNL     1      -0.786  -9.172  -0.038  0.00  0.00    +0.232 A 
ATOM      3  N   UNL     1      -1.515  -8.016  -0.025  0.00  0.00    -0.186 NA
ATOM      4  C   UNL     1      -0.641  -6.966  -0.028  0.00  0.00    +0.211 A 
ATOM      5  N   UNL     1       0.577  -7.452  -0.048  0.00  0.00    -0.144 NA
ATOM      6  N   UNL     1       0.485  -8.850  -0.048  0.00  0.00    -0.245 N 
ATOM      7  H   UNL     1      -2.389 -10.618  -0.030  0.00  0.00    +0.177 HD
ATOM      8  H   UNL     1       1.252  -9.638  -0.055  0.00  0.00    +0.192 HD
ENDROOT
BRANCH   1  10
ATOM      9  C   UNL     1      -0.914 -12.766  -0.055  0.00  0.00    +0.141 C 
ATOM     10  N   UNL     1      -0.433 -11.561  -0.053  0.00  0.00    -0.187 NA
BRANCH   9  13
ATOM     11  C   UNL     1       2.254 -12.631  -0.086  0.00  0.00    +0.068 C 
ATOM     12  C   UNL     1       1.410 -13.880  -0.082  0.00  0.00    +0.069 A 
ATOM     13  C   UNL     1      -0.001 -13.926  -0.069  0.00  0.00    +0.035 A 
ATOM     14  C   UNL     1      -0.367 -15.254  -0.066  0.00  0.00    +0.117 A 
ATOM     15  N   UNL     1       0.767 -15.985  -0.086  0.00  0.00    -0.274 N 
ATOM     16  N   UNL     1       1.857 -15.107  -0.092  0.00  0.00    -0.176 NA
ATOM     17  C   UNL     1       0.844 -17.447  -0.093  0.00  0.00    +0.172 C 
ENDBRANCH   9  13
ENDBRANCH   1  10
BRANCH   4  18
ATOM     18  S   UNL     1      -1.074  -5.258  -0.015  0.00  0.00    -0.075 S 
BRANCH  18  19
ATOM     19  C   UNL     1       0.524  -4.400  -0.026  0.00  0.00    +0.173 C 
BRANCH  19  20
ATOM     20  C   UNL     1       0.294  -2.910  -0.016  0.00  0.00    +0.229 C 
ATOM     21  O   UNL     1      -0.836  -2.471  -0.003  0.00  0.00    -0.275 OA
ATOM     22  N   UNL     1       1.345  -2.067  -0.021  0.00  0.00    -0.263 N 
ATOM     23  C   UNL     1       1.133  -0.690  -0.013  0.00  0.00    +0.189 A 
ATOM     24  N   UNL     1       0.002  -0.004   0.002  0.00  0.00    -0.125 NA
ATOM     25  N   UNL     1      -0.015   1.257   0.009  0.00  0.00    -0.133 NA
ATOM     26  C   UNL     1       1.100   1.973   0.002  0.00  0.00    +0.160 A 
ATOM     27  S   UNL     1       2.314   0.656  -0.017  0.00  0.00    -0.024 S 
ATOM     28  H   UNL     1       2.370  -2.465  -0.033  0.00  0.00    +0.157 HD
BRANCH  26  29
ATOM     29  S   UNL     1       1.324   3.720   0.009  0.00  0.00    -0.097 S 
BRANCH  29  30
ATOM     30  C   UNL     1      -0.365   4.380   0.028  0.00  0.00    +0.079 C 
BRANCH  30  31
ATOM     31  C   UNL     1      -0.316   5.909   0.035  0.00  0.00    -0.007 C 
ATOM     32  C   UNL     1      -1.737   6.466  -0.074  0.00  0.00    +0.008 C 
ATOM     33  C   UNL     1       0.322   6.393   1.339  0.00  0.00    +0.008 C 
ENDBRANCH  30  31
ENDBRANCH  29  30
ENDBRANCH  26  29
ENDBRANCH  19  20
ENDBRANCH  18  19
ENDBRANCH   4  18
TORSDOF 8
