REMARK  Name = ZINC38582912
REMARK  8 active torsions:
REMARK  status: ('A' for Active; 'I' for Inactive)
REMARK    1  A    between atoms: C_1  and  C_2
REMARK    2  A    between atoms: C_2  and  C_3
REMARK    3  A    between atoms: C_3  and  C_4
REMARK    4  A    between atoms: C_5  and  C_21
REMARK    5  A    between atoms: N_8  and  C_11
REMARK    6  A    between atoms: N_22  and  C_23
REMARK    7  A    between atoms: C_23  and  C_24
REMARK    8  A    between atoms: C_24  and  C_25
REMARK                            x       y       z     vdW  Elec       q    Type
REMARK                         _______ _______ _______ _____ _____    ______ ____
ROOT
ATOM      1  C   UNL     1      -1.413  -2.041   0.005  0.00  0.00    +0.047 A 
ATOM      2  C   UNL     1      -1.494  -2.854   1.116  0.00  0.00    +0.077 A 
ATOM      3  C   UNL     1      -1.435  -4.240   0.626  0.00  0.00    +0.278 A 
ATOM      4  O   UNL     1      -1.478  -5.253   1.299  0.00  0.00    -0.265 OA
ATOM      5  N   UNL     1      -1.325  -4.168  -0.717  0.00  0.00    -0.220 N 
ATOM      6  N   UNL     1      -1.318  -2.821  -1.091  0.00  0.00    -0.296 N 
ATOM      7  H   UNL     1      -1.252  -2.497  -2.003  0.00  0.00    +0.187 HD
ENDROOT
BRANCH   5   8
ATOM      8  C   UNL     1      -1.234  -5.310  -1.630  0.00  0.00    +0.257 C 
ATOM      9  N   UNL     1      -0.104  -6.180  -1.278  0.00  0.00    -0.313 N 
ATOM     10  C   UNL     1      -0.392  -7.492  -0.905  0.00  0.00    +0.043 A 
ATOM     11  C   UNL     1       0.554  -8.465  -0.537  0.00  0.00    +0.024 A 
ATOM     12  C   UNL     1       0.168  -9.737  -0.185  0.00  0.00    +0.002 A 
ATOM     13  C   UNL     1      -1.165 -10.103  -0.180  0.00  0.00    +0.001 A 
ATOM     14  C   UNL     1      -2.120  -9.166  -0.538  0.00  0.00    +0.016 A 
ATOM     15  C   UNL     1      -1.732  -7.893  -0.891  0.00  0.00    +0.032 A 
ATOM     16  S   UNL     1      -2.652  -6.457  -1.398  0.00  0.00    -0.078 S 
ATOM     17  H   UNL     1       0.809  -5.854  -1.304  0.00  0.00    +0.149 HD
ENDBRANCH   5   8
BRANCH   2  18
ATOM     18  C   UNL     1      -1.615  -2.421   2.514  0.00  0.00    +0.093 C 
ATOM     19  N   UNL     1      -1.683  -3.303   3.462  0.00  0.00    -0.389 N 
ATOM     20  H   UNL     1      -1.653  -4.249   3.248  0.00  0.00    +0.159 HD
BRANCH  19  21
ATOM     21  C   UNL     1      -1.804  -2.872   4.857  0.00  0.00    +0.117 C 
BRANCH  21  22
ATOM     22  C   UNL     1      -3.156  -3.321   5.415  0.00  0.00    +0.056 C 
BRANCH  22  23
ATOM     23  C   UNL     1      -3.280  -2.876   6.849  0.00  0.00    -0.046 A 
ATOM     24  C   UNL     1      -2.841  -3.700   7.868  0.00  0.00    +0.004 A 
ATOM     25  C   UNL     1      -2.955  -3.293   9.184  0.00  0.00    +0.000 A 
ATOM     26  C   UNL     1      -3.508  -2.061   9.481  0.00  0.00    +0.000 A 
ATOM     27  C   UNL     1      -3.946  -1.237   8.462  0.00  0.00    +0.000 A 
ATOM     28  C   UNL     1      -3.828  -1.642   7.146  0.00  0.00    +0.004 A 
ENDBRANCH  22  23
ENDBRANCH  21  22
ENDBRANCH  19  21
ENDBRANCH   2  18
BRANCH   1  29
ATOM     29  C   UNL     1      -1.433  -0.534   0.013  0.00  0.00    +0.055 C 
BRANCH  29  31
ATOM     30  C   UNL     1      -0.019   1.526   0.010  0.00  0.00    +0.004 C 
ATOM     31  C   UNL     1       0.002  -0.004   0.002  0.00  0.00    +0.003 C 
ENDBRANCH  29  31
ENDBRANCH   1  29
TORSDOF 7
