REMARK  Name = ZINC40722003
REMARK  16 active torsions:
REMARK  status: ('A' for Active; 'I' for Inactive)
REMARK    1  A    between atoms: C_1  and  N_2
REMARK    2  A    between atoms: C_6  and  C_13
REMARK    3  A    between atoms: N_9  and  C_12
REMARK    4  A    between atoms: C_13  and  C_15
REMARK    5  A    between atoms: C_13  and  O_37
REMARK    6  A    between atoms: C_15  and  O_16
REMARK    7  A    between atoms: O_16  and  C_17
REMARK    8  A    between atoms: C_20  and  C_23
REMARK    9  A    between atoms: C_23  and  N_24
REMARK   10  A    between atoms: N_24  and  C_25
REMARK   11  A    between atoms: C_25  and  C_26
REMARK   12  A    between atoms: C_26  and  C_27
REMARK   13  A    between atoms: C_30  and  O_35
REMARK   14  A    between atoms: C_31  and  O_33
REMARK   15  A    between atoms: O_33  and  C_34
REMARK   16  A    between atoms: O_35  and  C_36
REMARK                            x       y       z     vdW  Elec       q    Type
REMARK                         _______ _______ _______ _____ _____    ______ ____
ROOT
ATOM      1  C   UNL     1      -5.765  -5.846   2.637  0.00  0.00    +0.121 A 
ATOM      2  C   UNL     1      -5.504  -5.084   3.767  0.00  0.00    +0.046 A 
ATOM      3  C   UNL     1      -6.057  -5.441   4.981  0.00  0.00    +0.005 A 
ATOM      4  C   UNL     1      -6.869  -6.557   5.072  0.00  0.00    -0.064 A 
ATOM      5  C   UNL     1      -7.130  -7.318   3.947  0.00  0.00    +0.005 A 
ATOM      6  C   UNL     1      -6.585  -6.961   2.729  0.00  0.00    +0.046 A 
ENDROOT
BRANCH   1   7
ATOM      7  O   UNL     1      -5.223  -5.496   1.441  0.00  0.00    -0.489 OA
BRANCH   7   8
ATOM      8  C   UNL     1      -4.389  -4.336   1.420  0.00  0.00    +0.265 C 
BRANCH   8   9
ATOM      9  C   UNL     1      -3.874  -4.102  -0.001  0.00  0.00    +0.182 C 
BRANCH   9  15
ATOM     10  C   UNL     1      -0.018   1.461   0.010  0.00  0.00    +0.154 C 
ATOM     11  N   UNL     1       0.002  -0.004   0.002  0.00  0.00    -0.295 N 
ATOM     12  C   UNL     1      -1.116  -0.835   0.003  0.00  0.00    +0.070 A 
ATOM     13  C   UNL     1      -2.481  -0.592   0.010  0.00  0.00    +0.028 A 
ATOM     14  C   UNL     1      -3.368  -1.651   0.009  0.00  0.00    +0.008 A 
ATOM     15  C   UNL     1      -2.899  -2.954  -0.000  0.00  0.00    -0.014 A 
ATOM     16  C   UNL     1      -1.541  -3.205  -0.007  0.00  0.00    +0.034 A 
ATOM     17  C   UNL     1      -0.643  -2.148  -0.007  0.00  0.00    +0.070 A 
ATOM     18  N   UNL     1       0.748  -2.075  -0.013  0.00  0.00    -0.295 N 
ATOM     19  C   UNL     1       1.104  -0.777  -0.013  0.00  0.00    +0.330 A 
ATOM     20  O   UNL     1       2.249  -0.365  -0.022  0.00  0.00    -0.246 OA
ATOM     21  C   UNL     1       1.666  -3.217  -0.023  0.00  0.00    +0.154 C 
ENDBRANCH   9  15
BRANCH   9  22
ATOM     22  O   UNL     1      -4.973  -3.793  -0.861  0.00  0.00    -0.384 OA
ATOM     23  H   UNL     1      -5.465  -3.001  -0.601  0.00  0.00    +0.210 HD
ENDBRANCH   9  22
ENDBRANCH   8   9
ENDBRANCH   7   8
ENDBRANCH   1   7
BRANCH   4  24
ATOM     24  C   UNL     1      -7.470  -6.944   6.398  0.00  0.00    -0.047 C 
BRANCH  24  25
ATOM     25  N   UNL     1      -8.774  -6.286   6.556  0.00  0.00    +0.382 N 
ATOM     26  H   UNL     1      -8.651  -5.285   6.522  0.00  0.00    -0.085 HD
ATOM     27  H   UNL     1      -9.389  -6.575   5.811  0.00  0.00    -0.085 HD
BRANCH  25  28
ATOM     28  C   UNL     1      -9.359  -6.664   7.849  0.00  0.00    -0.077 C 
BRANCH  28  29
ATOM     29  C   UNL     1     -10.717  -5.978   8.014  0.00  0.00    +0.016 C 
BRANCH  29  30
ATOM     30  C   UNL     1     -11.318  -6.365   9.340  0.00  0.00    -0.045 A 
ATOM     31  C   UNL     1     -12.125  -7.484   9.431  0.00  0.00    +0.007 A 
ATOM     32  C   UNL     1     -12.679  -7.843  10.646  0.00  0.00    +0.049 A 
ATOM     33  C   UNL     1     -12.425  -7.082  11.775  0.00  0.00    +0.161 A 
ATOM     34  C   UNL     1     -11.612  -5.957  11.684  0.00  0.00    +0.162 A 
ATOM     35  C   UNL     1     -11.057  -5.604  10.465  0.00  0.00    +0.053 A 
BRANCH  34  36
ATOM     36  O   UNL     1     -11.360  -5.207  12.790  0.00  0.00    -0.491 OA
ATOM     37  C   UNL     1     -10.517  -4.065  12.621  0.00  0.00    +0.277 C 
ENDBRANCH  34  36
BRANCH  33  38
ATOM     38  O   UNL     1     -12.970  -7.435  12.971  0.00  0.00    -0.491 OA
ATOM     39  C   UNL     1     -13.794  -8.602  12.990  0.00  0.00    +0.277 C 
ENDBRANCH  33  38
ENDBRANCH  29  30
ENDBRANCH  28  29
ENDBRANCH  25  28
ENDBRANCH  24  25
ENDBRANCH   4  24
TORSDOF 12
