REMARK  Name = ZINC39662293
REMARK  8 active torsions:
REMARK  status: ('A' for Active; 'I' for Inactive)
REMARK    1  A    between atoms: C_1  and  C_2
REMARK    2  A    between atoms: C_2  and  O_3
REMARK    3  A    between atoms: O_3  and  C_4
REMARK    4  A    between atoms: C_7  and  C_10
REMARK    5  A    between atoms: C_14  and  C_23
REMARK    6  A    between atoms: N_25  and  C_26
REMARK    7  A    between atoms: C_26  and  C_28
REMARK    8  A    between atoms: C_26  and  C_30
REMARK                            x       y       z     vdW  Elec       q    Type
REMARK                         _______ _______ _______ _____ _____    ______ ____
ROOT
ATOM      1  C   UNL     1       1.139  -6.038   1.761  0.00  0.00    +0.247 C 
ATOM      2  O   UNL     1       0.572  -6.783   0.986  0.00  0.00    -0.270 OA
ATOM      3  N   UNL     1       1.861  -6.547   2.779  0.00  0.00    -0.296 N 
ATOM      4  C   UNL     1       2.511  -5.811   3.889  0.00  0.00    +0.121 C 
ATOM      5  C   UNL     1       2.285  -6.699   5.132  0.00  0.00    +0.100 C 
ATOM      6  C   UNL     1       2.073  -8.115   4.569  0.00  0.00    -0.004 C 
ATOM      7  C   UNL     1       2.179  -7.970   3.044  0.00  0.00    +0.115 C 
ATOM      8  C   UNL     1       0.689  -8.633   4.949  0.00  0.00    -0.010 C 
ATOM      9  C   UNL     1       0.523 -10.063   4.427  0.00  0.00    -0.082 C 
ATOM     10  N   UNL     1       1.565 -10.921   5.006  0.00  0.00    +0.379 N 
ATOM     11  C   UNL     1       2.889 -10.471   4.561  0.00  0.00    -0.082 C 
ATOM     12  C   UNL     1       3.154  -9.058   5.088  0.00  0.00    -0.010 C 
ATOM     13  H   UNL     1       1.516 -10.873   6.013  0.00  0.00    -0.086 HD
ATOM     14  H   UNL     1       1.417 -11.873   4.709  0.00  0.00    -0.086 HD
ENDROOT
BRANCH   1  18
ATOM     15  C   UNL     1       0.846  -1.831   1.261  0.00  0.00    +0.121 A 
ATOM     16  C   UNL     1       1.935  -2.375   1.932  0.00  0.00    +0.046 A 
ATOM     17  C   UNL     1       2.033  -3.738   2.096  0.00  0.00    +0.016 A 
ATOM     18  C   UNL     1       1.037  -4.575   1.588  0.00  0.00    +0.037 A 
ATOM     19  C   UNL     1      -0.057  -4.024   0.914  0.00  0.00    +0.016 A 
ATOM     20  C   UNL     1      -0.151  -2.660   0.759  0.00  0.00    +0.046 A 
BRANCH  15  21
ATOM     21  O   UNL     1       0.752  -0.486   1.101  0.00  0.00    -0.492 OA
BRANCH  21  23
ATOM     22  C   UNL     1       1.532   1.786   1.367  0.00  0.00    +0.048 C 
ATOM     23  C   UNL     1       1.810   0.307   1.642  0.00  0.00    +0.225 C 
ENDBRANCH  21  23
ENDBRANCH  15  21
ENDBRANCH   1  18
BRANCH   5  24
ATOM     24  C   UNL     1       1.062  -6.244   5.887  0.00  0.00    +0.219 C 
ATOM     25  O   UNL     1       0.105  -5.807   5.284  0.00  0.00    -0.275 OA
ATOM     26  N   UNL     1       1.033  -6.323   7.232  0.00  0.00    -0.296 N 
ATOM     27  H   UNL     1       1.798  -6.673   7.714  0.00  0.00    +0.150 HD
BRANCH  26  28
ATOM     28  C   UNL     1      -0.155  -5.881   7.966  0.00  0.00    +0.207 C 
BRANCH  28  29
ATOM     29  C   UNL     1      -0.222  -6.594   9.292  0.00  0.00    -0.013 A 
ATOM     30  C   UNL     1       0.932  -6.800  10.024  0.00  0.00    +0.006 A 
ATOM     31  C   UNL     1       0.871  -7.454  11.241  0.00  0.00    +0.000 A 
ATOM     32  C   UNL     1      -0.344  -7.903  11.724  0.00  0.00    +0.000 A 
ATOM     33  C   UNL     1      -1.498  -7.697  10.991  0.00  0.00    +0.000 A 
ATOM     34  C   UNL     1      -1.438  -7.038   9.777  0.00  0.00    +0.006 A 
ENDBRANCH  28  29
BRANCH  28  35
ATOM     35  C   UNL     1      -0.079  -4.428   8.194  0.00  0.00    +0.090 C 
ATOM     36  N   UNL     1      -0.019  -3.308   8.370  0.00  0.00    -0.194 NA
ENDBRANCH  28  35
ENDBRANCH  26  28
ENDBRANCH   5  24
TORSDOF 7
