REMARK  Name = ZINC02782081
REMARK  8 active torsions:
REMARK  status: ('A' for Active; 'I' for Inactive)
REMARK    1  A    between atoms: C_1  and  C_2
REMARK    2  A    between atoms: C_2  and  C_3
REMARK    3  A    between atoms: C_2  and  C_4
REMARK    4  A    between atoms: C_2  and  C_5
REMARK    5  A    between atoms: C_12  and  N_16
REMARK    6  A    between atoms: C_13  and  C_14
REMARK    7  A    between atoms: C_17  and  C_19
REMARK    8  A    between atoms: N_23  and  C_24
REMARK                            x       y       z     vdW  Elec       q    Type
REMARK                         _______ _______ _______ _____ _____    ______ ____
ROOT
ATOM      1  C   UNL     1       0.297  -2.806   0.362  0.00  0.00    -0.000 C 
ATOM      2  C   UNL     1      -0.881  -2.277  -0.460  0.00  0.00    +0.009 C 
ATOM      3  C   UNL     1      -1.252  -0.869   0.008  0.00  0.00    +0.037 C 
ATOM      4  C   UNL     1       0.002  -0.004   0.002  0.00  0.00    -0.018 A 
ATOM      5  C   UNL     1       1.233  -0.563  -0.012  0.00  0.00    -0.004 A 
ATOM      6  S   UNL     1       2.352   0.809  -0.016  0.00  0.00    -0.077 S 
ATOM      7  C   UNL     1       1.204   2.107   0.002  0.00  0.00    +0.090 A 
ATOM      8  C   UNL     1      -0.018   1.448   0.010  0.00  0.00    +0.084 A 
ATOM      9  C   UNL     1       1.561  -2.024  -0.023  0.00  0.00    +0.047 C 
ENDROOT
BRANCH   1  11
ATOM     10  C   UNL     1       0.800  -4.479  -1.424  0.00  0.00    +0.011 C 
ATOM     11  C   UNL     1       0.504  -4.293   0.065  0.00  0.00    -0.035 C 
ATOM     12  C   UNL     1       1.682  -4.819   0.889  0.00  0.00    +0.011 C 
ATOM     13  C   UNL     1      -0.762  -5.068   0.434  0.00  0.00    +0.011 C 
ENDBRANCH   1  11
BRANCH   7  14
ATOM     14  N   UNL     1       1.446   3.472   0.006  0.00  0.00    -0.274 N 
ATOM     15  C   UNL     1       2.713   3.931  -0.003  0.00  0.00    +0.267 C 
ATOM     16  O   UNL     1       3.644   3.148  -0.016  0.00  0.00    -0.268 OA
ATOM     17  H   UNL     1       0.704   4.096   0.016  0.00  0.00    +0.156 HD
BRANCH  15  18
ATOM     18  C   UNL     1       2.971   5.379   0.001  0.00  0.00    +0.129 A 
ATOM     19  C   UNL     1       4.206   6.004  -0.008  0.00  0.00    +0.054 A 
ATOM     20  C   UNL     1       3.929   7.373   0.002  0.00  0.00    +0.135 A 
ATOM     21  N   UNL     1       2.629   7.519   0.015  0.00  0.00    -0.174 NA
ATOM     22  N   UNL     1       2.038   6.378   0.009  0.00  0.00    -0.199 N 
BRANCH  22  23
ATOM     23  C   UNL     1       0.587   6.178   0.014  0.00  0.00    +0.464 C 
ATOM     24  F   UNL     1       0.211   5.466  -1.130  0.00  0.00    -0.183 F 
ATOM     25  F   UNL     1       0.220   5.456   1.154  0.00  0.00    -0.183 F 
ENDBRANCH  22  23
ENDBRANCH  15  18
ENDBRANCH   7  14
BRANCH   8  26
ATOM     26  C   UNL     1      -1.252   2.174   0.020  0.00  0.00    +0.102 C 
ATOM     27  N   UNL     1      -2.232   2.749   0.028  0.00  0.00    -0.191 NA
ENDBRANCH   8  26
TORSDOF 5
