REMARK  Name = ZINC01993571
REMARK  12 active torsions:
REMARK  status: ('A' for Active; 'I' for Inactive)
REMARK    1  A    between atoms: C_1  and  C_2
REMARK    2  A    between atoms: C_2  and  C_3
REMARK    3  A    between atoms: C_7  and  C_35
REMARK    4  A    between atoms: C_8  and  N_9
REMARK    5  A    between atoms: C_10  and  C_12
REMARK    6  A    between atoms: C_12  and  O_13
REMARK    7  A    between atoms: O_13  and  C_14
REMARK    8  A    between atoms: C_22  and  O_25
REMARK    9  A    between atoms: O_25  and  C_26
REMARK   10  A    between atoms: C_28  and  C_34
REMARK   11  A    between atoms: C_30  and  C_32
REMARK   12  A    between atoms: C_35  and  C_36
REMARK                            x       y       z     vdW  Elec       q    Type
REMARK                         _______ _______ _______ _____ _____    ______ ____
ROOT
ATOM      1  C   UNL     1       1.622  -0.258  -1.471  0.00  0.00    +0.125 A 
ATOM      2  C   UNL     1       2.413  -0.536  -2.584  0.00  0.00    +0.046 A 
ATOM      3  C   UNL     1       2.483  -1.806  -3.081  0.00  0.00    +0.019 A 
ATOM      4  C   UNL     1       1.748  -2.827  -2.477  0.00  0.00    +0.068 A 
ATOM      5  C   UNL     1       0.942  -2.554  -1.357  0.00  0.00    +0.142 A 
ATOM      6  C   UNL     1       0.887  -1.259  -0.860  0.00  0.00    +0.092 A 
ATOM      7  O   UNL     1       0.237  -3.549  -0.781  0.00  0.00    -0.459 OA
ATOM      8  C   UNL     1       0.269  -4.808  -1.236  0.00  0.00    +0.245 A 
ATOM      9  C   UNL     1       1.006  -5.180  -2.301  0.00  0.00    +0.210 A 
ATOM     10  C   UNL     1       1.791  -4.209  -2.986  0.00  0.00    +0.234 A 
ATOM     11  O   UNL     1       2.471  -4.509  -3.953  0.00  0.00    -0.283 OA
ENDROOT
BRANCH   1  12
ATOM     12  O   UNL     1       1.567   1.009  -0.985  0.00  0.00    -0.483 OA
BRANCH  12  13
ATOM     13  C   UNL     1       2.348   1.997  -1.660  0.00  0.00    +0.324 C 
BRANCH  13  15
ATOM     14  N   UNL     1       2.807   4.419  -1.451  0.00  0.00    -0.282 N 
ATOM     15  C   UNL     1       2.163   3.331  -0.984  0.00  0.00    +0.255 C 
ATOM     16  O   UNL     1       1.433   3.427  -0.020  0.00  0.00    -0.272 OA
ATOM     17  H   UNL     1       3.329   4.360  -2.267  0.00  0.00    +0.155 HD
BRANCH  14  23
ATOM     18  C   UNL     1       3.875   6.226  -0.257  0.00  0.00    -0.026 A 
ATOM     19  C   UNL     1       3.790   7.427   0.421  0.00  0.00    +0.005 A 
ATOM     20  C   UNL     1       2.561   8.032   0.608  0.00  0.00    +0.001 A 
ATOM     21  C   UNL     1       1.413   7.440   0.114  0.00  0.00    +0.005 A 
ATOM     22  C   UNL     1       1.492   6.242  -0.569  0.00  0.00    -0.026 A 
ATOM     23  C   UNL     1       2.725   5.632  -0.760  0.00  0.00    +0.040 A 
BRANCH  18  25
ATOM     24  C   UNL     1       5.781   5.962  -1.821  0.00  0.00    +0.009 C 
ATOM     25  C   UNL     1       5.214   5.565  -0.456  0.00  0.00    +0.033 C 
ENDBRANCH  18  25
BRANCH  22  26
ATOM     26  C   UNL     1       0.240   5.597  -1.107  0.00  0.00    +0.033 C 
ATOM     27  C   UNL     1      -0.611   5.086   0.057  0.00  0.00    +0.009 C 
ENDBRANCH  22  26
ENDBRANCH  14  23
ENDBRANCH  13  15
ENDBRANCH  12  13
ENDBRANCH   1  12
BRANCH   9  28
ATOM     28  O   UNL     1       1.001  -6.476  -2.719  0.00  0.00    -0.449 OA
BRANCH  28  29
ATOM     29  C   UNL     1       0.299  -7.380  -1.987  0.00  0.00    +0.129 A 
ATOM     30  C   UNL     1       0.963  -8.242  -1.126  0.00  0.00    +0.051 A 
ATOM     31  C   UNL     1       0.247  -9.156  -0.378  0.00  0.00    -0.028 A 
ATOM     32  C   UNL     1      -1.131  -9.220  -0.495  0.00  0.00    +0.047 A 
ATOM     33  C   UNL     1      -1.794  -8.365  -1.357  0.00  0.00    -0.028 A 
ATOM     34  C   UNL     1      -1.082  -7.445  -2.103  0.00  0.00    +0.051 A 
ATOM     35  C   UNL     1      -3.294  -8.437  -1.483  0.00  0.00    +0.045 C 
ATOM     36 CL   UNL     1      -2.027 -10.375   0.441  0.00  0.00    -0.083 Cl
ATOM     37  C   UNL     1       0.967 -10.089   0.562  0.00  0.00    +0.045 C 
ENDBRANCH  28  29
ENDBRANCH   9  28
TORSDOF 8
