REMARK  Name = ZINC41705583
REMARK  11 active torsions:
REMARK  status: ('A' for Active; 'I' for Inactive)
REMARK    1  A    between atoms: C_1  and  C_2
REMARK    2  A    between atoms: C_2  and  C_3
REMARK    3  A    between atoms: C_2  and  N_4
REMARK    4  A    between atoms: N_4  and  C_5
REMARK    5  A    between atoms: N_4  and  C_19
REMARK    6  A    between atoms: C_5  and  C_6
REMARK    7  A    between atoms: C_6  and  N_7
REMARK    8  A    between atoms: C_13  and  C_17
REMARK    9  A    between atoms: C_13  and  C_18
REMARK   10  A    between atoms: C_19  and  C_20
REMARK   11  A    between atoms: C_19  and  C_21
REMARK                            x       y       z     vdW  Elec       q    Type
REMARK                         _______ _______ _______ _____ _____    ______ ____
ROOT
ATOM      1  N   UNL     1      -4.521   0.832  -1.901  0.00  0.00    -0.352 N 
ATOM      2  C   UNL     1      -4.523   2.077  -2.471  0.00  0.00    +0.086 A 
ATOM      3  C   UNL     1      -5.368   2.083  -3.523  0.00  0.00    +0.031 A 
ATOM      4  C   UNL     1      -5.920   0.742  -3.599  0.00  0.00    +0.038 A 
ATOM      5  C   UNL     1      -5.347   0.015  -2.562  0.00  0.00    +0.030 A 
ATOM      6  C   UNL     1      -5.670  -1.435  -2.307  0.00  0.00    +0.061 C 
ATOM      7  C   UNL     1      -7.005  -1.779  -2.975  0.00  0.00    -0.023 C 
ATOM      8  C   UNL     1      -6.992  -1.375  -4.453  0.00  0.00    +0.086 C 
ATOM      9  C   UNL     1      -6.882   0.143  -4.529  0.00  0.00    +0.165 C 
ATOM     10  O   UNL     1      -7.533   0.806  -5.310  0.00  0.00    -0.292 OA
ATOM     11  C   UNL     1      -7.248  -3.286  -2.868  0.00  0.00    +0.011 C 
ATOM     12  C   UNL     1      -8.134  -1.036  -2.259  0.00  0.00    +0.011 C 
ENDROOT
BRANCH   1  13
ATOM     13  C   UNL     1      -3.721   0.448  -0.735  0.00  0.00    +0.103 C 
BRANCH  13  14
ATOM     14  C   UNL     1      -2.412  -0.190  -1.203  0.00  0.00    -0.056 C 
BRANCH  14  15
ATOM     15  N   UNL     1      -1.621  -0.599  -0.034  0.00  0.00    +0.384 N 
ATOM     16  H   UNL     1      -1.484   0.195   0.573  0.00  0.00    -0.081 HD
BRANCH  15  18
ATOM     17  C   UNL     1       0.417  -0.016  -1.260  0.00  0.00    -0.014 C 
ATOM     18  C   UNL     1      -0.317  -1.108  -0.478  0.00  0.00    -0.074 C 
ATOM     19  C   UNL     1       0.516  -1.510   0.740  0.00  0.00    -0.014 C 
ENDBRANCH  15  18
BRANCH  15  20
ATOM     20  C   UNL     1      -2.336  -1.655   0.695  0.00  0.00    -0.074 C 
ATOM     21  C   UNL     1      -2.036  -3.011   0.053  0.00  0.00    -0.014 C 
ATOM     22  C   UNL     1      -1.876  -1.669   2.154  0.00  0.00    -0.014 C 
ENDBRANCH  15  20
ENDBRANCH  14  15
ENDBRANCH  13  14
ENDBRANCH   1  13
TORSDOF 5
