REMARK  Name = ZINC38830196
REMARK  7 active torsions:
REMARK  status: ('A' for Active; 'I' for Inactive)
REMARK    1  A    between atoms: C_1  and  C_2
REMARK    2  A    between atoms: C_2  and  O_3
REMARK    3  A    between atoms: O_3  and  C_4
REMARK    4  A    between atoms: C_4  and  C_5
REMARK    5  A    between atoms: C_5  and  N_6
REMARK    6  A    between atoms: N_15  and  C_16
REMARK    7  A    between atoms: C_16  and  C_18
REMARK                            x       y       z     vdW  Elec       q    Type
REMARK                         _______ _______ _______ _____ _____    ______ ____
ROOT
ATOM      1  N   UNL     1       2.868  -1.809  -2.493  0.00  0.00    -0.319 N 
ATOM      2  C   UNL     1       3.208  -0.545  -2.938  0.00  0.00    +0.058 A 
ATOM      3  C   UNL     1       2.389   0.448  -3.492  0.00  0.00    +0.027 A 
ATOM      4  C   UNL     1       2.918   1.656  -3.881  0.00  0.00    +0.002 A 
ATOM      5  C   UNL     1       4.269   1.927  -3.737  0.00  0.00    +0.001 A 
ATOM      6  C   UNL     1       5.099   0.963  -3.192  0.00  0.00    +0.017 A 
ATOM      7  C   UNL     1       4.571  -0.245  -2.803  0.00  0.00    +0.039 A 
ATOM      8  S   UNL     1       5.240  -1.722  -2.083  0.00  0.00    -0.052 S 
ATOM      9  C   UNL     1       3.825  -2.624  -1.979  0.00  0.00    +0.167 A 
ATOM     10  N   UNL     1       3.678  -3.856  -1.505  0.00  0.00    -0.152 NA
ENDROOT
BRANCH  10  11
ATOM     11  C   UNL     1       4.737  -4.522  -1.033  0.00  0.00    +0.270 C 
ATOM     12  O   UNL     1       5.837  -3.999  -1.038  0.00  0.00    -0.268 OA
BRANCH  11  13
ATOM     13  C   UNL     1       4.572  -5.896  -0.504  0.00  0.00    +0.041 A 
ATOM     14  C   UNL     1       3.301  -6.496  -0.506  0.00  0.00    +0.015 A 
ATOM     15  C   UNL     1       3.125  -7.754  -0.027  0.00  0.00    +0.030 A 
ATOM     16  C   UNL     1       4.221  -8.475   0.481  0.00  0.00    +0.089 A 
ATOM     17  C   UNL     1       5.509  -7.880   0.488  0.00  0.00    +0.090 A 
ATOM     18  C   UNL     1       5.671  -6.580  -0.017  0.00  0.00    +0.043 A 
ATOM     19  N   UNL     1       6.551  -8.566   0.970  0.00  0.00    -0.252 NA
ATOM     20  C   UNL     1       6.373  -9.783   1.431  0.00  0.00    +0.131 A 
ATOM     21  C   UNL     1       5.106 -10.370   1.423  0.00  0.00    +0.131 A 
ATOM     22  N   UNL     1       4.066  -9.716   0.956  0.00  0.00    -0.252 NA
ENDBRANCH  11  13
ENDBRANCH  10  11
BRANCH   1  23
ATOM     23  C   UNL     1       1.478  -2.265  -2.569  0.00  0.00    +0.152 C 
BRANCH  23  24
ATOM     24  C   UNL     1       0.746  -1.888  -1.280  0.00  0.00    +0.181 C 
BRANCH  24  25
ATOM     25  O   UNL     1       0.671  -0.465  -1.174  0.00  0.00    -0.378 OA
BRANCH  25  27
ATOM     26  C   UNL     1      -0.019   1.526   0.010  0.00  0.00    +0.034 C 
ATOM     27  C   UNL     1       0.002  -0.004   0.002  0.00  0.00    +0.156 C 
ENDBRANCH  25  27
ENDBRANCH  24  25
ENDBRANCH  23  24
ENDBRANCH   1  23
TORSDOF 6
