REMARK  Name = ZINC08410884
REMARK  6 active torsions:
REMARK  status: ('A' for Active; 'I' for Inactive)
REMARK    1  A    between atoms: C_1  and  C_2
REMARK    2  A    between atoms: C_5  and  C_24
REMARK    3  A    between atoms: C_6  and  N_8
REMARK    4  A    between atoms: C_14  and  C_15
REMARK    5  A    between atoms: C_18  and  O_22
REMARK    6  A    between atoms: C_19  and  O_21
REMARK                            x       y       z     vdW  Elec       q    Type
REMARK                         _______ _______ _______ _____ _____    ______ ____
ROOT
ATOM      1  N   UNL     1      -1.232  -2.843   2.725  0.00  0.00    -0.225 NA
ATOM      2  C   UNL     1      -0.814  -2.182   3.781  0.00  0.00    +0.166 C 
ATOM      3  N   UNL     1      -0.474  -2.677   5.022  0.00  0.00    -0.260 N 
ATOM      4  C   UNL     1      -0.070  -1.865   5.984  0.00  0.00    +0.256 C 
ATOM      5  O   UNL     1       0.235  -2.285   7.085  0.00  0.00    -0.269 OA
ATOM      6  C   UNL     1      -0.003  -0.427   5.661  0.00  0.00    +0.078 C 
ATOM      7  C   UNL     1       0.373   0.615   6.446  0.00  0.00    +0.028 C 
ATOM      8  S   UNL     1      -0.541  -0.427   3.957  0.00  0.00    -0.049 S 
ATOM      9  H   UNL     1      -0.533  -3.630   5.191  0.00  0.00    +0.157 HD
ENDROOT
BRANCH   1  15
ATOM     10  C   UNL     1      -3.762   0.834   0.712  0.00  0.00    +0.044 C 
ATOM     11  C   UNL     1      -2.861  -0.368   0.589  0.00  0.00    -0.048 A 
ATOM     12  C   UNL     1      -2.433  -0.785  -0.659  0.00  0.00    +0.004 A 
ATOM     13  C   UNL     1      -1.605  -1.888  -0.780  0.00  0.00    +0.006 A 
ATOM     14  C   UNL     1      -1.201  -2.578   0.343  0.00  0.00    -0.025 A 
ATOM     15  C   UNL     1      -1.629  -2.162   1.606  0.00  0.00    +0.070 A 
ATOM     16  C   UNL     1      -2.461  -1.046   1.722  0.00  0.00    +0.031 A 
ATOM     17  C   UNL     1      -0.300  -3.779   0.208  0.00  0.00    +0.046 C 
ENDBRANCH   1  15
BRANCH   7  18
ATOM     18  C   UNL     1       0.190   1.993   5.973  0.00  0.00    -0.020 A 
ATOM     19  C   UNL     1      -0.544   2.245   4.808  0.00  0.00    +0.012 A 
ATOM     20  C   UNL     1      -0.715   3.539   4.367  0.00  0.00    +0.050 A 
ATOM     21  C   UNL     1      -0.160   4.596   5.076  0.00  0.00    +0.158 A 
ATOM     22  C   UNL     1       0.573   4.354   6.237  0.00  0.00    +0.159 A 
ATOM     23  C   UNL     1       0.744   3.061   6.690  0.00  0.00    +0.057 A 
BRANCH  22  24
ATOM     24  O   UNL     1       1.115   5.393   6.928  0.00  0.00    -0.503 OA
ATOM     25  H   UNL     1       0.532   5.760   7.607  0.00  0.00    +0.292 HD
ENDBRANCH  22  24
BRANCH  21  26
ATOM     26  O   UNL     1      -0.331   5.870   4.636  0.00  0.00    -0.503 OA
ATOM     27  H   UNL     1      -1.119   6.305   4.988  0.00  0.00    +0.292 HD
ENDBRANCH  21  26
ENDBRANCH   7  18
TORSDOF 4
