REMARK  Name = ZINC40944178
REMARK  7 active torsions:
REMARK  status: ('A' for Active; 'I' for Inactive)
REMARK    1  A    between atoms: C_1  and  C_2
REMARK    2  A    between atoms: C_2  and  C_3
REMARK    3  A    between atoms: C_2  and  C_4
REMARK    4  A    between atoms: C_7  and  O_11
REMARK    5  A    between atoms: O_11  and  C_12
REMARK    6  A    between atoms: C_12  and  C_13
REMARK    7  A    between atoms: C_18  and  C_21
REMARK                            x       y       z     vdW  Elec       q    Type
REMARK                         _______ _______ _______ _____ _____    ______ ____
ROOT
ATOM      1  C   UNL     1      -7.471  -2.193   0.995  0.00  0.00    +0.256 C 
ATOM      2  O   UNL     1      -7.720  -2.878   0.026  0.00  0.00    -0.272 OA
ATOM      3  N   UNL     1      -8.418  -1.977   1.929  0.00  0.00    -0.262 N 
ATOM      4  C   UNL     1      -9.680  -2.539   1.782  0.00  0.00    +0.165 A 
ATOM      5  N   UNL     1     -10.734  -2.445   2.571  0.00  0.00    -0.225 NA
ATOM      6  C   UNL     1     -11.872  -3.054   2.274  0.00  0.00    +0.082 A 
ATOM      7  C   UNL     1     -11.958  -3.794   1.128  0.00  0.00    +0.077 A 
ATOM      8  S   UNL     1     -10.310  -3.576   0.469  0.00  0.00    -0.060 S 
ATOM      9  H   UNL     1      -8.219  -1.429   2.704  0.00  0.00    +0.157 HD
ENDROOT
BRANCH   6  10
ATOM     10  C   UNL     1     -13.043  -2.934   3.177  0.00  0.00    +0.019 A 
ATOM     11  C   UNL     1     -14.237  -3.581   2.864  0.00  0.00    +0.013 A 
ATOM     12  C   UNL     1     -15.323  -3.467   3.708  0.00  0.00    +0.021 A 
ATOM     13  C   UNL     1     -15.229  -2.710   4.864  0.00  0.00    +0.042 A 
ATOM     14  C   UNL     1     -14.046  -2.065   5.180  0.00  0.00    +0.040 A 
ATOM     15  C   UNL     1     -12.951  -2.177   4.345  0.00  0.00    +0.052 A 
ATOM     16 CL   UNL     1     -11.465  -1.373   4.746  0.00  0.00    -0.083 Cl
ATOM     17 CL   UNL     1     -16.599  -2.570   5.920  0.00  0.00    -0.083 Cl
ENDBRANCH   6  10
BRANCH   1  18
ATOM     18  C   UNL     1      -6.102  -1.583   1.154  0.00  0.00    +0.325 C 
BRANCH  18  19
ATOM     19  O   UNL     1      -5.283  -1.954   0.044  0.00  0.00    -0.482 OA
BRANCH  19  23
ATOM     20  C   UNL     1      -1.412  -0.526   0.013  0.00  0.00    -0.044 A 
ATOM     21  C   UNL     1      -2.258  -0.203   1.058  0.00  0.00    +0.007 A 
ATOM     22  C   UNL     1      -3.555  -0.680   1.070  0.00  0.00    +0.047 A 
ATOM     23  C   UNL     1      -4.008  -1.483   0.034  0.00  0.00    +0.135 A 
ATOM     24  C   UNL     1      -3.156  -1.805  -1.014  0.00  0.00    +0.060 A 
ATOM     25  C   UNL     1      -1.862  -1.321  -1.025  0.00  0.00    +0.022 A 
ATOM     26 BR   UNL     1      -3.769  -2.900  -2.429  0.00  0.00    -0.047 Br
BRANCH  20  28
ATOM     27  C   UNL     1      -0.019   1.526   0.010  0.00  0.00    +0.012 C 
ATOM     28  C   UNL     1       0.002  -0.004   0.002  0.00  0.00    +0.013 C 
ATOM     29  C   UNL     1       0.742  -0.511   1.242  0.00  0.00    +0.012 C 
ENDBRANCH  20  28
ENDBRANCH  19  23
ENDBRANCH  18  19
ENDBRANCH   1  18
TORSDOF 5
