REMARK  Name = ZINC37447551
REMARK  5 active torsions:
REMARK  status: ('A' for Active; 'I' for Inactive)
REMARK    1  A    between atoms: C_1  and  C_2
REMARK    2  A    between atoms: C_2  and  O_3
REMARK    3  A    between atoms: O_3  and  C_4
REMARK    4  A    between atoms: C_9  and  N_10
REMARK    5  A    between atoms: C_11  and  C_13
REMARK                            x       y       z     vdW  Elec       q    Type
REMARK                         _______ _______ _______ _____ _____    ______ ____
ROOT
ATOM      1  C   UNL     1       3.317  -1.277   5.590  0.00  0.00    +0.111 C 
ATOM      2  C   UNL     1       4.445  -0.372   5.019  0.00  0.00    +0.035 C 
ATOM      3  C   UNL     1       5.351  -0.200   6.260  0.00  0.00    +0.069 C 
ATOM      4  C   UNL     1       6.750   0.270   5.827  0.00  0.00    +0.089 C 
ATOM      5  S   UNL     1       7.802  -1.156   6.336  0.00  0.00    -0.144 S 
ATOM      6  C   UNL     1       6.445  -2.397   6.508  0.00  0.00    +0.155 C 
ATOM      7  N   UNL     1       5.335  -1.511   6.934  0.00  0.00    -0.272 NA
ATOM      8  C   UNL     1       4.064  -2.176   6.587  0.00  0.00    +0.138 C 
ATOM      9  C   UNL     1       3.229  -2.431   7.812  0.00  0.00    +0.004 A 
ATOM     10  C   UNL     1       2.680  -1.607   8.770  0.00  0.00    +0.008 A 
ATOM     11  C   UNL     1       1.941  -2.148   9.807  0.00  0.00    +0.000 A 
ATOM     12  C   UNL     1       1.754  -3.517   9.877  0.00  0.00    +0.002 A 
ATOM     13  C   UNL     1       2.302  -4.345   8.920  0.00  0.00    +0.023 A 
ATOM     14  C   UNL     1       3.047  -3.808   7.872  0.00  0.00    +0.039 A 
ATOM     15  N   UNL     1       3.691  -4.427   6.799  0.00  0.00    -0.283 N 
ATOM     16  C   UNL     1       4.311  -3.540   5.998  0.00  0.00    +0.243 C 
ATOM     17  O   UNL     1       4.946  -3.791   4.996  0.00  0.00    -0.273 OA
ATOM     18  H   UNL     1       3.691  -5.385   6.647  0.00  0.00    +0.155 HD
ENDROOT
BRANCH   1  20
ATOM     19  N   UNL     1       1.407  -2.503   4.607  0.00  0.00    -0.282 N 
ATOM     20  C   UNL     1       2.689  -2.101   4.496  0.00  0.00    +0.223 C 
ATOM     21  O   UNL     1       3.336  -2.401   3.516  0.00  0.00    -0.275 OA
ATOM     22  H   UNL     1       0.872  -2.214   5.362  0.00  0.00    +0.155 HD
BRANCH  19  28
ATOM     23  C   UNL     1      -0.086  -4.307   3.994  0.00  0.00    +0.142 A 
ATOM     24  C   UNL     1      -0.639  -5.129   3.025  0.00  0.00    +0.047 A 
ATOM     25  C   UNL     1      -0.258  -4.992   1.703  0.00  0.00    +0.004 A 
ATOM     26  C   UNL     1       0.675  -4.036   1.344  0.00  0.00    +0.002 A 
ATOM     27  C   UNL     1       1.230  -3.212   2.304  0.00  0.00    +0.027 A 
ATOM     28  C   UNL     1       0.849  -3.341   3.632  0.00  0.00    +0.076 A 
BRANCH  23  29
ATOM     29  O   UNL     1      -0.461  -4.440   5.294  0.00  0.00    -0.490 OA
BRANCH  29  31
ATOM     30  C   UNL     1      -1.718  -5.452   7.093  0.00  0.00    +0.048 C 
ATOM     31  C   UNL     1      -1.424  -5.453   5.591  0.00  0.00    +0.226 C 
ENDBRANCH  29  31
ENDBRANCH  23  29
ENDBRANCH  19  28
ENDBRANCH   1  20
TORSDOF 4
