REMARK  Name = ZINC13550015
REMARK  11 active torsions:
REMARK  status: ('A' for Active; 'I' for Inactive)
REMARK    1  A    between atoms: C_1  and  C_2
REMARK    2  A    between atoms: C_2  and  C_3
REMARK    3  A    between atoms: C_2  and  C_4
REMARK    4  A    between atoms: C_2  and  C_5
REMARK    5  A    between atoms: C_8  and  O_11
REMARK    6  A    between atoms: O_11  and  C_12
REMARK    7  A    between atoms: C_12  and  C_13
REMARK    8  A    between atoms: C_13  and  N_14
REMARK    9  A    between atoms: C_16  and  C_23
REMARK   10  A    between atoms: C_25  and  O_39
REMARK   11  A    between atoms: N_29  and  C_32
REMARK                            x       y       z     vdW  Elec       q    Type
REMARK                         _______ _______ _______ _____ _____    ______ ____
ROOT
ATOM      1  N   UNL     1       0.271   8.558  -0.021  0.00  0.00    -0.343 N 
ATOM      2  C   UNL     1       1.142   7.536   0.039  0.00  0.00    +0.095 A 
ATOM      3  C   UNL     1       2.429   8.012  -0.155  0.00  0.00    +0.001 A 
ATOM      4  C   UNL     1       2.301   9.472  -0.344  0.00  0.00    +0.007 A 
ATOM      5  C   UNL     1       0.928   9.750  -0.255  0.00  0.00    +0.050 A 
ATOM      6  C   UNL     1       0.490  11.062  -0.398  0.00  0.00    +0.026 A 
ATOM      7  C   UNL     1       1.400  12.071  -0.631  0.00  0.00    +0.002 A 
ATOM      8  C   UNL     1       2.755  11.792  -0.725  0.00  0.00    +0.001 A 
ATOM      9  C   UNL     1       3.209  10.497  -0.585  0.00  0.00    +0.010 A 
ENDROOT
BRANCH   3  10
ATOM     10  C   UNL     1       3.618   7.258  -0.165  0.00  0.00    +0.028 C 
ATOM     11  C   UNL     1       3.835   6.287   0.809  0.00  0.00    +0.097 C 
ATOM     12  C   UNL     1       4.965   5.354   0.724  0.00  0.00    +0.218 C 
ATOM     13  N   UNL     1       5.116   4.455   1.683  0.00  0.00    -0.127 NA
ATOM     14  C   UNL     1       4.281   4.378   2.716  0.00  0.00    +0.340 C 
ATOM     15  O   UNL     1       4.488   3.526   3.562  0.00  0.00    -0.250 OA
ATOM     16  N   UNL     1       3.220   5.184   2.872  0.00  0.00    -0.188 N 
ATOM     17  C   UNL     1       2.940   6.151   1.972  0.00  0.00    +0.263 C 
ATOM     18  O   UNL     1       1.980   6.885   2.116  0.00  0.00    -0.269 OA
BRANCH  16  19
ATOM     19  C   UNL     1       2.392   5.023   3.992  0.00  0.00    +0.046 A 
ATOM     20  C   UNL     1       1.639   3.866   4.139  0.00  0.00    +0.027 A 
ATOM     21  C   UNL     1       0.824   3.709   5.243  0.00  0.00    +0.040 A 
ATOM     22  C   UNL     1       0.753   4.708   6.200  0.00  0.00    +0.124 A 
ATOM     23  C   UNL     1       1.507   5.861   6.057  0.00  0.00    +0.040 A 
ATOM     24  C   UNL     1       2.323   6.021   4.955  0.00  0.00    +0.027 A 
ATOM     25  F   UNL     1      -0.049   4.555   7.276  0.00  0.00    -0.205 F 
ENDBRANCH  16  19
BRANCH  12  26
ATOM     26  O   UNL     1       5.832   5.413  -0.309  0.00  0.00    -0.493 OA
ATOM     27  H   UNL     1       6.539   4.754  -0.268  0.00  0.00    +0.294 HD
ENDBRANCH  12  26
ENDBRANCH   3  10
BRANCH   1  28
ATOM     28  C   UNL     1      -1.179   8.426   0.141  0.00  0.00    +0.163 C 
BRANCH  28  29
ATOM     29  C   UNL     1      -1.836   8.302  -1.235  0.00  0.00    +0.250 C 
BRANCH  29  30
ATOM     30  O   UNL     1      -3.251   8.173  -1.078  0.00  0.00    -0.490 OA
BRANCH  30  34
ATOM     31  C   UNL     1      -5.493   7.805  -4.521  0.00  0.00    -0.042 A 
ATOM     32  C   UNL     1      -6.117   7.800  -3.287  0.00  0.00    +0.008 A 
ATOM     33  C   UNL     1      -5.368   7.923  -2.133  0.00  0.00    +0.046 A 
ATOM     34  C   UNL     1      -3.989   8.052  -2.212  0.00  0.00    +0.121 A 
ATOM     35  C   UNL     1      -3.366   8.063  -3.451  0.00  0.00    +0.046 A 
ATOM     36  C   UNL     1      -4.118   7.933  -4.603  0.00  0.00    +0.008 A 
BRANCH  31  38
ATOM     37  C   UNL     1      -7.310   8.827  -5.864  0.00  0.00    +0.015 C 
ATOM     38  C   UNL     1      -6.312   7.671  -5.779  0.00  0.00    -0.013 C 
ATOM     39  C   UNL     1      -5.386   7.706  -6.996  0.00  0.00    +0.015 C 
ATOM     40  C   UNL     1      -7.071   6.343  -5.754  0.00  0.00    +0.015 C 
ENDBRANCH  31  38
ENDBRANCH  30  34
ENDBRANCH  29  30
ENDBRANCH  28  29
ENDBRANCH   1  28
TORSDOF 8
