REMARK  Name = ZINC39630845
REMARK  13 active torsions:
REMARK  status: ('A' for Active; 'I' for Inactive)
REMARK    1  A    between atoms: C_1  and  C_2
REMARK    2  A    between atoms: C_2  and  S_3
REMARK    3  A    between atoms: S_3  and  C_4
REMARK    4  A    between atoms: C_5  and  C_10
REMARK    5  A    between atoms: C_14  and  C_23
REMARK    6  A    between atoms: N_25  and  C_26
REMARK    7  A    between atoms: C_26  and  C_27
REMARK    8  A    between atoms: C_27  and  C_28
REMARK    9  A    between atoms: C_27  and  C_29
REMARK   10  A    between atoms: C_27  and  C_30
REMARK   11  A    between atoms: C_30  and  N_31
REMARK   12  A    between atoms: N_31  and  C_32
REMARK   13  A    between atoms: N_31  and  C_33
REMARK                            x       y       z     vdW  Elec       q    Type
REMARK                         _______ _______ _______ _____ _____    ______ ____
ROOT
ATOM      1  C   UNL     1       2.870  -1.868  -5.006  0.00  0.00    +0.249 C 
ATOM      2  O   UNL     1       2.707  -0.679  -5.203  0.00  0.00    -0.270 OA
ATOM      3  N   UNL     1       3.300  -2.664  -6.006  0.00  0.00    -0.296 N 
ATOM      4  C   UNL     1       3.448  -4.138  -5.993  0.00  0.00    +0.121 C 
ATOM      5  C   UNL     1       2.974  -4.590  -7.393  0.00  0.00    +0.100 C 
ATOM      6  C   UNL     1       3.164  -3.355  -8.289  0.00  0.00    -0.004 C 
ATOM      7  C   UNL     1       3.725  -2.262  -7.368  0.00  0.00    +0.115 C 
ATOM      8  C   UNL     1       1.824  -2.911  -8.868  0.00  0.00    -0.010 C 
ATOM      9  C   UNL     1       2.047  -1.717  -9.801  0.00  0.00    -0.082 C 
ATOM     10  N   UNL     1       2.966  -2.101 -10.879  0.00  0.00    +0.379 N 
ATOM     11  C   UNL     1       4.281  -2.438 -10.320  0.00  0.00    -0.082 C 
ATOM     12  C   UNL     1       4.152  -3.662  -9.410  0.00  0.00    -0.010 C 
ATOM     13  H   UNL     1       2.594  -2.902 -11.367  0.00  0.00    -0.086 HD
ATOM     14  H   UNL     1       3.064  -1.332 -11.526  0.00  0.00    -0.086 HD
ENDROOT
BRANCH   1  16
ATOM     15  C   UNL     1       1.668  -1.833  -2.812  0.00  0.00    +0.109 A 
ATOM     16  C   UNL     1       2.599  -2.439  -3.675  0.00  0.00    +0.069 A 
ATOM     17  C   UNL     1       3.261  -3.595  -3.246  0.00  0.00    +0.017 A 
ATOM     18  C   UNL     1       2.970  -4.091  -1.988  0.00  0.00    +0.020 A 
ATOM     19  C   UNL     1       2.042  -3.439  -1.196  0.00  0.00    +0.112 A 
ATOM     20  N   UNL     1       1.431  -2.348  -1.615  0.00  0.00    -0.248 NA
BRANCH  15  21
ATOM     21  S   UNL     1       0.818  -0.377  -3.324  0.00  0.00    -0.105 S 
BRANCH  21  23
ATOM     22  C   UNL     1      -1.049   1.293  -2.224  0.00  0.00    +0.015 C 
ATOM     23  C   UNL     1      -0.243   0.031  -1.910  0.00  0.00    +0.072 C 
ENDBRANCH  21  23
ENDBRANCH  15  21
ENDBRANCH   1  16
BRANCH   5  24
ATOM     24  C   UNL     1       1.522  -4.992  -7.351  0.00  0.00    +0.218 C 
ATOM     25  O   UNL     1       0.752  -4.408  -6.618  0.00  0.00    -0.275 OA
ATOM     26  N   UNL     1       1.079  -6.000  -8.127  0.00  0.00    -0.315 N 
ATOM     27  H   UNL     1       1.694  -6.467  -8.713  0.00  0.00    +0.149 HD
BRANCH  26  28
ATOM     28  C   UNL     1      -0.333  -6.391  -8.086  0.00  0.00    +0.108 C 
BRANCH  28  29
ATOM     29  C   UNL     1      -0.569  -7.551  -9.055  0.00  0.00    -0.034 C 
ATOM     30  C   UNL     1      -0.202  -7.113 -10.474  0.00  0.00    +0.010 C 
ATOM     31  C   UNL     1       0.301  -8.741  -8.647  0.00  0.00    +0.010 C 
BRANCH  29  32
ATOM     32  C   UNL     1      -2.043  -7.959  -9.012  0.00  0.00    -0.072 C 
BRANCH  32  33
ATOM     33  N   UNL     1      -2.265  -9.089  -9.924  0.00  0.00    +0.376 N 
ATOM     34  C   UNL     1      -1.974 -10.347  -9.225  0.00  0.00    -0.097 C 
ATOM     35  C   UNL     1      -3.665  -9.090 -10.371  0.00  0.00    -0.097 C 
ATOM     36  H   UNL     1      -1.657  -9.000 -10.724  0.00  0.00    -0.083 HD
ENDBRANCH  32  33
ENDBRANCH  29  32
ENDBRANCH  28  29
ENDBRANCH  26  28
ENDBRANCH   5  24
TORSDOF 8
