REMARK  Name = ZINC24926227
REMARK  7 active torsions:
REMARK  status: ('A' for Active; 'I' for Inactive)
REMARK    1  A    between atoms: C_1  and  N_2
REMARK    2  A    between atoms: N_2  and  C_3
REMARK    3  A    between atoms: N_2  and  C_14
REMARK    4  A    between atoms: C_3  and  C_4
REMARK    5  A    between atoms: C_7  and  C_10
REMARK    6  A    between atoms: C_14  and  C_15
REMARK    7  A    between atoms: C_28  and  C_30
REMARK                            x       y       z     vdW  Elec       q    Type
REMARK                         _______ _______ _______ _____ _____    ______ ____
ROOT
ATOM      1  C   UNL     1      -0.723   1.951   1.250  0.00  0.00    +0.204 C 
ATOM      2  O   UNL     1      -1.166   1.152   2.048  0.00  0.00    -0.277 OA
ATOM      3  N   UNL     1      -0.862   3.273   1.472  0.00  0.00    -0.259 N 
ATOM      4  C   UNL     1      -0.351   4.208   0.562  0.00  0.00    +0.058 A 
ATOM      5  C   UNL     1      -0.974   4.405  -0.666  0.00  0.00    +0.025 A 
ATOM      6  C   UNL     1      -0.481   5.356  -1.540  0.00  0.00    +0.002 A 
ATOM      7  C   UNL     1       0.625   6.113  -1.198  0.00  0.00    +0.002 A 
ATOM      8  C   UNL     1       1.256   5.913   0.017  0.00  0.00    +0.025 A 
ATOM      9  C   UNL     1       0.776   4.954   0.892  0.00  0.00    +0.055 A 
ATOM     10  N   UNL     1       1.414   4.709   2.114  0.00  0.00    -0.284 N 
ATOM     11  C   UNL     1       0.703   4.653   3.262  0.00  0.00    +0.219 C 
ATOM     12  O   UNL     1       1.258   4.365   4.301  0.00  0.00    -0.275 OA
ATOM     13  C   UNL     1      -0.774   4.944   3.260  0.00  0.00    +0.128 C 
ATOM     14  C   UNL     1      -1.545   3.761   2.671  0.00  0.00    +0.194 C 
ATOM     15  H   UNL     1       2.504   4.562   2.145  0.00  0.00    +0.155 HD
ENDROOT
BRANCH  14  16
ATOM     16  C   UNL     1      -2.960   4.210   2.303  0.00  0.00    +0.409 C 
ATOM     17  F   UNL     1      -3.669   3.128   1.770  0.00  0.00    -0.169 F 
ATOM     18  F   UNL     1      -3.614   4.678   3.448  0.00  0.00    -0.169 F 
ATOM     19  F   UNL     1      -2.892   5.236   1.354  0.00  0.00    -0.169 F 
ENDBRANCH  14  16
BRANCH   1  20
ATOM     20  C   UNL     1      -0.018   1.465   0.010  0.00  0.00    +0.019 C 
BRANCH  20  22
ATOM     21  C   UNL     1      -1.356  -0.548  -0.132  0.00  0.00    -0.095 C 
ATOM     22  N   UNL     1       0.002  -0.004   0.002  0.00  0.00    +0.386 N 
ATOM     23  H   UNL     1       0.408  -0.342   0.967  0.00  0.00    -0.081 HD
BRANCH  22  24
ATOM     24  C   UNL     1       0.881  -0.513  -1.060  0.00  0.00    -0.043 C 
BRANCH  24  25
ATOM     25  C   UNL     1       1.071  -1.998  -0.886  0.00  0.00    -0.064 A 
ATOM     26  C   UNL     1       2.116  -2.475  -0.118  0.00  0.00    +0.002 A 
ATOM     27  C   UNL     1       2.288  -3.837   0.045  0.00  0.00    +0.012 A 
ATOM     28  C   UNL     1       1.419  -4.722  -0.568  0.00  0.00    +0.055 A 
ATOM     29  C   UNL     1       0.377  -4.244  -1.340  0.00  0.00    +0.012 A 
ATOM     30  C   UNL     1       0.203  -2.882  -1.499  0.00  0.00    +0.002 A 
BRANCH  28  31
ATOM     31  C   UNL     1       1.609  -6.207  -0.393  0.00  0.00    +0.417 C 
ATOM     32  F   UNL     1       2.445  -6.692  -1.405  0.00  0.00    -0.166 F 
ATOM     33  F   UNL     1       2.191  -6.459   0.854  0.00  0.00    -0.166 F 
ATOM     34  F   UNL     1       0.367  -6.847  -0.467  0.00  0.00    -0.166 F 
ENDBRANCH  28  31
ENDBRANCH  24  25
ENDBRANCH  22  24
ENDBRANCH  20  22
ENDBRANCH   1  20
TORSDOF 6
