REMARK  Name = ZINC21325979
REMARK  11 active torsions:
REMARK  status: ('A' for Active; 'I' for Inactive)
REMARK    1  A    between atoms: C_1  and  C_2
REMARK    2  A    between atoms: C_2  and  N_3
REMARK    3  A    between atoms: N_3  and  C_4
REMARK    4  A    between atoms: N_3  and  S_6
REMARK    5  A    between atoms: C_4  and  C_5
REMARK    6  A    between atoms: S_6  and  C_9
REMARK    7  A    between atoms: C_15  and  C_20
REMARK    8  A    between atoms: N_22  and  C_23
REMARK    9  A    between atoms: C_23  and  C_24
REMARK   10  A    between atoms: C_24  and  C_25
REMARK   11  A    between atoms: C_25  and  N_26
REMARK                            x       y       z     vdW  Elec       q    Type
REMARK                         _______ _______ _______ _____ _____    ______ ____
ROOT
ATOM      1  C   UNL     1      -0.376   0.548  -3.576  0.00  0.00    +0.106 A 
ATOM      2  C   UNL     1      -1.452   1.403  -3.375  0.00  0.00    +0.030 A 
ATOM      3  C   UNL     1      -1.575   2.561  -4.111  0.00  0.00    +0.028 A 
ATOM      4  C   UNL     1      -0.613   2.881  -5.066  0.00  0.00    +0.050 A 
ATOM      5  C   UNL     1       0.474   2.012  -5.266  0.00  0.00    +0.012 A 
ATOM      6  C   UNL     1       0.582   0.845  -4.504  0.00  0.00    +0.039 A 
ATOM      7  C   UNL     1       1.491   2.347  -6.274  0.00  0.00    +0.051 A 
ATOM      8  C   UNL     1       1.345   3.500  -6.990  0.00  0.00    +0.083 A 
ATOM      9  C   UNL     1       0.193   4.362  -6.736  0.00  0.00    +0.250 A 
ATOM     10  N   UNL     1      -0.725   4.036  -5.809  0.00  0.00    -0.322 N 
ATOM     11  O   UNL     1       0.062   5.392  -7.374  0.00  0.00    -0.268 OA
ATOM     12  H   UNL     1      -1.481   4.625  -5.661  0.00  0.00    +0.169 HD
ENDROOT
BRANCH   7  13
ATOM     13  C   UNL     1       2.650   1.451  -6.508  0.00  0.00    +0.245 C 
ATOM     14  O   UNL     1       2.828   0.487  -5.790  0.00  0.00    -0.270 OA
ATOM     15  N   UNL     1       3.506   1.706  -7.518  0.00  0.00    -0.311 N 
ATOM     16  H   UNL     1       3.407   2.515  -8.045  0.00  0.00    +0.149 HD
BRANCH  15  17
ATOM     17  C   UNL     1       4.585   0.763  -7.819  0.00  0.00    +0.106 C 
BRANCH  17  18
ATOM     18  C   UNL     1       5.405   1.286  -9.000  0.00  0.00    +0.040 C 
BRANCH  18  19
ATOM     19  C   UNL     1       6.533   0.301  -9.315  0.00  0.00    +0.124 C 
BRANCH  19  20
ATOM     20  N   UNL     1       7.318   0.802 -10.446  0.00  0.00    -0.338 N 
ATOM     21  C   UNL     1       7.086   0.549 -11.771  0.00  0.00    +0.104 A 
ATOM     22  C   UNL     1       8.039   1.201 -12.465  0.00  0.00    +0.101 A 
ATOM     23  N   UNL     1       8.830   1.835 -11.587  0.00  0.00    -0.352 N 
ATOM     24  C   UNL     1       8.401   1.605 -10.376  0.00  0.00    +0.173 A 
ATOM     25  H   UNL     1       9.598   2.382 -11.816  0.00  0.00    +0.166 HD
ENDBRANCH  19  20
ENDBRANCH  18  19
ENDBRANCH  17  18
ENDBRANCH  15  17
ENDBRANCH   7  13
BRANCH   1  26
ATOM     26  S   UNL     1      -0.241  -0.927  -2.622  0.00  0.00    +0.061 S 
ATOM     27  O   UNL     1       0.563  -1.825  -3.374  0.00  0.00    -0.153 OA
ATOM     28  O   UNL     1      -1.556  -1.257  -2.196  0.00  0.00    -0.153 OA
BRANCH  26  29
ATOM     29  N   UNL     1       0.618  -0.551  -1.258  0.00  0.00    -0.177 NA
BRANCH  29  31
ATOM     30  C   UNL     1      -0.100   1.435  -0.023  0.00  0.00    +0.022 C 
ATOM     31  C   UNL     1      -0.082  -0.095  -0.054  0.00  0.00    +0.106 C 
ENDBRANCH  29  31
BRANCH  29  32
ATOM     32  C   UNL     1       2.078  -0.674  -1.254  0.00  0.00    +0.106 C 
ATOM     33  C   UNL     1       2.473  -2.038  -0.685  0.00  0.00    +0.022 C 
ENDBRANCH  29  32
ENDBRANCH  26  29
ENDBRANCH   1  26
TORSDOF 9
