REMARK  Name = ZINC40755030
REMARK  6 active torsions:
REMARK  status: ('A' for Active; 'I' for Inactive)
REMARK    1  A    between atoms: C_1  and  C_2
REMARK    2  A    between atoms: C_6  and  N_9
REMARK    3  A    between atoms: C_7  and  C_8
REMARK    4  A    between atoms: C_11  and  N_27
REMARK    5  A    between atoms: C_12  and  N_16
REMARK    6  A    between atoms: N_16  and  C_17
REMARK                            x       y       z     vdW  Elec       q    Type
REMARK                         _______ _______ _______ _____ _____    ______ ____
ROOT
ATOM      1  N   UNL     1       0.021  -2.796   2.388  0.00  0.00    -0.298 N 
ATOM      2  C   UNL     1      -0.058  -4.184   2.381  0.00  0.00    +0.149 A 
ATOM      3  C   UNL     1      -0.149  -4.895   3.580  0.00  0.00    +0.106 A 
ATOM      4  C   UNL     1      -0.226  -6.288   3.516  0.00  0.00    +0.149 A 
ATOM      5  N   UNL     1      -0.210  -6.880   2.324  0.00  0.00    -0.219 NA
ATOM      6  C   UNL     1      -0.122  -6.172   1.217  0.00  0.00    +0.225 A 
ATOM      7  N   UNL     1      -0.053  -4.856   1.232  0.00  0.00    -0.219 NA
ATOM      8  H   UNL     1       0.102  -2.319   3.229  0.00  0.00    +0.154 HD
ENDROOT
BRANCH   1  14
ATOM      9  C   UNL     1       1.128   1.246  -0.181  0.00  0.00    +0.044 C 
ATOM     10  C   UNL     1       0.511  -0.126  -0.090  0.00  0.00    -0.046 A 
ATOM     11  C   UNL     1      -0.094  -0.686  -1.201  0.00  0.00    +0.004 A 
ATOM     12  C   UNL     1      -0.661  -1.945  -1.122  0.00  0.00    +0.002 A 
ATOM     13  C   UNL     1      -0.625  -2.647   0.067  0.00  0.00    +0.023 A 
ATOM     14  C   UNL     1      -0.017  -2.088   1.184  0.00  0.00    +0.036 A 
ATOM     15  C   UNL     1       0.557  -0.826   1.099  0.00  0.00    -0.026 A 
ATOM     16  C   UNL     1       1.223  -0.218   2.307  0.00  0.00    +0.046 C 
ENDBRANCH   1  14
BRANCH   3  17
ATOM     17  N   UNL     1      -0.162  -4.228   4.815  0.00  0.00    -0.353 N 
ATOM     18  H   UNL     1      -0.108  -3.260   4.844  0.00  0.00    +0.143 HD
ATOM     19  H   UNL     1      -0.226  -4.735   5.639  0.00  0.00    +0.143 HD
ENDBRANCH   3  17
BRANCH   4  20
ATOM     20  N   UNL     1      -0.318  -7.044   4.679  0.00  0.00    -0.296 N 
ATOM     21  H   UNL     1      -0.396  -6.603   5.539  0.00  0.00    +0.154 HD
BRANCH  20  22
ATOM     22  C   UNL     1      -0.297  -8.437   4.609  0.00  0.00    +0.059 A 
ATOM     23  C   UNL     1      -0.879  -9.087   3.542  0.00  0.00    +0.025 A 
ATOM     24  C   UNL     1      -0.866 -10.476   3.460  0.00  0.00    +0.003 A 
ATOM     25  C   UNL     1      -0.278 -11.230   4.430  0.00  0.00    +0.010 A 
ATOM     26  C   UNL     1       0.326 -10.605   5.533  0.00  0.00    +0.002 A 
ATOM     27  C   UNL     1       0.325  -9.191   5.627  0.00  0.00    +0.092 A 
ATOM     28  N   UNL     1       0.903  -8.594   6.672  0.00  0.00    -0.253 NA
ATOM     29  C   UNL     1       1.482  -9.289   7.621  0.00  0.00    +0.111 A 
ATOM     30  C   UNL     1       1.524 -10.681   7.587  0.00  0.00    +0.020 A 
ATOM     31  C   UNL     1       0.942 -11.355   6.552  0.00  0.00    +0.011 A 
ENDBRANCH  20  22
ENDBRANCH   4  20
TORSDOF 4
