REMARK  Name = ZINC00690507
REMARK  7 active torsions:
REMARK  status: ('A' for Active; 'I' for Inactive)
REMARK    1  A    between atoms: C_1  and  C_2
REMARK    2  A    between atoms: C_2  and  C_3
REMARK    3  A    between atoms: C_2  and  C_4
REMARK    4  A    between atoms: C_2  and  C_5
REMARK    5  A    between atoms: C_8  and  C_11
REMARK    6  A    between atoms: C_17  and  C_19
REMARK    7  A    between atoms: C_22  and  N_25
REMARK                            x       y       z     vdW  Elec       q    Type
REMARK                         _______ _______ _______ _____ _____    ______ ____
ROOT
ATOM      1  C   UNL     1       0.204   0.726  -0.290  0.00  0.00    +0.165 C 
ATOM      2  N   UNL     1       1.481   1.449  -0.139  0.00  0.00    -0.281 N 
ATOM      3  C   UNL     1       1.850   2.337  -1.238  0.00  0.00    +0.120 C 
ATOM      4  C   UNL     1       1.311   1.792  -2.594  0.00  0.00    +0.090 C 
ATOM      5  S   UNL     1      -0.323   1.161  -2.002  0.00  0.00    -0.132 S 
ATOM      6  C   UNL     1       2.262   1.299   0.949  0.00  0.00    +0.248 C 
ATOM      7  O   UNL     1       3.233   2.013   1.104  0.00  0.00    -0.270 OA
ENDROOT
BRANCH   1  11
ATOM      8  C   UNL     1      -2.653   2.099   2.574  0.00  0.00    -0.042 A 
ATOM      9  C   UNL     1      -2.792   0.847   2.004  0.00  0.00    +0.004 A 
ATOM     10  C   UNL     1      -1.867   0.403   1.078  0.00  0.00    +0.006 A 
ATOM     11  C   UNL     1      -0.804   1.211   0.720  0.00  0.00    -0.017 A 
ATOM     12  C   UNL     1      -0.663   2.461   1.293  0.00  0.00    +0.006 A 
ATOM     13  C   UNL     1      -1.590   2.907   2.216  0.00  0.00    +0.004 A 
BRANCH   8  15
ATOM     14  C   UNL     1      -3.679   1.632   4.782  0.00  0.00    +0.015 C 
ATOM     15  C   UNL     1      -3.661   2.583   3.584  0.00  0.00    -0.013 C 
ATOM     16  C   UNL     1      -3.278   3.988   4.053  0.00  0.00    +0.015 C 
ATOM     17  C   UNL     1      -5.050   2.621   2.942  0.00  0.00    +0.015 C 
ENDBRANCH   8  15
ENDBRANCH   1  11
BRANCH   6  18
ATOM     18  C   UNL     1       1.937   0.265   1.955  0.00  0.00    +0.037 A 
ATOM     19  C   UNL     1       0.731  -0.433   1.878  0.00  0.00    +0.015 A 
ATOM     20  C   UNL     1       0.436  -1.400   2.817  0.00  0.00    +0.033 A 
ATOM     21  C   UNL     1       1.328  -1.671   3.839  0.00  0.00    +0.126 A 
ATOM     22  C   UNL     1       2.522  -0.978   3.925  0.00  0.00    +0.033 A 
ATOM     23  C   UNL     1       2.832  -0.013   2.989  0.00  0.00    +0.015 A 
BRANCH  21  24
ATOM     24  N   UNL     1       1.003  -2.706   4.846  0.00  0.00    +0.056 N 
ATOM     25  O   UNL     1       1.786  -2.946   5.747  0.00  0.00    -0.126 OA
ATOM     26  O   UNL     1      -0.048  -3.318   4.773  0.00  0.00    -0.126 OA
ENDBRANCH  21  24
ENDBRANCH   6  18
TORSDOF 4
