REMARK  Name = ZINC09408949
REMARK  8 active torsions:
REMARK  status: ('A' for Active; 'I' for Inactive)
REMARK    1  A    between atoms: C_4  and  C_7
REMARK    2  A    between atoms: C_7  and  O_8
REMARK    3  A    between atoms: O_8  and  C_9
REMARK    4  A    between atoms: C_13  and  C_15
REMARK    5  A    between atoms: C_18  and  C_33
REMARK    6  A    between atoms: N_25  and  C_26
REMARK    7  A    between atoms: C_26  and  C_27
REMARK    8  A    between atoms: C_38  and  O_39
REMARK                            x       y       z     vdW  Elec       q    Type
REMARK                         _______ _______ _______ _____ _____    ______ ____
ROOT
ATOM      1  C   UNL     1       7.518  -2.838   4.244  0.00  0.00    +0.141 C 
ATOM      2  C   UNL     1       8.684  -1.951   4.585  0.00  0.00    +0.035 A 
ATOM      3  C   UNL     1       9.161  -0.649   4.769  0.00  0.00    +0.102 A 
ATOM      4  N   UNL     1      10.436  -0.738   5.092  0.00  0.00    -0.173 NA
ATOM      5  N   UNL     1      10.812  -1.967   5.130  0.00  0.00    -0.272 N 
ATOM      6  H   UNL     1      11.707  -2.269   5.346  0.00  0.00    +0.189 HD
ATOM      7  C   UNL     1       9.761  -2.783   4.822  0.00  0.00    +0.126 A 
ATOM      8  C   UNL     1       9.324  -4.173   4.644  0.00  0.00    +0.266 C 
ATOM      9  O   UNL     1      10.039  -5.148   4.781  0.00  0.00    -0.268 OA
ATOM     10  N   UNL     1       8.021  -4.216   4.309  0.00  0.00    -0.283 N 
ENDROOT
BRANCH   1  15
ATOM     11  C   UNL     1       5.314  -1.694   1.396  0.00  0.00    +0.121 A 
ATOM     12  C   UNL     1       6.117  -1.971   0.299  0.00  0.00    +0.045 A 
ATOM     13  C   UNL     1       7.368  -2.526   0.483  0.00  0.00    +0.004 A 
ATOM     14  C   UNL     1       7.821  -2.806   1.760  0.00  0.00    +0.006 A 
ATOM     15  C   UNL     1       7.022  -2.531   2.854  0.00  0.00    -0.019 A 
ATOM     16  C   UNL     1       5.772  -1.970   2.676  0.00  0.00    +0.051 A 
BRANCH  11  17
ATOM     17  O   UNL     1       4.083  -1.147   1.217  0.00  0.00    -0.487 OA
BRANCH  17  18
ATOM     18  C   UNL     1       3.676  -0.889  -0.129  0.00  0.00    +0.264 C 
BRANCH  18  22
ATOM     19  C   UNL     1      -0.240   0.816  -0.134  0.00  0.00    +0.000 A 
ATOM     20  C   UNL     1       0.870   1.636  -0.066  0.00  0.00    +0.000 A 
ATOM     21  C   UNL     1       2.138   1.084  -0.064  0.00  0.00    +0.007 A 
ATOM     22  C   UNL     1       2.295  -0.287  -0.130  0.00  0.00    -0.010 A 
ATOM     23  C   UNL     1       1.184  -1.108  -0.197  0.00  0.00    +0.007 A 
ATOM     24  C   UNL     1      -0.084  -0.556  -0.200  0.00  0.00    +0.000 A 
ENDBRANCH  18  22
ENDBRANCH  17  18
ENDBRANCH  11  17
ENDBRANCH   1  15
BRANCH   3  25
ATOM     25  C   UNL     1       8.376   0.603   4.627  0.00  0.00    +0.044 A 
ATOM     26  C   UNL     1       7.002   0.546   4.407  0.00  0.00    +0.014 A 
ATOM     27  C   UNL     1       6.277   1.712   4.276  0.00  0.00    +0.001 A 
ATOM     28  C   UNL     1       6.909   2.940   4.361  0.00  0.00    +0.004 A 
ATOM     29  C   UNL     1       8.273   3.008   4.578  0.00  0.00    +0.046 A 
ATOM     30  C   UNL     1       9.012   1.844   4.718  0.00  0.00    +0.126 A 
BRANCH  30  31
ATOM     31  O   UNL     1      10.351   1.910   4.938  0.00  0.00    -0.506 OA
ATOM     32  H   UNL     1      10.882   1.919   4.130  0.00  0.00    +0.292 HD
ENDBRANCH  30  31
ENDBRANCH   3  25
BRANCH  10  33
ATOM     33  C   UNL     1       7.239  -5.428   4.051  0.00  0.00    +0.140 C 
BRANCH  33  34
ATOM     34  C   UNL     1       7.324  -5.785   2.566  0.00  0.00    +0.136 C 
ATOM     35  C   UNL     1       6.407  -6.989   2.263  0.00  0.00    +0.035 C 
ATOM     36  C   UNL     1       7.258  -7.805   1.252  0.00  0.00    +0.031 C 
ATOM     37  C   UNL     1       8.688  -7.530   1.782  0.00  0.00    +0.160 C 
ATOM     38  O   UNL     1       8.665  -6.165   2.234  0.00  0.00    -0.375 OA
ENDBRANCH  33  34
ENDBRANCH  10  33
TORSDOF 8
