REMARK  Name = ZINC13496415
REMARK  10 active torsions:
REMARK  status: ('A' for Active; 'I' for Inactive)
REMARK    1  A    between atoms: C_1  and  C_2
REMARK    2  A    between atoms: C_5  and  S_8
REMARK    3  A    between atoms: S_8  and  N_11
REMARK    4  A    between atoms: C_12  and  C_13
REMARK    5  A    between atoms: N_14  and  C_15
REMARK    6  A    between atoms: C_17  and  C_23
REMARK    7  A    between atoms: C_18  and  O_22
REMARK    8  A    between atoms: C_20  and  C_21
REMARK    9  A    between atoms: C_23  and  C_24
REMARK   10  A    between atoms: C_23  and  C_25
REMARK                            x       y       z     vdW  Elec       q    Type
REMARK                         _______ _______ _______ _____ _____    ______ ____
ROOT
ATOM      1  N   UNL     1       1.651  -5.000  -0.024  0.00  0.00    -0.118 NA
ATOM      2  C   UNL     1       1.954  -6.257  -0.046  0.00  0.00    +0.118 C 
ATOM      3  C   UNL     1       0.862  -7.295  -0.065  0.00  0.00    +0.085 C 
ATOM      4  N   UNL     1       3.269  -6.645  -0.052  0.00  0.00    -0.302 N 
ATOM      5  H   UNL     1       3.497  -7.585   0.017  0.00  0.00    +0.153 HD
ENDROOT
BRANCH   4   6
ATOM      6  C   UNL     1       4.282  -5.684  -0.158  0.00  0.00    +0.036 A 
ATOM      7  C   UNL     1       4.018  -4.459  -0.756  0.00  0.00    +0.031 A 
ATOM      8  C   UNL     1       5.017  -3.512  -0.860  0.00  0.00    -0.002 A 
ATOM      9  C   UNL     1       6.285  -3.784  -0.368  0.00  0.00    +0.121 A 
ATOM     10  C   UNL     1       6.550  -5.008   0.230  0.00  0.00    +0.050 A 
ATOM     11  C   UNL     1       5.550  -5.954   0.340  0.00  0.00    -0.026 A 
ATOM     12  C   UNL     1       5.836  -7.281   0.994  0.00  0.00    +0.046 C 
BRANCH   8  13
ATOM     13  C   UNL     1       4.730  -2.183  -1.509  0.00  0.00    +0.016 C 
ATOM     14  C   UNL     1       4.282  -2.407  -2.955  0.00  0.00    +0.012 C 
ATOM     15  C   UNL     1       3.621  -1.466  -0.736  0.00  0.00    +0.012 C 
ENDBRANCH   8  13
BRANCH   9  16
ATOM     16  O   UNL     1       7.269  -2.852  -0.471  0.00  0.00    -0.506 OA
ATOM     17  H   UNL     1       7.320  -2.249   0.283  0.00  0.00    +0.292 HD
ENDBRANCH   9  16
ENDBRANCH   4   6
BRANCH   1  18
ATOM     18  S   UNL     1       0.062  -4.531  -0.017  0.00  0.00    +0.100 S 
ATOM     19  O   UNL     1      -0.484  -4.966   1.221  0.00  0.00    -0.146 OA
ATOM     20  O   UNL     1      -0.482  -4.922  -1.269  0.00  0.00    -0.146 OA
BRANCH  18  25
ATOM     21  C   UNL     1      -0.020   1.501   0.089  0.00  0.00    +0.044 C 
ATOM     22  C   UNL     1       0.001  -0.005   0.063  0.00  0.00    -0.050 A 
ATOM     23  C   UNL     1       0.012  -0.675  -1.146  0.00  0.00    +0.005 A 
ATOM     24  C   UNL     1       0.031  -2.058  -1.171  0.00  0.00    +0.029 A 
ATOM     25  C   UNL     1       0.039  -2.769   0.014  0.00  0.00    +0.113 A 
ATOM     26  C   UNL     1       0.029  -2.099   1.223  0.00  0.00    +0.029 A 
ATOM     27  C   UNL     1       0.014  -0.718   1.248  0.00  0.00    +0.005 A 
ENDBRANCH  18  25
ENDBRANCH   1  18
TORSDOF 5
