REMARK  Name = ZINC28060705
REMARK  3 active torsions:
REMARK  status: ('A' for Active; 'I' for Inactive)
REMARK    1  A    between atoms: C_1  and  C_2
REMARK    2  A    between atoms: C_10  and  C_13
REMARK    3  A    between atoms: C_21  and  C_29
REMARK                            x       y       z     vdW  Elec       q    Type
REMARK                         _______ _______ _______ _____ _____    ______ ____
ROOT
ATOM      1  C   UNL     1       5.405   6.673   0.837  0.00  0.00    +0.044 C 
ATOM      2  C   UNL     1       4.867   5.345   0.370  0.00  0.00    -0.050 A 
ATOM      3  C   UNL     1       4.631   5.132  -0.977  0.00  0.00    +0.007 A 
ATOM      4  C   UNL     1       4.137   3.919  -1.421  0.00  0.00    +0.046 A 
ATOM      5  C   UNL     1       3.877   2.910  -0.512  0.00  0.00    +0.131 A 
ATOM      6  C   UNL     1       4.115   3.124   0.852  0.00  0.00    +0.038 A 
ATOM      7  C   UNL     1       4.611   4.346   1.289  0.00  0.00    +0.016 A 
ATOM      8  C   UNL     1       3.827   2.020   1.799  0.00  0.00    +0.050 C 
ATOM      9  C   UNL     1       3.060   1.010   1.383  0.00  0.00    +0.026 C 
ATOM     10  C   UNL     1       2.490   1.046  -0.017  0.00  0.00    +0.234 C 
ATOM     11  O   UNL     1       3.389   1.707  -0.907  0.00  0.00    -0.479 OA
ATOM     12  C   UNL     1       2.741  -0.175   2.260  0.00  0.00    +0.181 C 
ATOM     13  N   UNL     1       3.108   0.109   3.640  0.00  0.00    -0.201 N 
ATOM     14  C   UNL     1       3.882   1.161   4.016  0.00  0.00    +0.240 A 
ATOM     15  N   UNL     1       4.014   1.103   5.311  0.00  0.00    -0.092 NA
ATOM     16  N   UNL     1       3.371   0.089   5.779  0.00  0.00    -0.021 NA
ATOM     17  N   UNL     1       2.794  -0.562   4.821  0.00  0.00    -0.042 NA
ATOM     18  N   UNL     1       4.372   2.064   3.088  0.00  0.00    -0.282 N 
ATOM     19  H   UNL     1       5.158   2.795   3.328  0.00  0.00    +0.155 HD
ENDROOT
BRANCH  10  20
ATOM     20  C   UNL     1       1.176   1.783   0.000  0.00  0.00    -0.002 A 
ATOM     21  C   UNL     1       1.158   3.162   0.096  0.00  0.00    +0.010 A 
ATOM     22  C   UNL     1      -0.047   3.839   0.118  0.00  0.00    +0.040 A 
ATOM     23  C   UNL     1      -1.237   3.136   0.033  0.00  0.00    +0.137 A 
ATOM     24  C   UNL     1      -1.218   1.755  -0.064  0.00  0.00    +0.053 A 
ATOM     25  C   UNL     1      -0.011   1.079  -0.080  0.00  0.00    +0.025 A 
ATOM     26 BR   UNL     1      -2.842   0.792  -0.173  0.00  0.00    -0.047 Br
ATOM     27  F   UNL     1      -2.415   3.797   0.048  0.00  0.00    -0.204 F 
ENDBRANCH  10  20
BRANCH  12  28
ATOM     28  C   UNL     1       3.513  -1.376   1.778  0.00  0.00    +0.019 A 
ATOM     29  C   UNL     1       3.046  -2.571   1.341  0.00  0.00    +0.013 A 
ATOM     30  C   UNL     1       3.950  -3.537   0.939  0.00  0.00    +0.008 A 
ATOM     31  C   UNL     1       5.276  -3.264   1.003  0.00  0.00    +0.045 A 
ATOM     32  S   UNL     1       5.279  -1.596   1.640  0.00  0.00    -0.099 S 
ENDBRANCH  12  28
TORSDOF 2
