REMARK  Name = ZINC12249181
REMARK  5 active torsions:
REMARK  status: ('A' for Active; 'I' for Inactive)
REMARK    1  A    between atoms: C_3  and  C_6
REMARK    2  A    between atoms: C_9  and  S_11
REMARK    3  A    between atoms: S_11  and  C_12
REMARK    4  A    between atoms: C_12  and  C_13
REMARK    5  A    between atoms: N_15  and  C_16
REMARK                            x       y       z     vdW  Elec       q    Type
REMARK                         _______ _______ _______ _____ _____    ______ ____
ROOT
ATOM      1  C   UNL     1      10.090   0.122   0.974  0.00  0.00    +0.228 C 
ATOM      2  O   UNL     1      10.366  -0.486   1.986  0.00  0.00    -0.275 OA
ATOM      3  N   UNL     1      10.903   0.051  -0.098  0.00  0.00    -0.282 N 
ATOM      4  H   UNL     1      10.646   0.478  -0.931  0.00  0.00    +0.155 HD
ENDROOT
BRANCH   3   5
ATOM      5  C   UNL     1      12.119  -0.638  -0.011  0.00  0.00    +0.071 A 
ATOM      6  C   UNL     1      12.180  -1.987  -0.339  0.00  0.00    +0.065 A 
ATOM      7  C   UNL     1      13.382  -2.664  -0.252  0.00  0.00    +0.042 A 
ATOM      8  C   UNL     1      14.523  -2.001   0.163  0.00  0.00    +0.044 A 
ATOM      9  C   UNL     1      14.466  -0.658   0.490  0.00  0.00    +0.042 A 
ATOM     10  C   UNL     1      13.268   0.026   0.400  0.00  0.00    +0.065 A 
ATOM     11 CL   UNL     1      13.199   1.713   0.805  0.00  0.00    -0.082 Cl
ATOM     12 CL   UNL     1      16.030  -2.856   0.272  0.00  0.00    -0.083 Cl
ATOM     13 CL   UNL     1      10.748  -2.820  -0.858  0.00  0.00    -0.082 Cl
ENDBRANCH   3   5
BRANCH   1  14
ATOM     14  C   UNL     1       8.837   0.958   0.915  0.00  0.00    +0.175 C 
BRANCH  14  15
ATOM     15  S   UNL     1       7.963   0.850   2.501  0.00  0.00    -0.056 S 
BRANCH  15  19
ATOM     16  C   UNL     1       4.689   2.930   2.593  0.00  0.00    +0.284 A 
ATOM     17  N   UNL     1       5.124   3.164   1.376  0.00  0.00    -0.103 NA
ATOM     18  N   UNL     1       6.227   2.530   1.188  0.00  0.00    -0.101 NA
ATOM     19  C   UNL     1       6.542   1.865   2.275  0.00  0.00    +0.278 A 
ATOM     20  O   UNL     1       5.581   2.106   3.188  0.00  0.00    -0.408 OA
BRANCH  16  23
ATOM     21  C   UNL     1       1.553   4.559   3.531  0.00  0.00    +0.042 A 
ATOM     22  C   UNL     1       2.567   4.298   2.590  0.00  0.00    +0.055 A 
ATOM     23  C   UNL     1       3.462   3.468   3.197  0.00  0.00    +0.191 A 
ATOM     24  O   UNL     1       3.025   3.228   4.449  0.00  0.00    -0.458 OA
ATOM     25  C   UNL     1       1.872   3.885   4.654  0.00  0.00    +0.196 A 
ENDBRANCH  16  23
ENDBRANCH  15  19
ENDBRANCH  14  15
ENDBRANCH   1  14
TORSDOF 5
