REMARK  Name = ZINC63503164
REMARK  7 active torsions:
REMARK  status: ('A' for Active; 'I' for Inactive)
REMARK    1  A    between atoms: C_4  and  O_7
REMARK    2  A    between atoms: O_7  and  C_8
REMARK    3  A    between atoms: N_10  and  C_11
REMARK    4  A    between atoms: C_11  and  C_13
REMARK    5  A    between atoms: C_11  and  C_23
REMARK    6  A    between atoms: C_13  and  C_14
REMARK    7  A    between atoms: N_25  and  C_26
REMARK                            x       y       z     vdW  Elec       q    Type
REMARK                         _______ _______ _______ _____ _____    ______ ____
ROOT
ATOM      1  C   UNL     1       4.693  -4.124   0.255  0.00  0.00    +0.166 C 
ENDROOT
BRANCH   1   4
ATOM      2  C   UNL     1       3.586  -1.963   0.046  0.00  0.00    +0.406 C 
ATOM      3  O   UNL     1       2.517  -2.539   0.084  0.00  0.00    -0.226 OA
ATOM      4  N   UNL     1       4.734  -2.665   0.124  0.00  0.00    -0.269 N 
ATOM      5  H   UNL     1       5.587  -2.205   0.094  0.00  0.00    +0.153 HD
BRANCH   2   6
ATOM      6  O   UNL     1       3.624  -0.622  -0.074  0.00  0.00    -0.412 OA
BRANCH   6  10
ATOM      7  C   UNL     1       0.049   1.434   0.021  0.00  0.00    +0.000 A 
ATOM      8  C   UNL     1       0.484   0.754   1.144  0.00  0.00    +0.004 A 
ATOM      9  C   UNL     1       1.681   0.065   1.115  0.00  0.00    +0.046 A 
ATOM     10  C   UNL     1       2.446   0.055  -0.043  0.00  0.00    +0.133 A 
ATOM     11  C   UNL     1       2.007   0.738  -1.167  0.00  0.00    +0.046 A 
ATOM     12  C   UNL     1       0.810   1.426  -1.133  0.00  0.00    +0.004 A 
ENDBRANCH   6  10
ENDBRANCH   2   6
ENDBRANCH   1   4
BRANCH   1  13
ATOM     13  C   UNL     1       5.958  -4.605   0.917  0.00  0.00    +0.238 C 
ATOM     14  O   UNL     1       6.810  -3.808   1.248  0.00  0.00    -0.273 OA
ATOM     15  N   UNL     1       6.142  -5.921   1.142  0.00  0.00    -0.284 N 
ATOM     16  H   UNL     1       5.502  -6.565   0.802  0.00  0.00    +0.155 HD
BRANCH  15  17
ATOM     17  C   UNL     1       7.258  -6.357   1.866  0.00  0.00    +0.034 A 
ATOM     18  C   UNL     1       7.765  -7.633   1.659  0.00  0.00    +0.024 A 
ATOM     19  C   UNL     1       8.866  -8.062   2.374  0.00  0.00    +0.017 A 
ATOM     20  C   UNL     1       9.464  -7.221   3.297  0.00  0.00    +0.018 A 
ATOM     21  C   UNL     1       8.960  -5.949   3.505  0.00  0.00    +0.017 A 
ATOM     22  C   UNL     1       7.862  -5.514   2.788  0.00  0.00    +0.024 A 
ATOM     23 BR   UNL     1      10.971  -7.810   4.274  0.00  0.00    -0.050 Br
ENDBRANCH  15  17
ENDBRANCH   1  13
BRANCH   1  24
ATOM     24  C   UNL     1       4.572  -4.757  -1.133  0.00  0.00    +0.065 C 
BRANCH  24  25
ATOM     25  C   UNL     1       3.249  -4.373  -1.746  0.00  0.00    -0.039 C 
ATOM     26  C   UNL     1       3.013  -3.348  -2.596  0.00  0.00    -0.001 A 
ATOM     27  C   UNL     1       3.884  -2.321  -3.180  0.00  0.00    +0.010 A 
ATOM     28  C   UNL     1       3.346  -1.404  -4.017  0.00  0.00    +0.001 A 
ATOM     29  C   UNL     1       1.982  -1.410  -4.339  0.00  0.00    +0.002 A 
ATOM     30  C   UNL     1       1.120  -2.322  -3.842  0.00  0.00    +0.026 A 
ATOM     31  C   UNL     1       1.577  -3.333  -2.952  0.00  0.00    +0.043 A 
ATOM     32  N   UNL     1       0.949  -4.311  -2.347  0.00  0.00    -0.380 N 
ATOM     33  C   UNL     1       1.918  -5.062  -1.541  0.00  0.00    +0.144 C 
ATOM     34  H   UNL     1       0.002  -4.508  -2.421  0.00  0.00    +0.160 HD
ENDBRANCH  24  25
ENDBRANCH   1  24
TORSDOF 7
