REMARK  Name = ZINC18111827
REMARK  3 active torsions:
REMARK  status: ('A' for Active; 'I' for Inactive)
REMARK    1  A    between atoms: C_7  and  C_13
REMARK    2  A    between atoms: N_15  and  C_16
REMARK    3  A    between atoms: C_20  and  C_22
REMARK                            x       y       z     vdW  Elec       q    Type
REMARK                         _______ _______ _______ _____ _____    ______ ____
ROOT
ATOM      1  C   UNL     1       3.689  -1.900  -0.536  0.00  0.00    +0.269 C 
ATOM      2  O   UNL     1       2.712  -2.401  -1.057  0.00  0.00    -0.268 OA
ATOM      3  N   UNL     1       3.621  -0.650  -0.036  0.00  0.00    -0.280 N 
ATOM      4  H   UNL     1       4.419  -0.222   0.310  0.00  0.00    +0.155 HD
ENDROOT
BRANCH   1  11
ATOM      5  C   UNL     1       4.118  -5.943  -2.088  0.00  0.00    +0.001 A 
ATOM      6  C   UNL     1       5.336  -6.601  -1.976  0.00  0.00    +0.001 A 
ATOM      7  C   UNL     1       6.415  -5.988  -1.377  0.00  0.00    +0.014 A 
ATOM      8  C   UNL     1       6.277  -4.696  -0.881  0.00  0.00    +0.050 A 
ATOM      9  C   UNL     1       5.035  -4.028  -0.990  0.00  0.00    +0.020 A 
ATOM     10  C   UNL     1       3.960  -4.662  -1.603  0.00  0.00    +0.011 A 
ATOM     11  C   UNL     1       4.952  -2.660  -0.452  0.00  0.00    +0.154 A 
ATOM     12  N   UNL     1       6.011  -2.127   0.108  0.00  0.00    -0.166 NA
ATOM     13  N   UNL     1       7.140  -2.719   0.221  0.00  0.00    -0.242 N 
ATOM     14  H   UNL     1       7.867  -2.242   0.651  0.00  0.00    +0.192 HD
ATOM     15  C   UNL     1       7.374  -3.969  -0.228  0.00  0.00    +0.272 A 
ATOM     16  O   UNL     1       8.469  -4.484  -0.094  0.00  0.00    -0.266 OA
ENDBRANCH   1  11
BRANCH   3  17
ATOM     17  C   UNL     1       2.399   0.029  -0.015  0.00  0.00    +0.034 A 
ATOM     18  C   UNL     1       2.365   1.407  -0.182  0.00  0.00    +0.023 A 
ATOM     19  C   UNL     1       1.157   2.075  -0.161  0.00  0.00    +0.002 A 
ATOM     20  C   UNL     1      -0.020   1.372   0.025  0.00  0.00    +0.005 A 
ATOM     21  C   UNL     1       0.010  -0.000   0.192  0.00  0.00    -0.023 A 
ATOM     22  C   UNL     1       1.215  -0.674   0.172  0.00  0.00    +0.028 A 
BRANCH  21  23
ATOM     23  C   UNL     1      -1.275  -0.762   0.395  0.00  0.00    +0.133 C 
ATOM     24  S   UNL     1      -2.364  -0.512  -1.037  0.00  0.00    -0.142 S 
ATOM     25  C   UNL     1      -3.889  -1.378  -0.574  0.00  0.00    +0.071 C 
ATOM     26  C   UNL     1      -4.497  -0.740   0.670  0.00  0.00    +0.021 C 
ATOM     27  C   UNL     1      -3.675  -1.075   1.909  0.00  0.00    +0.071 C 
ATOM     28  S   UNL     1      -2.113  -0.153   1.887  0.00  0.00    -0.142 S 
ENDBRANCH  21  23
ENDBRANCH   3  17
TORSDOF 3
