REMARK  Name = ZINC10059386
REMARK  9 active torsions:
REMARK  status: ('A' for Active; 'I' for Inactive)
REMARK    1  A    between atoms: C_1  and  C_2
REMARK    2  A    between atoms: C_2  and  C_3
REMARK    3  A    between atoms: C_2  and  C_4
REMARK    4  A    between atoms: C_2  and  C_5
REMARK    5  A    between atoms: C_14  and  O_33
REMARK    6  A    between atoms: C_16  and  C_19
REMARK    7  A    between atoms: C_23  and  O_25
REMARK    8  A    between atoms: O_25  and  C_26
REMARK    9  A    between atoms: C_26  and  C_28
REMARK                            x       y       z     vdW  Elec       q    Type
REMARK                         _______ _______ _______ _____ _____    ______ ____
ROOT
ATOM      1  C   UNL     1       0.684  -0.353   0.519  0.00  0.00    -0.000 C 
ATOM      2  C   UNL     1      -0.166   0.271  -0.592  0.00  0.00    +0.009 C 
ATOM      3  C   UNL     1      -0.140   1.795  -0.473  0.00  0.00    +0.037 C 
ATOM      4  C   UNL     1       1.311   2.259  -0.414  0.00  0.00    -0.023 A 
ATOM      5  C   UNL     1       2.302   1.395  -0.095  0.00  0.00    -0.004 A 
ATOM      6  S   UNL     1       3.787   2.364  -0.153  0.00  0.00    -0.078 S 
ATOM      7  C   UNL     1       3.105   3.871  -0.589  0.00  0.00    +0.080 A 
ATOM      8  C   UNL     1       1.730   3.623  -0.686  0.00  0.00    +0.068 A 
ATOM      9  C   UNL     1       0.856   4.767  -1.052  0.00  0.00    +0.220 C 
ATOM     10  N   UNL     1       1.386   5.958  -1.062  0.00  0.00    -0.223 NA
ATOM     11  C   UNL     1       2.749   6.265  -0.644  0.00  0.00    +0.224 C 
ATOM     12  N   UNL     1       3.648   5.110  -0.826  0.00  0.00    -0.313 N 
ATOM     13  C   UNL     1       2.164  -0.059   0.233  0.00  0.00    +0.046 C 
ATOM     14  H   UNL     1       4.572   5.220  -1.099  0.00  0.00    +0.149 HD
ENDROOT
BRANCH  11  15
ATOM     15  C   UNL     1       2.740   6.656   0.811  0.00  0.00    -0.002 A 
ATOM     16  C   UNL     1       3.863   6.442   1.591  0.00  0.00    +0.007 A 
ATOM     17  C   UNL     1       3.858   6.801   2.926  0.00  0.00    +0.004 A 
ATOM     18  C   UNL     1       2.732   7.374   3.485  0.00  0.00    +0.046 A 
ATOM     19  C   UNL     1       1.605   7.589   2.705  0.00  0.00    +0.132 A 
ATOM     20  C   UNL     1       1.614   7.234   1.364  0.00  0.00    +0.053 A 
BRANCH  19  21
ATOM     21  O   UNL     1       0.496   8.152   3.253  0.00  0.00    -0.422 OA
BRANCH  21  22
ATOM     22  C   UNL     1      -0.597   7.377   3.408  0.00  0.00    +0.351 C 
ATOM     23  O   UNL     1      -0.540   6.188   3.159  0.00  0.00    -0.244 OA
BRANCH  22  24
ATOM     24  C   UNL     1      -1.853   7.968   3.875  0.00  0.00    +0.097 A 
ATOM     25  C   UNL     1      -3.077   7.355   4.098  0.00  0.00    +0.022 A 
ATOM     26  C   UNL     1      -4.102   8.152   4.541  0.00  0.00    +0.008 A 
ATOM     27  C   UNL     1      -3.876   9.478   4.738  0.00  0.00    +0.046 A 
ATOM     28  S   UNL     1      -2.205   9.661   4.313  0.00  0.00    -0.090 S 
ENDBRANCH  22  24
ENDBRANCH  21  22
ENDBRANCH  19  21
ENDBRANCH  11  15
BRANCH   1  30
ATOM     29  C   UNL     1       0.861  -2.469  -0.797  0.00  0.00    +0.011 C 
ATOM     30  C   UNL     1       0.458  -1.866   0.550  0.00  0.00    -0.035 C 
ATOM     31  C   UNL     1       1.309  -2.486   1.661  0.00  0.00    +0.011 C 
ATOM     32  C   UNL     1      -1.020  -2.155   0.818  0.00  0.00    +0.011 C 
ENDBRANCH   1  30
BRANCH   9  33
ATOM     33  O   UNL     1      -0.447   4.579  -1.364  0.00  0.00    -0.492 OA
ATOM     34  H   UNL     1      -0.920   5.393  -1.586  0.00  0.00    +0.294 HD
ENDBRANCH   9  33
TORSDOF 6
