REMARK  Name = ZINC08800999
REMARK  8 active torsions:
REMARK  status: ('A' for Active; 'I' for Inactive)
REMARK    1  A    between atoms: C_1  and  C_2
REMARK    2  A    between atoms: C_5  and  S_8
REMARK    3  A    between atoms: S_8  and  N_11
REMARK    4  A    between atoms: N_11  and  C_12
REMARK    5  A    between atoms: C_12  and  C_13
REMARK    6  A    between atoms: C_13  and  C_15
REMARK    7  A    between atoms: C_13  and  N_57
REMARK    8  A    between atoms: N_23  and  C_24
REMARK                            x       y       z     vdW  Elec       q    Type
REMARK                         _______ _______ _______ _____ _____    ______ ____
ROOT
ATOM      1  C   UNL     1       2.310   4.983   3.650  0.00  0.00    -0.022 C 
ENDROOT
BRANCH   1   2
ATOM      2  C   UNL     1       3.434   4.442   4.495  0.00  0.00    -0.059 A 
ATOM      3  C   UNL     1       3.229   3.332   5.293  0.00  0.00    +0.004 A 
ATOM      4  C   UNL     1       4.255   2.832   6.066  0.00  0.00    +0.023 A 
ATOM      5  C   UNL     1       5.505   3.449   6.057  0.00  0.00    +0.033 A 
ATOM      6  C   UNL     1       5.702   4.564   5.251  0.00  0.00    -0.025 A 
ATOM      7  C   UNL     1       4.673   5.058   4.477  0.00  0.00    +0.007 A 
ATOM      8  C   UNL     1       7.137   5.019   5.424  0.00  0.00    +0.056 C 
ATOM      9  C   UNL     1       7.808   3.793   6.086  0.00  0.00    +0.109 C 
ATOM     10  N   UNL     1       6.672   3.128   6.761  0.00  0.00    -0.332 N 
ATOM     11  C   UNL     1       6.871   1.674   6.816  0.00  0.00    +0.129 C 
ENDBRANCH   1   2
BRANCH   1  16
ATOM     12  C   UNL     1       1.341   5.688   5.770  0.00  0.00    -0.078 C 
ATOM     13  C   UNL     1      -0.067   6.144   6.226  0.00  0.00    -0.020 C 
ATOM     14  C   UNL     1      -0.726   6.607   4.906  0.00  0.00    -0.020 C 
ATOM     15  C   UNL     1       0.061   5.891   3.792  0.00  0.00    -0.078 C 
ATOM     16  N   UNL     1       1.062   5.064   4.467  0.00  0.00    +0.385 N 
ATOM     17  H   UNL     1       0.691   4.117   4.609  0.00  0.00    -0.081 HD
ENDBRANCH   1  16
BRANCH   1  18
ATOM     18  C   UNL     1       2.084   4.061   2.450  0.00  0.00    +0.095 C 
BRANCH  18  19
ATOM     19  N   UNL     1       1.087   4.656   1.558  0.00  0.00    -0.191 NA
ATOM     20  H   UNL     1       0.536   5.392   1.868  0.00  0.00    +0.148 HD
BRANCH  19  21
ATOM     21  S   UNL     1       0.898   4.072   0.019  0.00  0.00    +0.058 S 
ATOM     22  O   UNL     1       2.199   3.994  -0.547  0.00  0.00    -0.153 OA
ATOM     23  O   UNL     1      -0.148   4.827  -0.576  0.00  0.00    -0.153 OA
BRANCH  21  28
ATOM     24  C   UNL     1      -1.120  -1.594   0.495  0.00  0.00    +0.044 C 
ATOM     25  C   UNL     1      -0.616  -0.179   0.377  0.00  0.00    -0.050 A 
ATOM     26  C   UNL     1      -1.513   0.871   0.309  0.00  0.00    +0.005 A 
ATOM     27  C   UNL     1      -1.051   2.169   0.200  0.00  0.00    +0.029 A 
ATOM     28  C   UNL     1       0.309   2.418   0.159  0.00  0.00    +0.105 A 
ATOM     29  C   UNL     1       1.206   1.368   0.227  0.00  0.00    +0.029 A 
ATOM     30  C   UNL     1       0.743   0.070   0.336  0.00  0.00    +0.005 A 
ENDBRANCH  21  28
ENDBRANCH  19  21
ENDBRANCH  18  19
ENDBRANCH   1  18
TORSDOF 6
