REMARK  Name = ZINC36719428
REMARK  12 active torsions:
REMARK  status: ('A' for Active; 'I' for Inactive)
REMARK    1  A    between atoms: C_1  and  C_2
REMARK    2  A    between atoms: C_4  and  C_16
REMARK    3  A    between atoms: C_5  and  C_15
REMARK    4  A    between atoms: N_6  and  C_7
REMARK    5  A    between atoms: C_10  and  O_13
REMARK    6  A    between atoms: O_13  and  C_14
REMARK    7  A    between atoms: C_17  and  C_18
REMARK    8  A    between atoms: C_17  and  C_20
REMARK    9  A    between atoms: N_22  and  C_23
REMARK   10  A    between atoms: C_23  and  C_24
REMARK   11  A    between atoms: C_24  and  C_25
REMARK   12  A    between atoms: C_25  and  N_26
REMARK                            x       y       z     vdW  Elec       q    Type
REMARK                         _______ _______ _______ _____ _____    ______ ____
ROOT
ATOM      1  C   UNL     1       0.042  -3.340  -1.426  0.00  0.00    +0.033 C 
ATOM      2  C   UNL     1      -0.069  -3.241  -2.799  0.00  0.00    +0.114 C 
ENDROOT
BRANCH   1   6
ATOM      3  C   UNL     1       1.304   1.355  -0.054  0.00  0.00    +0.064 C 
ATOM      4  C   UNL     1       0.847  -0.081  -0.048  0.00  0.00    +0.022 A 
ATOM      5  C   UNL     1       0.773  -0.878  -1.126  0.00  0.00    +0.031 A 
ATOM      6  C   UNL     1       0.282  -2.179  -0.648  0.00  0.00    -0.003 A 
ATOM      7  C   UNL     1       0.101  -2.037   0.718  0.00  0.00    +0.028 A 
ATOM      8  N   UNL     1       0.449  -0.780   1.058  0.00  0.00    -0.317 N 
ATOM      9  C   UNL     1      -0.393  -3.104   1.661  0.00  0.00    +0.064 C 
BRANCH   8  10
ATOM     10  C   UNL     1       0.405  -0.262   2.360  0.00  0.00    +0.047 A 
ATOM     11  C   UNL     1       1.245  -0.773   3.340  0.00  0.00    +0.030 A 
ATOM     12  C   UNL     1       1.201  -0.262   4.622  0.00  0.00    +0.047 A 
ATOM     13  C   UNL     1       0.317   0.762   4.931  0.00  0.00    +0.120 A 
ATOM     14  C   UNL     1      -0.523   1.273   3.952  0.00  0.00    +0.047 A 
ATOM     15  C   UNL     1      -0.475   0.767   2.668  0.00  0.00    +0.030 A 
BRANCH  13  16
ATOM     16  O   UNL     1       0.274   1.264   6.193  0.00  0.00    -0.495 OA
ATOM     17  C   UNL     1      -0.659   2.317   6.441  0.00  0.00    +0.277 C 
ENDBRANCH  13  16
ENDBRANCH   8  10
ENDBRANCH   1   6
BRANCH   2  18
ATOM     18  C   UNL     1      -0.166  -4.457  -3.618  0.00  0.00    +0.254 C 
ATOM     19  O   UNL     1      -0.149  -5.551  -3.087  0.00  0.00    -0.269 OA
ATOM     20  N   UNL     1      -0.275  -4.360  -4.958  0.00  0.00    -0.311 N 
ATOM     21  H   UNL     1      -0.288  -3.487  -5.382  0.00  0.00    +0.149 HD
BRANCH  20  22
ATOM     22  C   UNL     1      -0.372  -5.572  -5.775  0.00  0.00    +0.106 C 
BRANCH  22  23
ATOM     23  C   UNL     1      -0.484  -5.186  -7.251  0.00  0.00    +0.038 C 
BRANCH  23  24
ATOM     24  C   UNL     1      -0.586  -6.452  -8.103  0.00  0.00    +0.119 C 
BRANCH  24  25
ATOM     25  N   UNL     1      -0.694  -6.081  -9.517  0.00  0.00    -0.224 N 
ATOM     26  C   UNL     1      -1.862  -5.857 -10.156  0.00  0.00    +0.246 C 
ATOM     27  O   UNL     1      -2.979  -5.921  -9.690  0.00  0.00    -0.273 OA
ATOM     28  C   UNL     1      -1.480  -5.510 -11.572  0.00  0.00    +0.113 C 
ATOM     29  C   UNL     1      -1.971  -4.105 -11.947  0.00  0.00    +0.035 C 
ATOM     30  C   UNL     1      -2.347  -4.228 -13.447  0.00  0.00    +0.003 C 
ATOM     31  C   UNL     1      -2.960  -5.649 -13.533  0.00  0.00    +0.003 C 
ATOM     32  C   UNL     1      -2.096  -6.493 -12.570  0.00  0.00    +0.035 C 
ATOM     33  N   UNL     1      -0.018  -5.581 -11.585  0.00  0.00    -0.285 N 
ATOM     34  C   UNL     1       0.355  -5.917 -10.334  0.00  0.00    +0.309 C 
ATOM     35  O   UNL     1       1.511  -6.060  -9.988  0.00  0.00    -0.252 OA
ATOM     36  H   UNL     1       0.567  -5.415 -12.342  0.00  0.00    +0.151 HD
ENDBRANCH  24  25
ENDBRANCH  23  24
ENDBRANCH  22  23
ENDBRANCH  20  22
ENDBRANCH   2  18
BRANCH   2  37
ATOM     37  C   UNL     1      -0.089  -1.953  -3.425  0.00  0.00    +0.104 C 
ATOM     38  N   UNL     1      -0.105  -0.931  -3.921  0.00  0.00    -0.191 NA
ENDBRANCH   2  37
TORSDOF 9
