REMARK  Name = ZINC12661158
REMARK  12 active torsions:
REMARK  status: ('A' for Active; 'I' for Inactive)
REMARK    1  A    between atoms: C_1  and  C_2
REMARK    2  A    between atoms: C_2  and  C_3
REMARK    3  A    between atoms: C_3  and  C_5
REMARK    4  A    between atoms: C_3  and  C_37
REMARK    5  A    between atoms: C_5  and  C_6
REMARK    6  A    between atoms: C_6  and  C_7
REMARK    7  A    between atoms: C_7  and  C_9
REMARK    8  A    between atoms: C_7  and  C_10
REMARK    9  A    between atoms: C_16  and  C_36
REMARK   10  A    between atoms: C_28  and  C_35
REMARK   11  A    between atoms: C_37  and  C_38
REMARK   12  A    between atoms: C_37  and  C_39
REMARK                            x       y       z     vdW  Elec       q    Type
REMARK                         _______ _______ _______ _____ _____    ______ ____
ROOT
ATOM      1  C   UNL     1      -3.394   3.791   1.881  0.00  0.00    -0.002 C 
ATOM      2  C   UNL     1      -4.021   2.554   1.207  0.00  0.00    +0.004 C 
ATOM      3  C   UNL     1      -4.301   2.949  -0.260  0.00  0.00    +0.004 C 
ATOM      4  C   UNL     1      -3.291   4.102  -0.534  0.00  0.00    -0.001 C 
ATOM      5  C   UNL     1      -3.326   4.889   0.788  0.00  0.00    -0.026 C 
ATOM      6  C   UNL     1      -2.156   5.831   0.952  0.00  0.00    +0.007 C 
ATOM      7  C   UNL     1      -0.839   5.096   0.775  0.00  0.00    +0.005 C 
ATOM      8  C   UNL     1      -0.812   4.491  -0.632  0.00  0.00    -0.001 C 
ATOM      9  C   UNL     1      -1.922   3.445  -0.730  0.00  0.00    +0.003 C 
ATOM     10  C   UNL     1      -1.730   2.380   0.347  0.00  0.00    +0.078 C 
ATOM     11  C   UNL     1      -0.325   1.823   0.251  0.00  0.00    +0.137 C 
ATOM     12  O   UNL     1      -0.128   0.633   0.196  0.00  0.00    -0.297 OA
ATOM     13  C   UNL     1       0.821   2.806   0.219  0.00  0.00    +0.062 C 
ATOM     14  C   UNL     1       0.541   3.833  -0.885  0.00  0.00    -0.019 C 
ATOM     15  C   UNL     1       1.666   4.866  -0.903  0.00  0.00    +0.009 C 
ATOM     16  C   UNL     1       2.996   4.162  -1.187  0.00  0.00    +0.015 C 
ATOM     17  C   UNL     1       3.271   3.113  -0.110  0.00  0.00    +0.057 C 
ATOM     18  C   UNL     1       2.135   2.086  -0.081  0.00  0.00    +0.026 C 
ATOM     19 BR   UNL     1       4.966   2.200  -0.507  0.00  0.00    -0.088 Br
ATOM     20  C   UNL     1       0.499   3.121  -2.239  0.00  0.00    +0.012 C 
ATOM     21  C   UNL     1      -4.614   5.715   0.839  0.00  0.00    +0.012 C 
ENDROOT
BRANCH   1  22
ATOM     22  C   UNL     1      -4.270   4.258   3.045  0.00  0.00    -0.010 C 
ATOM     23  C   UNL     1      -3.570   5.402   3.782  0.00  0.00    +0.008 C 
BRANCH  22  24
ATOM     24  C   UNL     1      -4.499   3.094   4.011  0.00  0.00    +0.004 C 
BRANCH  24  25
ATOM     25  C   UNL     1      -5.475   3.525   5.107  0.00  0.00    +0.004 C 
BRANCH  25  26
ATOM     26  C   UNL     1      -5.754   2.342   6.036  0.00  0.00    -0.009 C 
BRANCH  26  27
ATOM     27  C   UNL     1      -6.319   1.177   5.221  0.00  0.00    -0.014 C 
ATOM     28  C   UNL     1      -6.599  -0.007   6.150  0.00  0.00    +0.007 C 
ATOM     29  C   UNL     1      -7.621   1.612   4.544  0.00  0.00    +0.007 C 
ENDBRANCH  26  27
BRANCH  26  31
ATOM     30  C   UNL     1      -3.947   3.032   7.617  0.00  0.00    +0.004 C 
ATOM     31  C   UNL     1      -4.453   1.906   6.713  0.00  0.00    +0.000 C 
ENDBRANCH  26  31
ENDBRANCH  25  26
ENDBRANCH  24  25
ENDBRANCH  22  24
ENDBRANCH   1  22
TORSDOF 6
