REMARK  Name = ZINC40376752
REMARK  7 active torsions:
REMARK  status: ('A' for Active; 'I' for Inactive)
REMARK    1  A    between atoms: C_1  and  C_2
REMARK    2  A    between atoms: C_2  and  C_3
REMARK    3  A    between atoms: C_3  and  C_5
REMARK    4  A    between atoms: C_3  and  N_9
REMARK    5  A    between atoms: N_6  and  O_7
REMARK    6  A    between atoms: N_9  and  S_10
REMARK    7  A    between atoms: S_10  and  C_13
REMARK                            x       y       z     vdW  Elec       q    Type
REMARK                         _______ _______ _______ _____ _____    ______ ____
ROOT
ATOM      1  N   UNL     1       2.140   0.009   1.072  0.00  0.00    -0.180 NA
ATOM      2  H   UNL     1       2.746  -0.709   0.831  0.00  0.00    +0.149 HD
ENDROOT
BRANCH   1   3
ATOM      3  S   UNL     1       2.699   1.312   1.927  0.00  0.00    +0.060 S 
ATOM      4  O   UNL     1       1.826   1.476   3.036  0.00  0.00    -0.153 OA
ATOM      5  O   UNL     1       4.100   1.126   2.081  0.00  0.00    -0.153 OA
BRANCH   3   6
ATOM      6  C   UNL     1       2.489   2.733   0.907  0.00  0.00    +0.120 A 
ATOM      7  C   UNL     1       1.651   3.755   1.309  0.00  0.00    +0.045 A 
ATOM      8  C   UNL     1       1.486   4.871   0.508  0.00  0.00    +0.020 A 
ATOM      9  C   UNL     1       2.161   4.964  -0.696  0.00  0.00    +0.016 A 
ATOM     10  C   UNL     1       3.000   3.942  -1.098  0.00  0.00    +0.018 A 
ATOM     11  C   UNL     1       3.168   2.829  -0.294  0.00  0.00    +0.044 A 
ATOM     12 BR   UNL     1       4.322   1.434  -0.842  0.00  0.00    -0.048 Br
ATOM     13 BR   UNL     1       0.338   6.269   1.059  0.00  0.00    -0.050 Br
ENDBRANCH   3   6
ENDBRANCH   1   3
BRANCH   1  14
ATOM     14  C   UNL     1       0.731  -0.060   0.680  0.00  0.00    +0.142 C 
BRANCH  14  15
ATOM     15  C   UNL     1      -0.055  -0.771   1.751  0.00  0.00    +0.150 C 
ATOM     16  N   UNL     1      -1.320  -0.544   1.883  0.00  0.00    -0.075 NA
ATOM     17  N   UNL     1       0.576  -1.663   2.590  0.00  0.00    -0.343 N 
ATOM     18  H   UNL     1       1.525  -1.833   2.491  0.00  0.00    +0.144 HD
ATOM     19  H   UNL     1       0.070  -2.121   3.280  0.00  0.00    +0.144 HD
BRANCH  16  20
ATOM     20  O   UNL     1      -2.058  -1.212   2.890  0.00  0.00    -0.408 OA
ATOM     21  H   UNL     1      -2.996  -0.978   2.911  0.00  0.00    +0.328 HD
ENDBRANCH  16  20
ENDBRANCH  14  15
BRANCH  14  23
ATOM     22  C   UNL     1       1.264  -0.023  -1.761  0.00  0.00    +0.006 C 
ATOM     23  C   UNL     1       0.605  -0.827  -0.638  0.00  0.00    +0.025 C 
ENDBRANCH  14  23
ENDBRANCH   1  14
TORSDOF 6
