REMARK  Name = ZINC10186806
REMARK  5 active torsions:
REMARK  status: ('A' for Active; 'I' for Inactive)
REMARK    1  A    between atoms: C_3  and  S_6
REMARK    2  A    between atoms: S_6  and  N_9
REMARK    3  A    between atoms: C_12  and  C_15
REMARK    4  A    between atoms: N_17  and  C_18
REMARK    5  A    between atoms: C_19  and  C_27
REMARK                            x       y       z     vdW  Elec       q    Type
REMARK                         _______ _______ _______ _____ _____    ______ ____
ROOT
ATOM      1  C   UNL     1      -0.049   5.258   2.229  0.00  0.00    +0.221 C 
ATOM      2  O   UNL     1       0.868   5.276   3.022  0.00  0.00    -0.275 OA
ATOM      3  N   UNL     1      -1.071   6.127   2.360  0.00  0.00    -0.279 N 
ATOM      4  H   UNL     1      -1.804   6.112   1.726  0.00  0.00    +0.155 HD
ENDROOT
BRANCH   3   5
ATOM      5  C   UNL     1      -1.074   7.042   3.404  0.00  0.00    +0.090 A 
ATOM      6  C   UNL     1      -2.026   8.005   3.702  0.00  0.00    +0.084 A 
ATOM      7  C   UNL     1      -1.789   8.846   4.862  0.00  0.00    -0.018 A 
ATOM      8  C   UNL     1      -0.645   8.591   5.535  0.00  0.00    -0.004 A 
ATOM      9  S   UNL     1       0.108   7.253   4.654  0.00  0.00    -0.077 S 
ATOM     10  C   UNL     1      -0.141   9.292   6.758  0.00  0.00    +0.043 C 
ATOM     11  C   UNL     1      -0.931  10.598   6.928  0.00  0.00    +0.005 C 
ATOM     12  C   UNL     1      -2.425  10.294   6.776  0.00  0.00    +0.005 C 
ATOM     13  C   UNL     1      -2.740   9.946   5.320  0.00  0.00    +0.037 C 
BRANCH   6  14
ATOM     14  C   UNL     1      -3.199   8.164   2.896  0.00  0.00    +0.102 C 
ATOM     15  N   UNL     1      -4.129   8.290   2.257  0.00  0.00    -0.191 NA
ENDBRANCH   6  14
ENDBRANCH   3   5
BRANCH   1  19
ATOM     16  N   UNL     1      -0.020   1.652   0.011  0.00  0.00    -0.176 NA
ATOM     17  C   UNL     1      -1.295   2.383   0.021  0.00  0.00    +0.110 C 
ATOM     18  C   UNL     1      -1.283   3.369   1.199  0.00  0.00    +0.030 C 
ATOM     19  C   UNL     1      -0.046   4.264   1.096  0.00  0.00    +0.078 C 
ATOM     20  C   UNL     1       1.217   3.403   1.176  0.00  0.00    +0.030 C 
ATOM     21  C   UNL     1       1.234   2.417   0.003  0.00  0.00    +0.110 C 
BRANCH  16  22
ATOM     22  S   UNL     1       0.002  -0.004   0.002  0.00  0.00    +0.067 S 
ATOM     23  O   UNL     1      -1.243  -0.424  -0.539  0.00  0.00    -0.152 OA
ATOM     24  O   UNL     1       1.248  -0.390  -0.563  0.00  0.00    -0.152 OA
BRANCH  22  27
ATOM     25  C   UNL     1      -0.758  -1.211   3.802  0.00  0.00    +0.010 A 
ATOM     26  C   UNL     1      -1.016  -0.800   2.508  0.00  0.00    +0.036 A 
ATOM     27  C   UNL     1       0.025  -0.534   1.682  0.00  0.00    +0.143 A 
ATOM     28  S   UNL     1       1.427  -0.853   2.741  0.00  0.00    -0.077 S 
ATOM     29  C   UNL     1       0.529  -1.326   4.211  0.00  0.00    +0.047 A 
ENDBRANCH  22  27
ENDBRANCH  16  22
ENDBRANCH   1  19
TORSDOF 5
