REMARK  Name = ZINC66243569
REMARK  12 active torsions:
REMARK  status: ('A' for Active; 'I' for Inactive)
REMARK    1  A    between atoms: C_1  and  C_2
REMARK    2  A    between atoms: C_2  and  O_3
REMARK    3  A    between atoms: O_3  and  C_4
REMARK    4  A    between atoms: C_6  and  C_14
REMARK    5  A    between atoms: C_9  and  O_10
REMARK    6  A    between atoms: O_10  and  C_11
REMARK    7  A    between atoms: C_14  and  N_15
REMARK    8  A    between atoms: N_18  and  C_19
REMARK    9  A    between atoms: C_19  and  C_20
REMARK   10  A    between atoms: C_20  and  C_21
REMARK   11  A    between atoms: C_24  and  O_27
REMARK   12  A    between atoms: O_27  and  C_28
REMARK                            x       y       z     vdW  Elec       q    Type
REMARK                         _______ _______ _______ _____ _____    ______ ____
ROOT
ATOM      1  N   UNL     1       0.785  -5.240  -1.568  0.00  0.00    -0.354 N 
ATOM      2  C   UNL     1       0.473  -6.061  -2.625  0.00  0.00    +0.169 C 
ATOM      3  N   UNL     1      -0.714  -6.594  -2.709  0.00  0.00    -0.371 N 
ATOM      4  N   UNL     1       1.413  -6.321  -3.594  0.00  0.00    -0.357 N 
ATOM      5  H   UNL     1       1.668  -4.843  -1.506  0.00  0.00    +0.163 HD
ATOM      6  H   UNL     1      -0.934  -7.174  -3.454  0.00  0.00    +0.159 HD
ATOM      7  H   UNL     1       2.296  -5.925  -3.532  0.00  0.00    +0.162 HD
ATOM      8  H   UNL     1      -1.377  -6.411  -2.025  0.00  0.00    +0.159 HD
ENDROOT
BRANCH   1   9
ATOM      9  C   UNL     1      -0.217  -4.963  -0.535  0.00  0.00    +0.151 C 
BRANCH   9  12
ATOM     10  C   UNL     1       0.802  -1.825   1.306  0.00  0.00    +0.162 A 
ATOM     11  C   UNL     1       0.261  -2.673   0.353  0.00  0.00    +0.054 A 
ATOM     12  C   UNL     1       0.372  -4.043   0.502  0.00  0.00    -0.025 A 
ATOM     13  C   UNL     1       1.024  -4.570   1.602  0.00  0.00    +0.009 A 
ATOM     14  C   UNL     1       1.566  -3.730   2.557  0.00  0.00    +0.050 A 
ATOM     15  C   UNL     1       1.462  -2.356   2.410  0.00  0.00    +0.168 A 
BRANCH  10  16
ATOM     16  O   UNL     1       0.693  -0.477   1.160  0.00  0.00    -0.489 OA
BRANCH  16  18
ATOM     17  C   UNL     1      -0.019   1.526   0.010  0.00  0.00    +0.048 C 
ATOM     18  C   UNL     1       0.002  -0.004   0.002  0.00  0.00    +0.226 C 
ENDBRANCH  16  18
ENDBRANCH  10  16
BRANCH  15  19
ATOM     19  O   UNL     1       2.000  -1.528   3.345  0.00  0.00    -0.431 OA
BRANCH  19  20
ATOM     20  C   UNL     1       2.664  -2.143   4.451  0.00  0.00    +0.541 C 
ATOM     21  F   UNL     1       1.760  -2.955   5.144  0.00  0.00    -0.166 F 
ATOM     22  F   UNL     1       3.727  -2.922   3.983  0.00  0.00    -0.166 F 
ENDBRANCH  19  20
ENDBRANCH  15  19
ENDBRANCH   9  12
ENDBRANCH   1   9
BRANCH   4  23
ATOM     23  C   UNL     1       1.081  -7.197  -4.721  0.00  0.00    +0.120 C 
BRANCH  23  24
ATOM     24  C   UNL     1       2.292  -7.319  -5.647  0.00  0.00    +0.056 C 
BRANCH  24  25
ATOM     25  C   UNL     1       1.951  -8.220  -6.806  0.00  0.00    -0.045 A 
ATOM     26  C   UNL     1       2.171  -9.581  -6.710  0.00  0.00    +0.007 A 
ATOM     27  C   UNL     1       1.859 -10.409  -7.771  0.00  0.00    +0.046 A 
ATOM     28  C   UNL     1       1.324  -9.873  -8.933  0.00  0.00    +0.120 A 
ATOM     29  C   UNL     1       1.103  -8.506  -9.027  0.00  0.00    +0.046 A 
ATOM     30  C   UNL     1       1.412  -7.683  -7.961  0.00  0.00    +0.007 A 
BRANCH  28  31
ATOM     31  O   UNL     1       1.016 -10.685  -9.979  0.00  0.00    -0.495 OA
ATOM     32  C   UNL     1       0.469 -10.064 -11.143  0.00  0.00    +0.277 C 
ENDBRANCH  28  31
ENDBRANCH  24  25
ENDBRANCH  23  24
ENDBRANCH   4  23
TORSDOF 10
