REMARK  Name = ZINC22463911
REMARK  8 active torsions:
REMARK  status: ('A' for Active; 'I' for Inactive)
REMARK    1  A    between atoms: C_4  and  C_7
REMARK    2  A    between atoms: C_7  and  C_9
REMARK    3  A    between atoms: C_7  and  N_27
REMARK    4  A    between atoms: C_9  and  N_10
REMARK    5  A    between atoms: C_11  and  C_13
REMARK    6  A    between atoms: C_15  and  S_20
REMARK    7  A    between atoms: S_20  and  N_23
REMARK    8  A    between atoms: N_23  and  C_24
REMARK                            x       y       z     vdW  Elec       q    Type
REMARK                         _______ _______ _______ _____ _____    ______ ____
ROOT
ATOM      1  N   UNL     1       0.371  -2.131   1.253  0.00  0.00    -0.313 N 
ATOM      2  C   UNL     1       0.600  -2.895   2.340  0.00  0.00    +0.245 C 
ATOM      3  O   UNL     1       0.591  -2.395   3.447  0.00  0.00    -0.270 OA
ATOM      4  H   UNL     1       0.379  -2.583   0.251  0.00  0.00    +0.149 HD
ENDROOT
BRANCH   2   5
ATOM      5  C   UNL     1       0.861  -4.341   2.184  0.00  0.00    +0.052 A 
ATOM      6  C   UNL     1       0.867  -4.920   0.913  0.00  0.00    +0.042 A 
ATOM      7  C   UNL     1       1.116  -6.269   0.775  0.00  0.00    +0.106 A 
ATOM      8  C   UNL     1       1.350  -7.052   1.892  0.00  0.00    +0.029 A 
ATOM      9  C   UNL     1       1.342  -6.487   3.154  0.00  0.00    +0.018 A 
ATOM     10  C   UNL     1       1.099  -5.136   3.308  0.00  0.00    +0.030 A 
ATOM     11 BR   UNL     1       1.087  -4.364   5.034  0.00  0.00    -0.050 Br
BRANCH   7  12
ATOM     12  S   UNL     1       1.129  -7.000  -0.828  0.00  0.00    +0.059 S 
ATOM     13  O   UNL     1       1.423  -5.957  -1.748  0.00  0.00    -0.153 OA
ATOM     14  O   UNL     1       1.920  -8.177  -0.732  0.00  0.00    -0.153 OA
BRANCH  12  15
ATOM     15  N   UNL     1      -0.418  -7.496  -1.153  0.00  0.00    -0.187 NA
ATOM     16  H   UNL     1      -0.660  -8.567  -1.103  0.00  0.00    +0.148 HD
BRANCH  15  17
ATOM     17  C   UNL     1      -1.491  -6.507  -1.288  0.00  0.00    +0.077 C 
ATOM     18  C   UNL     1      -2.887  -6.912  -0.812  0.00  0.00    +0.022 C 
ATOM     19  C   UNL     1      -2.593  -6.796  -2.309  0.00  0.00    +0.022 C 
ENDBRANCH  15  17
ENDBRANCH  12  15
ENDBRANCH   7  12
ENDBRANCH   2   5
BRANCH   1  20
ATOM     20  C   UNL     1       0.112  -0.697   1.407  0.00  0.00    +0.094 C 
BRANCH  20  21
ATOM     21  C   UNL     1      -0.265  -0.098   0.051  0.00  0.00    -0.020 C 
BRANCH  21  25
ATOM     22  C   UNL     1      -0.791   4.122   0.454  0.00  0.00    +0.000 A 
ATOM     23  C   UNL     1       0.334   3.623  -0.176  0.00  0.00    +0.000 A 
ATOM     24  C   UNL     1       0.504   2.257  -0.307  0.00  0.00    +0.002 A 
ATOM     25  C   UNL     1      -0.451   1.391   0.193  0.00  0.00    -0.059 A 
ATOM     26  C   UNL     1      -1.578   1.890   0.819  0.00  0.00    +0.002 A 
ATOM     27  C   UNL     1      -1.746   3.256   0.953  0.00  0.00    +0.000 A 
ENDBRANCH  21  25
BRANCH  21  28
ATOM     28  N   UNL     1      -1.517  -0.705  -0.422  0.00  0.00    +0.385 N 
ATOM     29  C   UNL     1      -2.068   0.045  -1.580  0.00  0.00    -0.078 C 
ATOM     30  C   UNL     1      -3.018  -0.981  -2.247  0.00  0.00    -0.020 C 
ATOM     31  C   UNL     1      -2.257  -2.316  -2.080  0.00  0.00    -0.020 C 
ATOM     32  C   UNL     1      -1.288  -2.083  -0.906  0.00  0.00    -0.078 C 
ATOM     33  H   UNL     1      -2.201  -0.688   0.439  0.00  0.00    -0.081 HD
ENDBRANCH  21  28
ENDBRANCH  20  21
ENDBRANCH   1  20
TORSDOF 8
