REMARK  Name = ZINC13013658
REMARK  5 active torsions:
REMARK  status: ('A' for Active; 'I' for Inactive)
REMARK    1  A    between atoms: C_6  and  C_7
REMARK    2  A    between atoms: N_8  and  N_9
REMARK    3  A    between atoms: C_10  and  C_12
REMARK    4  A    between atoms: C_12  and  O_13
REMARK    5  A    between atoms: O_13  and  C_14
REMARK                            x       y       z     vdW  Elec       q    Type
REMARK                         _______ _______ _______ _____ _____    ______ ____
ROOT
ATOM      1  N   UNL     1       2.088   4.348   0.005  0.00  0.00    -0.204 N 
ATOM      2  C   UNL     1       1.030   3.512   0.011  0.00  0.00    +0.270 C 
ATOM      3  O   UNL     1      -0.097   3.961   0.024  0.00  0.00    -0.270 OA
ATOM      4  H   UNL     1       2.989   3.989  -0.005  0.00  0.00    +0.177 HD
ENDROOT
BRANCH   1   6
ATOM      5  C   UNL     1       2.904   6.539   0.009  0.00  0.00    +0.138 C 
ATOM      6  N   UNL     1       1.885   5.734   0.015  0.00  0.00    -0.188 NA
BRANCH   5  12
ATOM      7  C   UNL     1       1.381   8.512   0.029  0.00  0.00    +0.011 A 
ATOM      8  C   UNL     1       1.161   9.851   0.043  0.00  0.00    +0.030 A 
ATOM      9  C   UNL     1       2.247  10.745   0.038  0.00  0.00    +0.089 A 
ATOM     10  C   UNL     1       3.573  10.239   0.023  0.00  0.00    +0.090 A 
ATOM     11  C   UNL     1       3.782   8.852   0.013  0.00  0.00    +0.039 A 
ATOM     12  C   UNL     1       2.691   7.997   0.019  0.00  0.00    -0.003 A 
ATOM     13  N   UNL     1       4.606  11.091   0.017  0.00  0.00    -0.252 NA
ATOM     14  C   UNL     1       4.382  12.385   0.026  0.00  0.00    +0.131 A 
ATOM     15  C   UNL     1       3.078  12.883   0.041  0.00  0.00    +0.131 A 
ATOM     16  N   UNL     1       2.048  12.068   0.046  0.00  0.00    -0.252 NA
ENDBRANCH   5  12
ENDBRANCH   1   6
BRANCH   2  17
ATOM     17  C   UNL     1       1.248   2.021   0.001  0.00  0.00    +0.326 C 
BRANCH  17  18
ATOM     18  O   UNL     1      -0.016   1.355   0.009  0.00  0.00    -0.481 OA
BRANCH  18  19
ATOM     19  C   UNL     1       0.002  -0.004   0.002  0.00  0.00    +0.140 A 
ATOM     20  C   UNL     1       1.212  -0.682  -0.013  0.00  0.00    +0.048 A 
ATOM     21  C   UNL     1       1.229  -2.063  -0.021  0.00  0.00    +0.023 A 
ATOM     22  C   UNL     1       0.040  -2.771  -0.013  0.00  0.00    +0.043 A 
ATOM     23  C   UNL     1      -1.169  -2.098   0.001  0.00  0.00    +0.043 A 
ATOM     24  C   UNL     1      -1.190  -0.715   0.015  0.00  0.00    +0.084 A 
ATOM     25 CL   UNL     1      -2.706   0.130   0.042  0.00  0.00    -0.080 Cl
ATOM     26 CL   UNL     1       0.064  -4.507  -0.023  0.00  0.00    -0.083 Cl
ENDBRANCH  18  19
ENDBRANCH  17  18
ENDBRANCH   2  17
TORSDOF 5
