REMARK  Name = ZINC63526096
REMARK  7 active torsions:
REMARK  status: ('A' for Active; 'I' for Inactive)
REMARK    1  A    between atoms: C_1  and  C_2
REMARK    2  A    between atoms: C_4  and  C_15
REMARK    3  A    between atoms: C_18  and  O_23
REMARK    4  A    between atoms: C_19  and  O_21
REMARK    5  A    between atoms: O_21  and  C_22
REMARK    6  A    between atoms: O_23  and  C_24
REMARK    7  A    between atoms: C_24  and  C_25
REMARK                            x       y       z     vdW  Elec       q    Type
REMARK                         _______ _______ _______ _____ _____    ______ ____
ROOT
ATOM      1  C   UNL     1      -2.655   1.091  -0.366  0.00  0.00    -0.027 A 
ATOM      2  C   UNL     1      -1.841   1.921   0.381  0.00  0.00    +0.009 A 
ATOM      3  C   UNL     1      -1.871   3.288   0.179  0.00  0.00    +0.050 A 
ATOM      4  C   UNL     1      -2.718   3.829  -0.774  0.00  0.00    +0.162 A 
ATOM      5  C   UNL     1      -3.538   2.994  -1.527  0.00  0.00    +0.162 A 
ATOM      6  C   UNL     1      -3.499   1.624  -1.323  0.00  0.00    +0.054 A 
ENDROOT
BRANCH   1  10
ATOM      7  C   UNL     1      -4.759   1.487   1.049  0.00  0.00    +0.067 C 
ATOM      8  C   UNL     1      -4.558   0.040   1.417  0.00  0.00    +0.064 C 
ATOM      9  C   UNL     1      -3.618  -0.755   0.894  0.00  0.00    +0.014 C 
ATOM     10  C   UNL     1      -2.619  -0.399  -0.142  0.00  0.00    +0.108 C 
ATOM     11  S   UNL     1      -2.939  -1.234  -1.710  0.00  0.00    -0.139 S 
ATOM     12  C   UNL     1      -2.639  -2.983  -1.398  0.00  0.00    +0.165 C 
ATOM     13  C   UNL     1      -3.603  -3.549  -0.418  0.00  0.00    +0.225 C 
ATOM     14  O   UNL     1      -4.019  -4.637  -0.756  0.00  0.00    -0.275 OA
ATOM     15  N   UNL     1      -4.096  -3.164   0.696  0.00  0.00    -0.288 N 
ATOM     16  C   UNL     1      -3.829  -2.075   1.589  0.00  0.00    +0.244 C 
ATOM     17  N   UNL     1      -4.973  -1.813   2.479  0.00  0.00    -0.160 NA
ATOM     18  N   UNL     1      -5.299  -0.633   2.326  0.00  0.00    -0.157 NA
ATOM     19  H   UNL     1      -4.814  -3.738   1.008  0.00  0.00    +0.151 HD
ENDBRANCH   1  10
BRANCH   5  20
ATOM     20  O   UNL     1      -4.371   3.520  -2.464  0.00  0.00    -0.491 OA
ATOM     21  C   UNL     1      -5.183   2.602  -3.199  0.00  0.00    +0.277 C 
ENDBRANCH   5  20
BRANCH   4  22
ATOM     22  O   UNL     1      -2.749   5.174  -0.974  0.00  0.00    -0.484 OA
BRANCH  22  23
ATOM     23  C   UNL     1      -1.881   5.970  -0.165  0.00  0.00    +0.264 C 
BRANCH  23  24
ATOM     24  C   UNL     1      -2.052   7.424  -0.524  0.00  0.00    -0.009 A 
ATOM     25  C   UNL     1      -1.272   7.987  -1.517  0.00  0.00    +0.007 A 
ATOM     26  C   UNL     1      -1.428   9.320  -1.848  0.00  0.00    +0.002 A 
ATOM     27  C   UNL     1      -2.364  10.091  -1.185  0.00  0.00    +0.020 A 
ATOM     28  C   UNL     1      -3.145   9.529  -0.191  0.00  0.00    +0.041 A 
ATOM     29  C   UNL     1      -2.992   8.193   0.135  0.00  0.00    +0.027 A 
ATOM     30 CL   UNL     1      -4.320  10.497   0.642  0.00  0.00    -0.084 Cl
ENDBRANCH  23  24
ENDBRANCH  22  23
ENDBRANCH   4  22
TORSDOF 5
