REMARK  Name = ZINC08369693
REMARK  8 active torsions:
REMARK  status: ('A' for Active; 'I' for Inactive)
REMARK    1  A    between atoms: C_1  and  C_2
REMARK    2  A    between atoms: C_5  and  N_9
REMARK    3  A    between atoms: C_6  and  C_8
REMARK    4  A    between atoms: C_10  and  C_12
REMARK    5  A    between atoms: C_12  and  C_14
REMARK    6  A    between atoms: C_12  and  N_15
REMARK    7  A    between atoms: N_15  and  S_16
REMARK    8  A    between atoms: S_16  and  C_19
REMARK                            x       y       z     vdW  Elec       q    Type
REMARK                         _______ _______ _______ _____ _____    ______ ____
ROOT
ATOM      1  C   UNL     1      -0.031   1.503   0.018  0.00  0.00    +0.159 C 
ATOM      2  C   UNL     1      -0.753   1.986   1.278  0.00  0.00    +0.035 C 
ENDROOT
BRANCH   1   4
ATOM      3  N   UNL     1       0.604  -0.675   1.004  0.00  0.00    -0.284 N 
ATOM      4  C   UNL     1      -0.001  -0.004   0.004  0.00  0.00    +0.236 C 
ATOM      5  O   UNL     1      -0.520  -0.612  -0.908  0.00  0.00    -0.274 OA
ATOM      6  H   UNL     1       1.089  -0.191   1.690  0.00  0.00    +0.155 HD
BRANCH   3  11
ATOM      7  C   UNL     1       0.317  -6.338   1.198  0.00  0.00    +0.044 C 
ATOM      8  C   UNL     1       0.393  -4.834   1.147  0.00  0.00    -0.050 A 
ATOM      9  C   UNL     1      -0.588  -4.115   0.488  0.00  0.00    +0.005 A 
ATOM     10  C   UNL     1      -0.521  -2.737   0.439  0.00  0.00    +0.024 A 
ATOM     11  C   UNL     1       0.533  -2.072   1.052  0.00  0.00    +0.036 A 
ATOM     12  C   UNL     1       1.520  -2.797   1.707  0.00  0.00    -0.029 A 
ATOM     13  C   UNL     1       1.444  -4.175   1.757  0.00  0.00    +0.008 A 
ATOM     14  C   UNL     1       2.669  -2.080   2.368  0.00  0.00    +0.045 C 
ENDBRANCH   3  11
ENDBRANCH   1   4
BRANCH   1  15
ATOM     15  N   UNL     1      -0.741   1.988  -1.168  0.00  0.00    -0.178 NA
ATOM     16  H   UNL     1      -1.494   1.489  -1.520  0.00  0.00    +0.149 HD
BRANCH  15  17
ATOM     17  S   UNL     1      -0.257   3.389  -1.906  0.00  0.00    +0.059 S 
ATOM     18  O   UNL     1      -1.113   3.575  -3.026  0.00  0.00    -0.153 OA
ATOM     19  O   UNL     1      -0.122   4.364  -0.881  0.00  0.00    -0.153 OA
BRANCH  17  20
ATOM     20  C   UNL     1       1.359   3.108  -2.549  0.00  0.00    +0.105 A 
ATOM     21  C   UNL     1       2.469   3.382  -1.772  0.00  0.00    +0.030 A 
ATOM     22  C   UNL     1       3.737   3.156  -2.274  0.00  0.00    +0.022 A 
ATOM     23  C   UNL     1       3.895   2.666  -3.558  0.00  0.00    +0.041 A 
ATOM     24  C   UNL     1       2.784   2.397  -4.338  0.00  0.00    +0.022 A 
ATOM     25  C   UNL     1       1.517   2.618  -3.833  0.00  0.00    +0.030 A 
ATOM     26 CL   UNL     1       5.488   2.388  -4.192  0.00  0.00    -0.084 Cl
ENDBRANCH  17  20
ENDBRANCH  15  17
ENDBRANCH   1  15
TORSDOF 5
