REMARK  Name = ZINC04163849
REMARK  4 active torsions:
REMARK  status: ('A' for Active; 'I' for Inactive)
REMARK    1  A    between atoms: C_1  and  N_2
REMARK    2  A    between atoms: N_2  and  C_3
REMARK    3  A    between atoms: C_9  and  C_11
REMARK    4  A    between atoms: C_14  and  N_17
REMARK                            x       y       z     vdW  Elec       q    Type
REMARK                         _______ _______ _______ _____ _____    ______ ____
ROOT
ATOM      1  C   UNL     1      -0.169  -0.005  -2.490  0.00  0.00    +0.037 A 
ATOM      2  C   UNL     1      -0.143   1.392  -2.475  0.00  0.00    +0.015 A 
ATOM      3  C   UNL     1      -0.168   2.092  -3.661  0.00  0.00    +0.025 A 
ATOM      4  C   UNL     1      -0.218   1.410  -4.872  0.00  0.00    +0.044 A 
ATOM      5  C   UNL     1      -0.243   0.020  -4.890  0.00  0.00    +0.025 A 
ATOM      6  C   UNL     1      -0.213  -0.687  -3.708  0.00  0.00    +0.015 A 
ENDROOT
BRANCH   4   7
ATOM      7  N   UNL     1      -0.243   2.124  -6.074  0.00  0.00    -0.210 N 
ATOM      8  C   UNL     1      -1.296   2.116  -6.897  0.00  0.00    +0.231 C 
ATOM      9  O   UNL     1      -2.328   1.508  -6.709  0.00  0.00    -0.274 OA
ATOM     10  C   UNL     1      -1.002   2.985  -8.099  0.00  0.00    +0.095 C 
ATOM     11  C   UNL     1      -1.897   4.261  -8.012  0.00  0.00    +0.025 C 
ATOM     12  C   UNL     1      -0.930   5.332  -8.637  0.00  0.00    +0.016 C 
ATOM     13  C   UNL     1       0.206   5.053  -7.587  0.00  0.00    +0.025 C 
ATOM     14  C   UNL     1       0.439   3.506  -7.820  0.00  0.00    +0.095 C 
ATOM     15  C   UNL     1       0.783   2.874  -6.490  0.00  0.00    +0.231 C 
ATOM     16  O   UNL     1       1.829   3.024  -5.895  0.00  0.00    -0.274 OA
ATOM     17  C   UNL     1      -0.611   5.128  -6.291  0.00  0.00    -0.027 C 
ATOM     18  C   UNL     1      -1.840   4.658  -6.532  0.00  0.00    -0.027 C 
ENDBRANCH   4   7
BRANCH   1  21
ATOM     19  C   UNL     1      -1.190   1.149  -0.126  0.00  0.00    +0.138 C 
ATOM     20  N   UNL     1      -0.570  -0.177  -0.083  0.00  0.00    -0.271 N 
ATOM     21  C   UNL     1      -0.142  -0.758  -1.221  0.00  0.00    +0.251 C 
ATOM     22  O   UNL     1       0.267  -1.903  -1.202  0.00  0.00    -0.270 OA
BRANCH  20  23
ATOM     23  C   UNL     1      -0.422  -0.840   1.140  0.00  0.00    +0.036 A 
ATOM     24  C   UNL     1       0.307  -2.020   1.208  0.00  0.00    +0.023 A 
ATOM     25  C   UNL     1       0.452  -2.672   2.417  0.00  0.00    +0.002 A 
ATOM     26  C   UNL     1      -0.130  -2.152   3.558  0.00  0.00    +0.000 A 
ATOM     27  C   UNL     1      -0.858  -0.978   3.494  0.00  0.00    +0.002 A 
ATOM     28  C   UNL     1      -1.001  -0.318   2.289  0.00  0.00    +0.023 A 
ENDBRANCH  20  23
ENDBRANCH   1  21
TORSDOF 3
