REMARK  Name = ZINC39412505
REMARK  6 active torsions:
REMARK  status: ('A' for Active; 'I' for Inactive)
REMARK    1  A    between atoms: C_1  and  C_2
REMARK    2  A    between atoms: C_2  and  C_19
REMARK    3  A    between atoms: N_3  and  N_4
REMARK    4  A    between atoms: C_5  and  C_7
REMARK    5  A    between atoms: C_10  and  C_13
REMARK    6  A    between atoms: C_24  and  O_25
REMARK                            x       y       z     vdW  Elec       q    Type
REMARK                         _______ _______ _______ _____ _____    ______ ____
ROOT
ATOM      1  N   UNL     1       0.024   0.035   2.340  0.00  0.00    -0.205 N 
ATOM      2  C   UNL     1       0.044  -0.645   3.503  0.00  0.00    +0.263 C 
ATOM      3  O   UNL     1       0.060  -1.858   3.496  0.00  0.00    -0.271 OA
ATOM      4  H   UNL     1       0.011   1.005   2.345  0.00  0.00    +0.177 HD
ENDROOT
BRANCH   2   5
ATOM      5  C   UNL     1       0.046   0.101   4.812  0.00  0.00    +0.240 C 
ATOM      6  C   UNL     1      -1.364   0.512   5.197  0.00  0.00    +0.041 C 
ATOM      7  C   UNL     1      -1.579  -0.127   6.363  0.00  0.00    +0.092 C 
ATOM      8  N   UNL     1      -0.487  -0.856   6.713  0.00  0.00    -0.153 NA
ATOM      9  N   UNL     1       0.455  -0.785   5.915  0.00  0.00    -0.170 NA
BRANCH   7  10
ATOM     10  C   UNL     1      -2.831  -0.045   7.155  0.00  0.00    +0.002 A 
ATOM     11  C   UNL     1      -3.896   0.731   6.701  0.00  0.00    +0.010 A 
ATOM     12  C   UNL     1      -5.059   0.803   7.441  0.00  0.00    +0.001 A 
ATOM     13  C   UNL     1      -5.169   0.106   8.631  0.00  0.00    +0.000 A 
ATOM     14  C   UNL     1      -4.115  -0.665   9.086  0.00  0.00    +0.001 A 
ATOM     15  C   UNL     1      -2.949  -0.749   8.352  0.00  0.00    +0.010 A 
ENDBRANCH   7  10
ENDBRANCH   2   5
BRANCH   1  18
ATOM     16  C   UNL     1      -0.018   1.503   0.010  0.00  0.00    +0.068 C 
ATOM     17  C   UNL     1       0.002  -0.004   0.002  0.00  0.00    +0.067 C 
ATOM     18  N   UNL     1       0.022  -0.659   1.123  0.00  0.00    -0.184 NA
BRANCH  17  19
ATOM     19  C   UNL     1      -0.000  -0.734  -1.278  0.00  0.00    +0.039 A 
ATOM     20  C   UNL     1      -0.015  -0.033  -2.486  0.00  0.00    +0.013 A 
ATOM     21  C   UNL     1      -0.017  -0.722  -3.681  0.00  0.00    +0.001 A 
ATOM     22  C   UNL     1      -0.003  -2.107  -3.688  0.00  0.00    +0.004 A 
ATOM     23  C   UNL     1       0.012  -2.812  -2.499  0.00  0.00    +0.046 A 
ATOM     24  C   UNL     1       0.019  -2.135  -1.290  0.00  0.00    +0.126 A 
BRANCH  24  25
ATOM     25  O   UNL     1       0.039  -2.827  -0.122  0.00  0.00    -0.506 OA
ATOM     26  H   UNL     1      -0.839  -3.040   0.224  0.00  0.00    +0.292 HD
ENDBRANCH  24  25
ENDBRANCH  17  19
ENDBRANCH   1  18
TORSDOF 5
