REMARK  Name = ZINC15623827
REMARK  7 active torsions:
REMARK  status: ('A' for Active; 'I' for Inactive)
REMARK    1  A    between atoms: C_4  and  S_8
REMARK    2  A    between atoms: S_8  and  N_11
REMARK    3  A    between atoms: C_15  and  C_17
REMARK    4  A    between atoms: C_17  and  O_19
REMARK    5  A    between atoms: O_19  and  C_20
REMARK    6  A    between atoms: C_20  and  C_21
REMARK    7  A    between atoms: N_26  and  C_27
REMARK                            x       y       z     vdW  Elec       q    Type
REMARK                         _______ _______ _______ _____ _____    ______ ____
ROOT
ATOM      1  C   UNL     1      -8.662  -0.726  -0.892  0.00  0.00    +0.328 C 
ENDROOT
BRANCH   1   2
ATOM      2  C   UNL     1      -7.750  -0.051  -1.884  0.00  0.00    +0.258 C 
ATOM      3  O   UNL     1      -8.041   1.038  -2.331  0.00  0.00    -0.272 OA
ATOM      4  N   UNL     1      -6.612  -0.658  -2.274  0.00  0.00    -0.237 N 
ATOM      5  C   UNL     1      -5.796  -0.054  -3.161  0.00  0.00    +0.310 C 
ATOM      6  O   UNL     1      -6.088   1.037  -3.610  0.00  0.00    -0.252 OA
ATOM      7  N   UNL     1      -4.658  -0.661  -3.551  0.00  0.00    -0.269 N 
ATOM      8  H   UNL     1      -6.379  -1.529  -1.916  0.00  0.00    +0.159 HD
ATOM      9  H   UNL     1      -4.462  -1.563  -3.252  0.00  0.00    +0.156 HD
BRANCH   7  10
ATOM     10  C   UNL     1      -3.758   0.011  -4.389  0.00  0.00    +0.038 A 
ATOM     11  C   UNL     1      -3.029  -0.697  -5.336  0.00  0.00    +0.027 A 
ATOM     12  C   UNL     1      -2.139  -0.036  -6.159  0.00  0.00    +0.051 A 
ATOM     13  C   UNL     1      -1.974   1.337  -6.048  0.00  0.00    +0.162 A 
ATOM     14  C   UNL     1      -2.703   2.048  -5.102  0.00  0.00    +0.164 A 
ATOM     15  C   UNL     1      -3.594   1.384  -4.273  0.00  0.00    +0.072 A 
ATOM     16  O   UNL     1      -2.555   3.396  -4.979  0.00  0.00    -0.485 OA
ATOM     17  C   UNL     1      -1.384   3.971  -5.566  0.00  0.00    +0.270 C 
ATOM     18  C   UNL     1      -1.221   3.392  -6.978  0.00  0.00    +0.270 C 
ATOM     19  O   UNL     1      -1.090   1.971  -6.867  0.00  0.00    -0.485 OA
ENDBRANCH   7  10
ENDBRANCH   1   2
BRANCH   1  20
ATOM     20  O   UNL     1      -9.812   0.123  -0.636  0.00  0.00    -0.454 OA
BRANCH  20  21
ATOM     21  C   UNL     1     -10.727  -0.336   0.232  0.00  0.00    +0.327 C 
ATOM     22  O   UNL     1     -10.572  -1.411   0.761  0.00  0.00    -0.249 OA
BRANCH  21  27
ATOM     23  N   UNL     1     -13.055  -0.389   0.952  0.00  0.00    -0.163 NA
ATOM     24  C   UNL     1     -13.441  -0.056   2.335  0.00  0.00    +0.110 C 
ATOM     25  C   UNL     1     -12.982   1.410   2.534  0.00  0.00    +0.019 C 
ATOM     26  C   UNL     1     -11.651   1.433   1.732  0.00  0.00    +0.033 C 
ATOM     27  C   UNL     1     -11.947   0.490   0.548  0.00  0.00    +0.188 C 
BRANCH  23  28
ATOM     28  S   UNL     1     -13.752  -1.558   0.009  0.00  0.00    +0.064 S 
ATOM     29  O   UNL     1     -12.747  -2.009  -0.889  0.00  0.00    -0.153 OA
ATOM     30  O   UNL     1     -14.434  -2.438   0.893  0.00  0.00    -0.153 OA
BRANCH  28  34
ATOM     31  C   UNL     1     -16.926   0.465  -2.509  0.00  0.00    +0.003 A 
ATOM     32  C   UNL     1     -15.824  -0.111  -3.114  0.00  0.00    +0.002 A 
ATOM     33  C   UNL     1     -14.855  -0.728  -2.345  0.00  0.00    +0.031 A 
ATOM     34  C   UNL     1     -14.987  -0.771  -0.970  0.00  0.00    +0.140 A 
ATOM     35  C   UNL     1     -16.092  -0.199  -0.363  0.00  0.00    +0.150 A 
ATOM     36  C   UNL     1     -17.059   0.424  -1.134  0.00  0.00    +0.040 A 
ATOM     37  F   UNL     1     -16.224  -0.245   0.981  0.00  0.00    -0.203 F 
ENDBRANCH  28  34
ENDBRANCH  23  28
ENDBRANCH  21  27
ENDBRANCH  20  21
ENDBRANCH   1  20
TORSDOF 7
