REMARK  Name = ZINC01444146
REMARK  8 active torsions:
REMARK  status: ('A' for Active; 'I' for Inactive)
REMARK    1  A    between atoms: C_1  and  O_2
REMARK    2  A    between atoms: O_2  and  C_3
REMARK    3  A    between atoms: C_6  and  O_23
REMARK    4  A    between atoms: C_7  and  C_9
REMARK    5  A    between atoms: N_10  and  N_11
REMARK    6  A    between atoms: C_12  and  C_14
REMARK    7  A    between atoms: C_14  and  N_15
REMARK    8  A    between atoms: N_15  and  C_16
REMARK                            x       y       z     vdW  Elec       q    Type
REMARK                         _______ _______ _______ _____ _____    ______ ____
ROOT
ATOM      1  N   UNL     1      -2.949   7.152   5.094  0.00  0.00    -0.206 N 
ATOM      2  C   UNL     1      -3.051   8.487   5.250  0.00  0.00    +0.249 C 
ATOM      3  O   UNL     1      -2.585   9.233   4.415  0.00  0.00    -0.272 OA
ATOM      4  H   UNL     1      -3.321   6.556   5.762  0.00  0.00    +0.177 HD
ENDROOT
BRANCH   1   6
ATOM      5  C   UNL     1      -2.208   5.341   3.815  0.00  0.00    +0.142 C 
ATOM      6  N   UNL     1      -2.306   6.626   3.966  0.00  0.00    -0.188 NA
BRANCH   5  11
ATOM      7  C   UNL     1      -0.787   2.893   1.346  0.00  0.00    +0.121 A 
ATOM      8  C   UNL     1      -0.252   3.750   0.394  0.00  0.00    +0.049 A 
ATOM      9  C   UNL     1      -0.359   5.119   0.548  0.00  0.00    +0.049 A 
ATOM     10  C   UNL     1      -0.993   5.646   1.661  0.00  0.00    +0.126 A 
ATOM     11  C   UNL     1      -1.531   4.787   2.628  0.00  0.00    +0.039 A 
ATOM     12  C   UNL     1      -1.423   3.405   2.463  0.00  0.00    +0.058 A 
BRANCH   7  14
ATOM     13  C   UNL     1      -0.013   1.086   0.008  0.00  0.00    +0.277 C 
ATOM     14  O   UNL     1      -0.682   1.547   1.184  0.00  0.00    -0.495 OA
ENDBRANCH   7  14
BRANCH  10  15
ATOM     15  O   UNL     1      -1.092   6.992   1.814  0.00  0.00    -0.506 OA
ATOM     16  H   UNL     1      -0.352   7.390   2.292  0.00  0.00    +0.292 HD
ENDBRANCH  10  15
ENDBRANCH   5  11
ENDBRANCH   1   6
BRANCH   2  17
ATOM     17  C   UNL     1      -3.742   9.053   6.464  0.00  0.00    +0.199 C 
BRANCH  17  18
ATOM     18  N   UNL     1      -3.721  10.516   6.400  0.00  0.00    -0.335 N 
ATOM     19  H   UNL     1      -3.301  10.963   5.649  0.00  0.00    +0.147 HD
BRANCH  18  20
ATOM     20  C   UNL     1      -4.306  11.268   7.422  0.00  0.00    +0.028 A 
ATOM     21  C   UNL     1      -4.914  10.630   8.495  0.00  0.00    +0.024 A 
ATOM     22  C   UNL     1      -5.485  11.377   9.507  0.00  0.00    +0.016 A 
ATOM     23  C   UNL     1      -5.465  12.758   9.445  0.00  0.00    +0.013 A 
ATOM     24  C   UNL     1      -4.866  13.397   8.374  0.00  0.00    +0.016 A 
ATOM     25  C   UNL     1      -4.287  12.656   7.363  0.00  0.00    +0.024 A 
ATOM     26  I   UNL     1      -6.342  13.887  10.977  0.00  0.00    -0.044 I 
ENDBRANCH  18  20
ENDBRANCH  17  18
ENDBRANCH   2  17
TORSDOF 7
