REMARK  Name = ZINC02277498
REMARK  4 active torsions:
REMARK  status: ('A' for Active; 'I' for Inactive)
REMARK    1  A    between atoms: C_8  and  S_10
REMARK    2  A    between atoms: S_10  and  C_11
REMARK    3  A    between atoms: C_11  and  C_12
REMARK    4  A    between atoms: N_14  and  N_15
REMARK                            x       y       z     vdW  Elec       q    Type
REMARK                         _______ _______ _______ _____ _____    ______ ____
ROOT
ATOM      1  C   UNL     1       5.403  -5.683   0.054  0.00  0.00    +0.242 C 
ATOM      2  O   UNL     1       4.650  -6.597   0.315  0.00  0.00    -0.273 OA
ATOM      3  N   UNL     1       6.709  -5.930  -0.172  0.00  0.00    -0.206 N 
ATOM      4  H   UNL     1       7.311  -5.199  -0.381  0.00  0.00    +0.177 HD
ENDROOT
BRANCH   3   5
ATOM      5  N   UNL     1       7.196  -7.242  -0.105  0.00  0.00    -0.175 NA
ATOM      6  C   UNL     1       8.482  -7.470  -0.217  0.00  0.00    +0.153 C 
ATOM      7  C   UNL     1       9.577  -6.472  -0.234  0.00  0.00    +0.029 A 
ATOM      8  C   UNL     1       9.603  -5.085  -0.144  0.00  0.00    +0.027 A 
ATOM      9  C   UNL     1      10.811  -4.417  -0.191  0.00  0.00    +0.019 A 
ATOM     10  C   UNL     1      11.992  -5.129  -0.328  0.00  0.00    +0.017 A 
ATOM     11  C   UNL     1      11.976  -6.506  -0.419  0.00  0.00    +0.025 A 
ATOM     12  C   UNL     1      10.769  -7.195  -0.372  0.00  0.00    +0.043 A 
ATOM     13  N   UNL     1      10.477  -8.553  -0.441  0.00  0.00    -0.280 N 
ATOM     14  C   UNL     1       9.156  -8.778  -0.349  0.00  0.00    +0.269 C 
ATOM     15  O   UNL     1       8.610  -9.865  -0.373  0.00  0.00    -0.268 OA
ATOM     16 BR   UNL     1      10.854  -2.531  -0.070  0.00  0.00    -0.050 Br
ATOM     17  H   UNL     1      11.145  -9.251  -0.538  0.00  0.00    +0.155 HD
ENDBRANCH   3   5
BRANCH   1  18
ATOM     18  C   UNL     1       4.879  -4.272  -0.018  0.00  0.00    +0.173 C 
BRANCH  18  19
ATOM     19  S   UNL     1       3.099  -4.270   0.332  0.00  0.00    -0.089 S 
BRANCH  19  27
ATOM     20  C   UNL     1       0.009   1.382   0.239  0.00  0.00    +0.002 A 
ATOM     21  C   UNL     1       1.151   2.104  -0.074  0.00  0.00    +0.001 A 
ATOM     22  C   UNL     1       2.353   1.438  -0.228  0.00  0.00    +0.017 A 
ATOM     23  C   UNL     1       2.398   0.076  -0.068  0.00  0.00    +0.040 A 
ATOM     24  C   UNL     1       1.256  -0.693   0.251  0.00  0.00    +0.079 A 
ATOM     25  C   UNL     1       0.045   0.021   0.400  0.00  0.00    +0.029 A 
ATOM     26  N   UNL     1       1.461  -2.022   0.375  0.00  0.00    -0.233 NA
ATOM     27  C   UNL     1       2.643  -2.572   0.211  0.00  0.00    +0.136 A 
ATOM     28  S   UNL     1       3.671  -1.160  -0.166  0.00  0.00    -0.061 S 
ENDBRANCH  19  27
ENDBRANCH  18  19
ENDBRANCH   1  18
TORSDOF 4
