REMARK  Name = ZINC03357606
REMARK  9 active torsions:
REMARK  status: ('A' for Active; 'I' for Inactive)
REMARK    1  A    between atoms: C_4  and  N_8
REMARK    2  A    between atoms: C_9  and  C_11
REMARK    3  A    between atoms: C_11  and  N_58
REMARK    4  A    between atoms: C_12  and  C_13
REMARK    5  A    between atoms: C_12  and  N_58
REMARK    6  A    between atoms: C_13  and  C_14
REMARK    7  A    between atoms: C_20  and  C_21
REMARK    8  A    between atoms: C_20  and  N_58
REMARK    9  A    between atoms: N_23  and  C_24
REMARK                            x       y       z     vdW  Elec       q    Type
REMARK                         _______ _______ _______ _____ _____    ______ ____
ROOT
ATOM      1  N   UNL     1       0.804   3.618  -3.534  0.00  0.00    +0.391 N 
ATOM      2  H   UNL     1       0.322   4.032  -2.728  0.00  0.00    -0.080 HD
ENDROOT
BRANCH   1   3
ATOM      3  C   UNL     1       1.810   4.577  -4.036  0.00  0.00    +0.020 C 
BRANCH   3   5
ATOM      4  N   UNL     1       3.659   5.920  -3.089  0.00  0.00    -0.283 N 
ATOM      5  C   UNL     1       2.673   5.024  -2.884  0.00  0.00    +0.201 C 
ATOM      6  O   UNL     1       2.481   4.577  -1.773  0.00  0.00    -0.278 OA
ATOM      7  H   UNL     1       3.854   6.230  -3.987  0.00  0.00    +0.155 HD
BRANCH   4  11
ATOM      8  C   UNL     1       5.875   7.357   0.140  0.00  0.00    +0.006 A 
ATOM      9  C   UNL     1       6.461   7.257  -1.108  0.00  0.00    +0.040 A 
ATOM     10  C   UNL     1       5.729   6.781  -2.181  0.00  0.00    +0.147 A 
ATOM     11  C   UNL     1       4.404   6.402  -2.004  0.00  0.00    +0.105 A 
ATOM     12  C   UNL     1       3.817   6.510  -0.749  0.00  0.00    +0.147 A 
ATOM     13  C   UNL     1       4.556   6.982   0.321  0.00  0.00    +0.040 A 
ATOM     14  F   UNL     1       2.527   6.149  -0.572  0.00  0.00    -0.203 F 
ATOM     15  F   UNL     1       6.302   6.684  -3.401  0.00  0.00    -0.203 F 
ENDBRANCH   4  11
ENDBRANCH   3   5
ENDBRANCH   1   3
BRANCH   1  16
ATOM     16  C   UNL     1       1.468   2.368  -3.106  0.00  0.00    -0.073 C 
BRANCH  16  17
ATOM     17  C   UNL     1       2.283   1.773  -4.256  0.00  0.00    +0.012 C 
BRANCH  17  18
ATOM     18  C   UNL     1       2.969   0.516  -3.787  0.00  0.00    -0.075 C 
ATOM     19  C   UNL     1       2.381  -0.616  -4.012  0.00  0.00    -0.028 C 
ATOM     20  C   UNL     1       2.935  -1.948  -3.597  0.00  0.00    +0.027 C 
ATOM     21  C   UNL     1       4.424  -1.825  -3.272  0.00  0.00    +0.004 C 
ATOM     22  C   UNL     1       4.619  -0.633  -2.327  0.00  0.00    +0.005 C 
ATOM     23  C   UNL     1       4.290   0.653  -3.088  0.00  0.00    +0.030 C 
ENDBRANCH  17  18
ENDBRANCH  16  17
ENDBRANCH   1  16
BRANCH   1  24
ATOM     24  C   UNL     1      -0.188   3.327  -4.590  0.00  0.00    +0.020 C 
BRANCH  24  25
ATOM     25  C   UNL     1      -1.423   2.751  -3.946  0.00  0.00    +0.201 C 
ATOM     26  O   UNL     1      -1.496   2.671  -2.739  0.00  0.00    -0.278 OA
ATOM     27  N   UNL     1      -2.447   2.326  -4.713  0.00  0.00    -0.283 N 
ATOM     28  H   UNL     1      -2.376   2.362  -5.680  0.00  0.00    +0.155 HD
BRANCH  27  29
ATOM     29  C   UNL     1      -3.614   1.833  -4.114  0.00  0.00    +0.105 A 
ATOM     30  C   UNL     1      -4.201   0.666  -4.589  0.00  0.00    +0.147 A 
ATOM     31  C   UNL     1      -5.350   0.179  -3.991  0.00  0.00    +0.040 A 
ATOM     32  C   UNL     1      -5.920   0.857  -2.930  0.00  0.00    +0.006 A 
ATOM     33  C   UNL     1      -5.341   2.021  -2.458  0.00  0.00    +0.040 A 
ATOM     34  C   UNL     1      -4.190   2.511  -3.047  0.00  0.00    +0.147 A 
ATOM     35  F   UNL     1      -3.626   3.649  -2.585  0.00  0.00    -0.203 F 
ATOM     36  F   UNL     1      -3.648   0.006  -5.630  0.00  0.00    -0.203 F 
ENDBRANCH  27  29
ENDBRANCH  24  25
ENDBRANCH   1  24
TORSDOF 9
