REMARK  Name = ZINC08743267
REMARK  4 active torsions:
REMARK  status: ('A' for Active; 'I' for Inactive)
REMARK    1  A    between atoms: C_1  and  C_2
REMARK    2  A    between atoms: C_2  and  N_61
REMARK    3  A    between atoms: C_12  and  C_14
REMARK    4  A    between atoms: C_17  and  C_20
REMARK                            x       y       z     vdW  Elec       q    Type
REMARK                         _______ _______ _______ _____ _____    ______ ____
ROOT
ATOM      1  C   UNL     1      -0.067  -0.125  -2.415  0.00  0.00    -0.073 C 
ATOM      2  C   UNL     1       0.749  -0.499  -3.655  0.00  0.00    +0.052 C 
ATOM      3  C   UNL     1       1.052  -1.996  -3.629  0.00  0.00    +0.189 C 
ATOM      4  C   UNL     1       1.786  -2.353  -2.338  0.00  0.00    +0.052 C 
ATOM      5  C   UNL     1       0.939  -1.923  -1.138  0.00  0.00    -0.073 C 
ATOM      6  N   UNL     1      -0.195  -2.760  -3.725  0.00  0.00    -0.207 N 
ATOM      7  C   UNL     1      -1.044  -2.672  -4.936  0.00  0.00    +0.136 C 
ATOM      8  C   UNL     1      -1.960  -3.895  -4.798  0.00  0.00    +0.086 C 
ATOM      9  C   UNL     1      -1.722  -4.360  -3.376  0.00  0.00    +0.068 C 
ATOM     10  N   UNL     1      -0.756  -3.677  -2.855  0.00  0.00    -0.185 NA
ATOM     11  C   UNL     1      -0.115  -2.792  -6.116  0.00  0.00    +0.018 A 
ATOM     12  C   UNL     1      -0.642  -3.070  -7.364  0.00  0.00    +0.024 A 
ATOM     13  C   UNL     1       0.184  -3.142  -8.470  0.00  0.00    +0.018 A 
ATOM     14  C   UNL     1       1.544  -2.935  -8.325  0.00  0.00    +0.019 A 
ATOM     15  C   UNL     1       2.074  -2.668  -7.081  0.00  0.00    +0.047 A 
ATOM     16  C   UNL     1       1.250  -2.602  -5.958  0.00  0.00    +0.129 A 
ATOM     17  O   UNL     1       1.844  -2.356  -4.762  0.00  0.00    -0.467 OA
ATOM     18 BR   UNL     1      -0.543  -3.521 -10.174  0.00  0.00    -0.050 Br
ATOM     19  N   UNL     1       0.716  -0.463  -1.207  0.00  0.00    +0.380 N 
ATOM     20  H   UNL     1       1.626   0.011  -1.257  0.00  0.00    -0.082 HD
ENDROOT
BRANCH   9  21
ATOM     21  C   UNL     1      -2.476  -5.426  -2.692  0.00  0.00    -0.002 A 
ATOM     22  C   UNL     1      -3.508  -6.093  -3.361  0.00  0.00    +0.010 A 
ATOM     23  C   UNL     1      -4.208  -7.091  -2.722  0.00  0.00    +0.009 A 
ATOM     24  C   UNL     1      -3.895  -7.432  -1.406  0.00  0.00    -0.018 A 
ATOM     25  C   UNL     1      -2.869  -6.764  -0.736  0.00  0.00    +0.009 A 
ATOM     26  C   UNL     1      -2.164  -5.769  -1.373  0.00  0.00    +0.010 A 
BRANCH  24  27
ATOM     27  C   UNL     1      -4.654  -8.504  -0.718  0.00  0.00    -0.018 A 
ATOM     28  C   UNL     1      -4.340  -8.851   0.595  0.00  0.00    +0.008 A 
ATOM     29  C   UNL     1      -5.054  -9.845   1.233  0.00  0.00    +0.001 A 
ATOM     30  C   UNL     1      -6.071 -10.505   0.567  0.00  0.00    +0.000 A 
ATOM     31  C   UNL     1      -6.382 -10.169  -0.739  0.00  0.00    +0.001 A 
ATOM     32  C   UNL     1      -5.679  -9.173  -1.384  0.00  0.00    +0.008 A 
ENDBRANCH  24  27
ENDBRANCH   9  21
BRANCH  19  34
ATOM     33  C   UNL     1      -0.019   1.526   0.010  0.00  0.00    -0.017 C 
ATOM     34  C   UNL     1       0.002  -0.004   0.002  0.00  0.00    -0.082 C 
ENDBRANCH  19  34
TORSDOF 3
