REMARK  Name = ZINC67045858
REMARK  5 active torsions:
REMARK  status: ('A' for Active; 'I' for Inactive)
REMARK    1  A    between atoms: C_1  and  C_2
REMARK    2  A    between atoms: C_2  and  C_4
REMARK    3  A    between atoms: C_2  and  N_10
REMARK    4  A    between atoms: C_4  and  C_5
REMARK    5  A    between atoms: C_17  and  C_19
REMARK                            x       y       z     vdW  Elec       q    Type
REMARK                         _______ _______ _______ _____ _____    ______ ____
ROOT
ATOM      1  N   UNL     1       0.688  -0.476  -1.203  0.00  0.00    -0.296 N 
ATOM      2  C   UNL     1       0.006  -0.608  -2.358  0.00  0.00    +0.303 C 
ATOM      3  O   UNL     1      -1.178  -0.335  -2.400  0.00  0.00    -0.253 OA
ATOM      4  N   UNL     1       0.637  -1.043  -3.467  0.00  0.00    -0.278 N 
ATOM      5  C   UNL     1       2.061  -1.414  -3.556  0.00  0.00    +0.110 C 
ATOM      6  C   UNL     1       2.426  -1.233  -5.051  0.00  0.00    +0.021 C 
ATOM      7  C   UNL     1       1.125  -1.712  -5.749  0.00  0.00    +0.029 C 
ATOM      8  C   UNL     1       0.018  -1.231  -4.787  0.00  0.00    +0.111 C 
ATOM      9  H   UNL     1       1.632  -0.695  -1.170  0.00  0.00    +0.151 HD
ENDROOT
BRANCH   8  10
ATOM     10  C   UNL     1      -1.073  -2.268  -4.699  0.00  0.00    +0.018 A 
ATOM     11  C   UNL     1      -1.110  -3.140  -3.627  0.00  0.00    +0.009 A 
ATOM     12  C   UNL     1      -2.108  -4.093  -3.542  0.00  0.00    +0.004 A 
ATOM     13  C   UNL     1      -3.072  -4.177  -4.530  0.00  0.00    +0.049 A 
ATOM     14  C   UNL     1      -3.039  -3.306  -5.608  0.00  0.00    +0.162 A 
ATOM     15  C   UNL     1      -2.040  -2.343  -5.689  0.00  0.00    +0.167 A 
ATOM     16  O   UNL     1      -1.997  -1.469  -6.732  0.00  0.00    -0.485 OA
ATOM     17  C   UNL     1      -2.761  -1.815  -7.892  0.00  0.00    +0.270 C 
ATOM     18  C   UNL     1      -4.155  -2.265  -7.433  0.00  0.00    +0.270 C 
ATOM     19  O   UNL     1      -3.992  -3.404  -6.575  0.00  0.00    -0.485 OA
ENDBRANCH   8  10
BRANCH   1  21
ATOM     20  C   UNL     1      -0.019   1.526   0.010  0.00  0.00    +0.028 C 
ATOM     21  C   UNL     1       0.002  -0.004   0.002  0.00  0.00    +0.079 C 
BRANCH  21  22
ATOM     22  C   UNL     1       0.742  -0.511   1.242  0.00  0.00    +0.096 C 
BRANCH  22  23
ATOM     23  C   UNL     1       0.657  -2.014   1.298  0.00  0.00    +0.107 A 
ATOM     24  C   UNL     1       1.536  -2.873   0.751  0.00  0.00    +0.045 A 
ATOM     25  C   UNL     1       1.072  -4.176   1.044  0.00  0.00    +0.041 A 
ATOM     26  C   UNL     1      -0.064  -4.036   1.751  0.00  0.00    +0.195 A 
ATOM     27  O   UNL     1      -0.307  -2.724   1.907  0.00  0.00    -0.468 OA
ENDBRANCH  22  23
ENDBRANCH  21  22
ENDBRANCH   1  21
TORSDOF 4
