REMARK  Name = ZINC44960621
REMARK  10 active torsions:
REMARK  status: ('A' for Active; 'I' for Inactive)
REMARK    1  A    between atoms: C_1  and  C_2
REMARK    2  A    between atoms: C_2  and  C_3
REMARK    3  A    between atoms: C_8  and  N_9
REMARK    4  A    between atoms: C_10  and  C_29
REMARK    5  A    between atoms: C_12  and  C_14
REMARK    6  A    between atoms: N_16  and  C_17
REMARK    7  A    between atoms: C_17  and  C_18
REMARK    8  A    between atoms: C_18  and  C_19
REMARK    9  A    between atoms: C_32  and  S_35
REMARK   10  A    between atoms: S_35  and  C_36
REMARK                            x       y       z     vdW  Elec       q    Type
REMARK                         _______ _______ _______ _____ _____    ______ ____
ROOT
ATOM      1  N   UNL     1      -1.357  -0.458   2.668  0.00  0.00    -0.231 N 
ATOM      2  C   UNL     1      -1.921  -0.184   3.882  0.00  0.00    +0.075 A 
ATOM      3  C   UNL     1      -3.112   0.439   3.632  0.00  0.00    +0.063 A 
ATOM      4  C   UNL     1      -3.211   0.512   2.225  0.00  0.00    +0.148 A 
ATOM      5  N   UNL     1      -2.122  -0.040   1.725  0.00  0.00    -0.161 NA
ENDROOT
BRANCH   1  11
ATOM      6  C   UNL     1       0.884  -0.464   1.767  0.00  0.00    -0.022 A 
ATOM      7  C   UNL     1       2.101  -1.093   1.588  0.00  0.00    +0.006 A 
ATOM      8  C   UNL     1       2.312  -2.354   2.114  0.00  0.00    +0.000 A 
ATOM      9  C   UNL     1       1.307  -2.990   2.821  0.00  0.00    +0.002 A 
ATOM     10  C   UNL     1       0.089  -2.365   3.003  0.00  0.00    +0.028 A 
ATOM     11  C   UNL     1      -0.125  -1.096   2.481  0.00  0.00    +0.069 A 
BRANCH   6  13
ATOM     12  C   UNL     1       0.843   1.960   2.290  0.00  0.00    +0.009 C 
ATOM     13  C   UNL     1       0.655   0.911   1.193  0.00  0.00    +0.034 C 
ENDBRANCH   6  13
ENDBRANCH   1  11
BRANCH   2  14
ATOM     14  C   UNL     1      -1.353  -0.499   5.211  0.00  0.00    +0.001 A 
ATOM     15  C   UNL     1       0.023  -0.686   5.356  0.00  0.00    +0.011 A 
ATOM     16  C   UNL     1       0.550  -0.980   6.595  0.00  0.00    +0.015 A 
ATOM     17  C   UNL     1      -0.288  -1.090   7.700  0.00  0.00    +0.008 A 
ATOM     18  C   UNL     1      -1.659  -0.905   7.558  0.00  0.00    +0.015 A 
ATOM     19  C   UNL     1      -2.191  -0.606   6.322  0.00  0.00    +0.011 A 
BRANCH  17  20
ATOM     20  S   UNL     1       0.389  -1.466   9.283  0.00  0.00    -0.129 S 
ATOM     21  C   UNL     1      -1.055  -1.505  10.380  0.00  0.00    +0.090 C 
ENDBRANCH  17  20
ENDBRANCH   2  14
BRANCH   4  22
ATOM     22  C   UNL     1      -4.324   1.103   1.456  0.00  0.00    +0.264 C 
ATOM     23  O   UNL     1      -5.275   1.588   2.037  0.00  0.00    -0.268 OA
ATOM     24  N   UNL     1      -4.287   1.104   0.108  0.00  0.00    -0.310 N 
ATOM     25  H   UNL     1      -3.528   0.717  -0.356  0.00  0.00    +0.149 HD
BRANCH  24  26
ATOM     26  C   UNL     1      -5.391   1.690  -0.655  0.00  0.00    +0.109 C 
BRANCH  26  27
ATOM     27  C   UNL     1      -5.101   1.562  -2.152  0.00  0.00    +0.056 C 
BRANCH  27  28
ATOM     28  C   UNL     1      -6.237   2.165  -2.937  0.00  0.00    -0.021 A 
ATOM     29  C   UNL     1      -7.294   1.510  -3.443  0.00  0.00    +0.087 A 
ATOM     30  N   UNL     1      -8.119   2.387  -4.094  0.00  0.00    -0.360 N 
ATOM     31  H   UNL     1      -8.946   2.147  -4.540  0.00  0.00    +0.165 HD
ATOM     32  C   UNL     1      -7.599   3.660  -4.021  0.00  0.00    +0.047 A 
ATOM     33  C   UNL     1      -6.401   3.578  -3.287  0.00  0.00    +0.003 A 
ATOM     34  C   UNL     1      -5.651   4.730  -3.047  0.00  0.00    +0.010 A 
ATOM     35  C   UNL     1      -6.088   5.935  -3.523  0.00  0.00    +0.001 A 
ATOM     36  C   UNL     1      -7.271   6.022  -4.243  0.00  0.00    +0.002 A 
ATOM     37  C   UNL     1      -8.022   4.895  -4.500  0.00  0.00    +0.026 A 
ENDBRANCH  27  28
ENDBRANCH  26  27
ENDBRANCH  24  26
ENDBRANCH   4  22
TORSDOF 8
