REMARK  Name = ZINC08300609
REMARK  5 active torsions:
REMARK  status: ('A' for Active; 'I' for Inactive)
REMARK    1  A    between atoms: C_2  and  C_3
REMARK    2  A    between atoms: C_11  and  C_13
REMARK    3  A    between atoms: C_13  and  N_14
REMARK    4  A    between atoms: N_14  and  S_15
REMARK    5  A    between atoms: S_15  and  C_18
REMARK                            x       y       z     vdW  Elec       q    Type
REMARK                         _______ _______ _______ _____ _____    ______ ____
ROOT
ATOM      1  C   UNL     1       0.620   4.943  -4.124  0.00  0.00    +0.050 C 
ATOM      2  C   UNL     1       0.672   3.450  -3.788  0.00  0.00    -0.062 C 
ATOM      3  C   UNL     1      -1.137   2.984  -5.328  0.00  0.00    -0.078 C 
ATOM      4  C   UNL     1      -1.241   4.463  -5.709  0.00  0.00    -0.014 C 
ATOM      5  C   UNL     1      -0.818   5.315  -4.506  0.00  0.00    -0.001 C 
ATOM      6  C   UNL     1      -1.739   4.985  -3.324  0.00  0.00    -0.010 C 
ATOM      7  C   UNL     1      -1.622   3.491  -3.009  0.00  0.00    -0.053 C 
ATOM      8  N   UNL     1      -0.667   2.841  -3.934  0.00  0.00    +0.383 N 
ATOM      9  H   UNL     1      -0.607   1.843  -3.703  0.00  0.00    -0.081 HD
ENDROOT
BRANCH   1  11
ATOM     10  C   UNL     1       1.371   6.353  -2.015  0.00  0.00    +0.004 C 
ATOM     11  C   UNL     1       1.038   5.728  -2.951  0.00  0.00    -0.104 C 
ENDBRANCH   1  11
BRANCH   7  12
ATOM     12  C   UNL     1      -1.125   3.309  -1.574  0.00  0.00    +0.091 C 
BRANCH  12  13
ATOM     13  N   UNL     1      -0.897   1.885  -1.312  0.00  0.00    -0.191 NA
ATOM     14  H   UNL     1      -1.263   1.218  -1.913  0.00  0.00    +0.148 HD
BRANCH  13  15
ATOM     15  S   UNL     1      -0.017   1.417   0.010  0.00  0.00    +0.065 S 
ATOM     16  O   UNL     1       0.002  -0.004   0.002  0.00  0.00    -0.153 OA
ATOM     17  O   UNL     1       1.172   2.195   0.003  0.00  0.00    -0.153 OA
BRANCH  15  18
ATOM     18  C   UNL     1      -0.927   1.900   1.439  0.00  0.00    +0.142 A 
ATOM     19  C   UNL     1      -1.862   1.205   2.132  0.00  0.00    +0.036 A 
ATOM     20  C   UNL     1      -2.451   1.790   3.236  0.00  0.00    +0.010 A 
ATOM     21  C   UNL     1      -2.076   3.043   3.595  0.00  0.00    +0.047 A 
ATOM     22  S   UNL     1      -0.850   3.430   2.357  0.00  0.00    -0.077 S 
ENDBRANCH  15  18
ENDBRANCH  13  15
ENDBRANCH  12  13
ENDBRANCH   7  12
TORSDOF 5
