REMARK  Name = ZINC39678384
REMARK  7 active torsions:
REMARK  status: ('A' for Active; 'I' for Inactive)
REMARK    1  A    between atoms: C_1  and  C_2
REMARK    2  A    between atoms: C_5  and  C_8
REMARK    3  A    between atoms: C_8  and  C_9
REMARK    4  A    between atoms: C_13  and  C_22
REMARK    5  A    between atoms: N_24  and  C_25
REMARK    6  A    between atoms: C_25  and  C_26
REMARK    7  A    between atoms: C_31  and  N_32
REMARK                            x       y       z     vdW  Elec       q    Type
REMARK                         _______ _______ _______ _____ _____    ______ ____
ROOT
ATOM      1  C   UNL     1       2.334  -4.900   0.014  0.00  0.00    +0.220 C 
ATOM      2  O   UNL     1       3.291  -4.219  -0.287  0.00  0.00    -0.275 OA
ATOM      3  N   UNL     1       2.382  -6.237  -0.146  0.00  0.00    -0.300 N 
ATOM      4  C   UNL     1       1.321  -7.226   0.156  0.00  0.00    +0.121 C 
ATOM      5  C   UNL     1       1.397  -8.247  -1.002  0.00  0.00    +0.100 C 
ATOM      6  C   UNL     1       2.835  -8.128  -1.535  0.00  0.00    -0.004 C 
ATOM      7  C   UNL     1       3.505  -7.050  -0.671  0.00  0.00    +0.115 C 
ATOM      8  C   UNL     1       2.822  -7.692  -2.997  0.00  0.00    -0.010 C 
ATOM      9  C   UNL     1       4.260  -7.636  -3.521  0.00  0.00    -0.082 C 
ATOM     10  N   UNL     1       4.881  -8.959  -3.390  0.00  0.00    +0.379 N 
ATOM     11  C   UNL     1       4.974  -9.331  -1.973  0.00  0.00    -0.082 C 
ATOM     12  C   UNL     1       3.567  -9.458  -1.384  0.00  0.00    -0.010 C 
ATOM     13  H   UNL     1       4.323  -9.642  -3.880  0.00  0.00    -0.086 HD
ATOM     14  H   UNL     1       5.807  -8.936  -3.791  0.00  0.00    -0.086 HD
ENDROOT
BRANCH   5  15
ATOM     15  C   UNL     1       1.138  -9.641  -0.491  0.00  0.00    +0.218 C 
ATOM     16  O   UNL     1       1.629 -10.003   0.557  0.00  0.00    -0.275 OA
ATOM     17  N   UNL     1       0.361 -10.485  -1.198  0.00  0.00    -0.311 N 
ATOM     18  H   UNL     1      -0.032 -10.194  -2.036  0.00  0.00    +0.149 HD
BRANCH  17  19
ATOM     19  C   UNL     1       0.109 -11.839  -0.701  0.00  0.00    +0.141 C 
BRANCH  19  20
ATOM     20  C   UNL     1      -0.783 -12.572  -1.670  0.00  0.00    -0.009 A 
ATOM     21  C   UNL     1      -2.136 -12.683  -1.416  0.00  0.00    +0.007 A 
ATOM     22  C   UNL     1      -2.955 -13.355  -2.304  0.00  0.00    +0.000 A 
ATOM     23  C   UNL     1      -2.423 -13.919  -3.449  0.00  0.00    +0.002 A 
ATOM     24  C   UNL     1      -1.071 -13.812  -3.709  0.00  0.00    +0.023 A 
ATOM     25  C   UNL     1      -0.246 -13.132  -2.822  0.00  0.00    +0.034 A 
BRANCH  25  26
ATOM     26  N   UNL     1       1.121 -13.018  -3.084  0.00  0.00    -0.330 N 
ATOM     27  C   UNL     1       2.063 -14.039  -2.607  0.00  0.00    +0.105 C 
ATOM     28  C   UNL     1       2.890 -14.540  -3.795  0.00  0.00    +0.019 C 
ATOM     29  C   UNL     1       3.554 -13.348  -4.489  0.00  0.00    +0.003 C 
ATOM     30  C   UNL     1       2.476 -12.399  -5.017  0.00  0.00    +0.019 C 
ATOM     31  C   UNL     1       1.643 -11.876  -3.848  0.00  0.00    +0.105 C 
ENDBRANCH  25  26
ENDBRANCH  19  20
ENDBRANCH  17  19
ENDBRANCH   5  15
BRANCH   1  32
ATOM     32  C   UNL     1       1.092  -4.251   0.568  0.00  0.00    +0.131 C 
BRANCH  32  37
ATOM     33  C   UNL     1       1.873   1.467   0.870  0.00  0.00    +0.044 C 
ATOM     34  C   UNL     1       1.669  -0.024   0.791  0.00  0.00    -0.050 A 
ATOM     35  C   UNL     1       1.144  -0.591  -0.355  0.00  0.00    +0.003 A 
ATOM     36  C   UNL     1       0.957  -1.958  -0.427  0.00  0.00    +0.004 A 
ATOM     37  C   UNL     1       1.296  -2.760   0.646  0.00  0.00    -0.039 A 
ATOM     38  C   UNL     1       1.823  -2.194   1.792  0.00  0.00    +0.004 A 
ATOM     39  C   UNL     1       2.014  -0.827   1.863  0.00  0.00    +0.003 A 
ENDBRANCH  32  37
ENDBRANCH   1  32
TORSDOF 6
