REMARK  Name = ZINC15947160
REMARK  7 active torsions:
REMARK  status: ('A' for Active; 'I' for Inactive)
REMARK    1  A    between atoms: C_1  and  C_2
REMARK    2  A    between atoms: C_2  and  N_3
REMARK    3  A    between atoms: C_11  and  O_30
REMARK    4  A    between atoms: C_13  and  C_16
REMARK    5  A    between atoms: C_19  and  O_22
REMARK    6  A    between atoms: O_22  and  C_23
REMARK    7  A    between atoms: C_23  and  C_25
REMARK                            x       y       z     vdW  Elec       q    Type
REMARK                         _______ _______ _______ _____ _____    ______ ____
ROOT
ATOM      1  N   UNL     1      -1.331  -0.816   0.416  0.00  0.00    +0.383 N 
ATOM      2  C   UNL     1      -1.382  -2.283   0.469  0.00  0.00    -0.074 C 
ATOM      3  C   UNL     1      -2.822  -2.754   0.697  0.00  0.00    +0.018 C 
ATOM      4  C   UNL     1      -3.705  -2.085  -0.348  0.00  0.00    -0.027 A 
ATOM      5  C   UNL     1      -3.253  -1.001  -1.023  0.00  0.00    -0.021 A 
ATOM      6  S   UNL     1      -4.578  -0.565  -2.113  0.00  0.00    -0.080 S 
ATOM      7  C   UNL     1      -5.671  -1.742  -1.700  0.00  0.00    +0.080 A 
ATOM      8  C   UNL     1      -5.041  -2.510  -0.713  0.00  0.00    +0.067 A 
ATOM      9  C   UNL     1      -5.795  -3.665  -0.160  0.00  0.00    +0.220 C 
ATOM     10  N   UNL     1      -7.068  -3.746  -0.434  0.00  0.00    -0.223 NA
ATOM     11  C   UNL     1      -7.815  -2.749  -1.192  0.00  0.00    +0.224 C 
ATOM     12  N   UNL     1      -6.947  -2.022  -2.136  0.00  0.00    -0.313 N 
ATOM     13  C   UNL     1      -1.920  -0.345  -0.851  0.00  0.00    -0.035 C 
ATOM     14  H   UNL     1      -7.257  -1.755  -3.015  0.00  0.00    +0.149 HD
ATOM     15  H   UNL     1      -1.853  -0.434   1.191  0.00  0.00    -0.081 HD
ENDROOT
BRANCH  11  16
ATOM     16  C   UNL     1      -8.431  -1.763  -0.234  0.00  0.00    -0.005 A 
ATOM     17  C   UNL     1      -8.643  -0.455  -0.630  0.00  0.00    +0.011 A 
ATOM     18  C   UNL     1      -9.208   0.450   0.247  0.00  0.00    +0.047 A 
ATOM     19  C   UNL     1      -9.563   0.047   1.526  0.00  0.00    +0.132 A 
ATOM     20  C   UNL     1      -9.350  -1.266   1.921  0.00  0.00    +0.047 A 
ATOM     21  C   UNL     1      -8.790  -2.169   1.039  0.00  0.00    +0.011 A 
BRANCH  19  22
ATOM     22  O   UNL     1     -10.119   0.936   2.391  0.00  0.00    -0.422 OA
BRANCH  22  23
ATOM     23  C   UNL     1     -11.367   1.376   2.132  0.00  0.00    +0.351 C 
ATOM     24  O   UNL     1     -12.001   0.899   1.209  0.00  0.00    -0.244 OA
BRANCH  23  25
ATOM     25  C   UNL     1     -11.960   2.427   2.961  0.00  0.00    +0.097 A 
ATOM     26  C   UNL     1     -13.216   3.010   2.869  0.00  0.00    +0.022 A 
ATOM     27  C   UNL     1     -13.492   3.982   3.799  0.00  0.00    +0.008 A 
ATOM     28  C   UNL     1     -12.548   4.300   4.720  0.00  0.00    +0.046 A 
ATOM     29  S   UNL     1     -11.259   3.286   4.357  0.00  0.00    -0.090 S 
ENDBRANCH  23  25
ENDBRANCH  22  23
ENDBRANCH  19  22
ENDBRANCH  11  16
BRANCH   1  31
ATOM     30  C   UNL     1       0.113   1.156   0.575  0.00  0.00    -0.017 C 
ATOM     31  C   UNL     1       0.067  -0.371   0.501  0.00  0.00    -0.082 C 
ENDBRANCH   1  31
BRANCH   9  32
ATOM     32  O   UNL     1      -5.182  -4.601   0.602  0.00  0.00    -0.492 OA
ATOM     33  H   UNL     1      -5.770  -5.306   0.907  0.00  0.00    +0.294 HD
ENDBRANCH   9  32
TORSDOF 6
