REMARK  Name = ZINC35560040
REMARK  9 active torsions:
REMARK  status: ('A' for Active; 'I' for Inactive)
REMARK    1  A    between atoms: C_1  and  C_2
REMARK    2  A    between atoms: C_2  and  C_3
REMARK    3  A    between atoms: C_12  and  C_13
REMARK    4  A    between atoms: C_13  and  C_15
REMARK    5  A    between atoms: C_13  and  C_27
REMARK    6  A    between atoms: C_15  and  C_16
REMARK    7  A    between atoms: C_21  and  C_24
REMARK    8  A    between atoms: C_30  and  C_34
REMARK    9  A    between atoms: C_32  and  C_33
REMARK                            x       y       z     vdW  Elec       q    Type
REMARK                         _______ _______ _______ _____ _____    ______ ____
ROOT
ATOM      1  C   UNL     1      -5.071  -1.285  -2.729  0.00  0.00    +0.060 C 
ENDROOT
BRANCH   1  11
ATOM      2  C   UNL     1      -2.489   0.639   1.116  0.00  0.00    -0.024 A 
ATOM      3  C   UNL     1      -3.245   0.108   2.139  0.00  0.00    +0.005 A 
ATOM      4  C   UNL     1      -4.346  -0.692   1.864  0.00  0.00    +0.001 A 
ATOM      5  C   UNL     1      -4.699  -0.967   0.573  0.00  0.00    +0.010 A 
ATOM      6  C   UNL     1      -3.947  -0.439  -0.478  0.00  0.00    +0.004 A 
ATOM      7  C   UNL     1      -2.834   0.377  -0.205  0.00  0.00    +0.050 A 
ATOM      8  N   UNL     1      -2.298   0.752  -1.417  0.00  0.00    -0.360 N 
ATOM      9  H   UNL     1      -1.518   1.316  -1.531  0.00  0.00    +0.165 HD
ATOM     10  C   UNL     1      -3.032   0.210  -2.438  0.00  0.00    +0.088 A 
ATOM     11  C   UNL     1      -4.037  -0.526  -1.938  0.00  0.00    -0.015 A 
BRANCH   2  13
ATOM     12  C   UNL     1      -1.715   2.978   1.400  0.00  0.00    +0.009 C 
ATOM     13  C   UNL     1      -1.297   1.506   1.429  0.00  0.00    +0.034 C 
ENDBRANCH   2  13
ENDBRANCH   1  11
BRANCH   1  14
ATOM     14  C   UNL     1      -5.830  -0.329  -3.612  0.00  0.00    -0.037 A 
ATOM     15  C   UNL     1      -5.188   0.300  -4.662  0.00  0.00    +0.005 A 
ATOM     16  C   UNL     1      -5.884   1.177  -5.473  0.00  0.00    +0.003 A 
ATOM     17  C   UNL     1      -7.223   1.425  -5.233  0.00  0.00    -0.050 A 
ATOM     18  C   UNL     1      -7.865   0.795  -4.184  0.00  0.00    +0.007 A 
ATOM     19  C   UNL     1      -7.170  -0.085  -3.376  0.00  0.00    -0.046 A 
ATOM     20  C   UNL     1      -7.872  -0.776  -2.235  0.00  0.00    +0.044 C 
ATOM     21  C   UNL     1      -7.982   2.382  -6.116  0.00  0.00    +0.044 C 
ENDBRANCH   1  14
BRANCH   1  22
ATOM     22  C   UNL     1      -4.378  -2.339  -3.595  0.00  0.00    +0.109 C 
BRANCH  22  23
ATOM     23  C   UNL     1      -5.417  -3.179  -4.292  0.00  0.00    +0.216 C 
ATOM     24  O   UNL     1      -6.595  -2.957  -4.114  0.00  0.00    -0.276 OA
ATOM     25  N   UNL     1      -5.035  -4.177  -5.114  0.00  0.00    -0.301 N 
ATOM     26  C   UNL     1      -3.611  -4.462  -5.335  0.00  0.00    +0.108 C 
ATOM     27  C   UNL     1      -3.336  -4.456  -6.843  0.00  0.00    +0.032 C 
ATOM     28  C   UNL     1      -4.287  -5.434  -7.535  0.00  0.00    +0.078 C 
ATOM     29  C   UNL     1      -5.734  -4.989  -7.306  0.00  0.00    +0.032 C 
ATOM     30  C   UNL     1      -6.037  -5.005  -5.801  0.00  0.00    +0.108 C 
BRANCH  28  31
ATOM     31  C   UNL     1      -3.997  -5.455  -9.014  0.00  0.00    +0.214 C 
ATOM     32  O   UNL     1      -3.115  -4.758  -9.468  0.00  0.00    -0.276 OA
ATOM     33  N   UNL     1      -4.716  -6.250  -9.830  0.00  0.00    -0.329 N 
ATOM     34  H   UNL     1      -5.421  -6.809  -9.466  0.00  0.00    +0.145 HD
ATOM     35  H   UNL     1      -4.529  -6.265 -10.782  0.00  0.00    +0.145 HD
ENDBRANCH  28  31
ENDBRANCH  22  23
ENDBRANCH   1  22
TORSDOF 6
