REMARK  Name = ZINC04875602
REMARK  11 active torsions:
REMARK  status: ('A' for Active; 'I' for Inactive)
REMARK    1  A    between atoms: C_1  and  C_2
REMARK    2  A    between atoms: C_2  and  C_3
REMARK    3  A    between atoms: C_3  and  C_4
REMARK    4  A    between atoms: C_4  and  C_5
REMARK    5  A    between atoms: C_5  and  C_6
REMARK    6  A    between atoms: C_14  and  C_18
REMARK    7  A    between atoms: N_20  and  C_21
REMARK    8  A    between atoms: C_21  and  C_22
REMARK    9  A    between atoms: C_22  and  C_23
REMARK   10  A    between atoms: C_28  and  O_29
REMARK   11  A    between atoms: O_29  and  C_30
REMARK                            x       y       z     vdW  Elec       q    Type
REMARK                         _______ _______ _______ _____ _____    ______ ____
ROOT
ATOM      1  C   UNL     1      -6.747  -6.624   7.222  0.00  0.00    +0.216 C 
ATOM      2  O   UNL     1      -6.714  -7.812   6.980  0.00  0.00    -0.276 OA
ATOM      3  N   UNL     1      -6.294  -5.738   6.313  0.00  0.00    -0.302 N 
ATOM      4  C   UNL     1      -5.758  -6.198   5.024  0.00  0.00    +0.107 C 
ATOM      5  C   UNL     1      -6.511  -5.483   3.896  0.00  0.00    +0.017 C 
ATOM      6  C   UNL     1      -6.456  -3.981   4.124  0.00  0.00    -0.016 C 
ATOM      7  C   UNL     1      -7.077  -3.591   5.457  0.00  0.00    +0.017 C 
ATOM      8  C   UNL     1      -6.327  -4.296   6.594  0.00  0.00    +0.107 C 
ATOM      9  C   UNL     1      -4.719  -3.114   2.632  0.00  0.00    +0.028 C 
ATOM     10  C   UNL     1      -5.861  -2.230   2.044  0.00  0.00    +0.061 C 
ATOM     11  S   UNL     1      -7.318  -3.111   2.757  0.00  0.00    -0.174 S 
ATOM     12  N   UNL     1      -5.059  -3.478   4.032  0.00  0.00    +0.397 N 
ATOM     13  H   UNL     1      -4.416  -4.210   4.355  0.00  0.00    -0.083 HD
ATOM     14  H   UNL     1      -4.960  -2.648   4.629  0.00  0.00    -0.083 HD
ENDROOT
BRANCH   9  15
ATOM     15  C   UNL     1      -3.425  -2.342   2.623  0.00  0.00    +0.200 C 
ATOM     16  O   UNL     1      -2.847  -2.115   3.665  0.00  0.00    -0.278 OA
ATOM     17  N   UNL     1      -2.910  -1.903   1.458  0.00  0.00    -0.316 N 
ATOM     18  H   UNL     1      -3.372  -2.084   0.625  0.00  0.00    +0.149 HD
BRANCH  17  19
ATOM     19  C   UNL     1      -1.652  -1.153   1.449  0.00  0.00    +0.109 C 
BRANCH  19  20
ATOM     20  C   UNL     1      -1.292  -0.776   0.011  0.00  0.00    +0.057 C 
BRANCH  20  21
ATOM     21  C   UNL     1       0.002  -0.004   0.002  0.00  0.00    -0.004 A 
ATOM     22  C   UNL     1      -0.017   1.377   0.010  0.00  0.00    +0.007 A 
ATOM     23  C   UNL     1       1.170   2.086   0.002  0.00  0.00    +0.000 A 
ATOM     24  C   UNL     1       2.379   1.415  -0.013  0.00  0.00    +0.004 A 
ATOM     25  C   UNL     1       2.403   0.034  -0.021  0.00  0.00    +0.046 A 
ATOM     26  C   UNL     1       1.213  -0.680  -0.013  0.00  0.00    +0.123 A 
BRANCH  26  27
ATOM     27  O   UNL     1       1.234  -2.039  -0.021  0.00  0.00    -0.495 OA
ATOM     28  C   UNL     1       2.517  -2.668  -0.037  0.00  0.00    +0.277 C 
ENDBRANCH  26  27
ENDBRANCH  20  21
ENDBRANCH  19  20
ENDBRANCH  17  19
ENDBRANCH   9  15
BRANCH   1  29
ATOM     29  C   UNL     1      -7.293  -6.138   8.540  0.00  0.00    +0.096 C 
BRANCH  29  30
ATOM     30  C   UNL     1      -7.736  -7.337   9.381  0.00  0.00    +0.009 C 
BRANCH  30  31
ATOM     31  C   UNL     1      -8.291  -6.844  10.719  0.00  0.00    +0.000 C 
BRANCH  31  33
ATOM     32  C   UNL     1      -9.289  -7.550  12.898  0.00  0.00    +0.004 C 
ATOM     33  C   UNL     1      -8.733  -8.043  11.560  0.00  0.00    -0.003 C 
ENDBRANCH  31  33
ENDBRANCH  30  31
ENDBRANCH  29  30
ENDBRANCH   1  29
TORSDOF 9
