REMARK  Name = ZINC29339896
REMARK  8 active torsions:
REMARK  status: ('A' for Active; 'I' for Inactive)
REMARK    1  A    between atoms: C_1  and  N_2
REMARK    2  A    between atoms: N_2  and  C_3
REMARK    3  A    between atoms: C_3  and  C_4
REMARK    4  A    between atoms: C_16  and  C_18
REMARK    5  A    between atoms: C_18  and  N_19
REMARK    6  A    between atoms: N_19  and  C_20
REMARK    7  A    between atoms: N_19  and  S_21
REMARK    8  A    between atoms: S_21  and  C_24
REMARK                            x       y       z     vdW  Elec       q    Type
REMARK                         _______ _______ _______ _____ _____    ______ ____
ROOT
ATOM      1  C   UNL     1       1.999   6.207  -1.254  0.00  0.00    +0.132 C 
ATOM      2  N   UNL     1       2.143   5.480   0.009  0.00  0.00    -0.296 N 
ATOM      3  C   UNL     1       2.034   6.137   1.181  0.00  0.00    +0.231 C 
ATOM      4  O   UNL     1       2.153   5.535   2.227  0.00  0.00    -0.274 OA
ENDROOT
BRANCH   2   5
ATOM      5  C   UNL     1       2.405   4.039  -0.001  0.00  0.00    +0.181 C 
BRANCH   5   6
ATOM      6  C   UNL     1       1.097   3.290   0.009  0.00  0.00    +0.128 A 
ATOM      7  N   UNL     1       1.132   1.932   0.002  0.00  0.00    -0.309 N 
ATOM      8  H   UNL     1       2.099   1.407  -0.010  0.00  0.00    +0.170 HD
ATOM      9  C   UNL     1      -0.014   1.213   0.009  0.00  0.00    +0.259 A 
ATOM     10  O   UNL     1       0.002  -0.004   0.002  0.00  0.00    -0.267 OA
ATOM     11  C   UNL     1      -1.281   1.960   0.019  0.00  0.00    +0.065 A 
ATOM     12  C   UNL     1      -2.517   1.315   0.033  0.00  0.00    +0.015 A 
ATOM     13  C   UNL     1      -3.673   2.064   0.048  0.00  0.00    +0.001 A 
ATOM     14  C   UNL     1      -3.615   3.452   0.055  0.00  0.00    +0.002 A 
ATOM     15  C   UNL     1      -2.405   4.108   0.047  0.00  0.00    +0.028 A 
ATOM     16  C   UNL     1      -1.219   3.371   0.032  0.00  0.00    +0.078 A 
ATOM     17  N   UNL     1      -0.005   3.976   0.023  0.00  0.00    -0.232 NA
ENDBRANCH   5   6
ENDBRANCH   2   5
BRANCH   3  18
ATOM     18  C   UNL     1       1.764   7.620   1.191  0.00  0.00    +0.205 C 
BRANCH  18  19
ATOM     19  N   UNL     1       1.691   8.093   2.576  0.00  0.00    -0.171 NA
ATOM     20  C   UNL     1       2.917   8.453   3.293  0.00  0.00    +0.132 C 
BRANCH  19  21
ATOM     21  S   UNL     1       0.222   8.221   3.330  0.00  0.00    +0.061 S 
ATOM     22  O   UNL     1       0.380   9.180   4.367  0.00  0.00    -0.153 OA
ATOM     23  O   UNL     1      -0.751   8.361   2.304  0.00  0.00    -0.153 OA
BRANCH  21  24
ATOM     24  C   UNL     1      -0.095   6.677   4.117  0.00  0.00    +0.109 A 
ATOM     25  C   UNL     1      -0.769   5.681   3.434  0.00  0.00    +0.032 A 
ATOM     26  C   UNL     1      -1.017   4.464   4.044  0.00  0.00    +0.051 A 
ATOM     27  C   UNL     1      -0.598   4.251   5.346  0.00  0.00    +0.162 A 
ATOM     28  C   UNL     1       0.074   5.252   6.033  0.00  0.00    +0.164 A 
ATOM     29  C   UNL     1       0.325   6.467   5.418  0.00  0.00    +0.078 A 
ATOM     30  O   UNL     1       0.484   5.031   7.316  0.00  0.00    -0.488 OA
ATOM     31  C   UNL     1      -0.553   4.911   8.292  0.00  0.00    +0.232 C 
ATOM     32  C   UNL     1      -1.090   3.489   8.336  0.00  0.00    +0.082 C 
ATOM     33  C   UNL     1      -1.776   3.088   7.040  0.00  0.00    +0.232 C 
ATOM     34  O   UNL     1      -0.840   3.056   5.960  0.00  0.00    -0.488 OA
ENDBRANCH  21  24
ENDBRANCH  19  21
ENDBRANCH  18  19
ENDBRANCH   3  18
TORSDOF 6
