REMARK  Name = ZINC30874636
REMARK  9 active torsions:
REMARK  status: ('A' for Active; 'I' for Inactive)
REMARK    1  A    between atoms: C_1  and  O_2
REMARK    2  A    between atoms: O_2  and  C_3
REMARK    3  A    between atoms: C_6  and  C_11
REMARK    4  A    between atoms: C_8  and  O_9
REMARK    5  A    between atoms: O_9  and  C_10
REMARK    6  A    between atoms: C_11  and  C_12
REMARK    7  A    between atoms: C_12  and  N_13
REMARK    8  A    between atoms: N_19  and  S_20
REMARK    9  A    between atoms: S_20  and  C_23
REMARK                            x       y       z     vdW  Elec       q    Type
REMARK                         _______ _______ _______ _____ _____    ______ ____
ROOT
ATOM      1  N   UNL     1       1.383   1.928  -0.001  0.00  0.00    -0.271 NA
ATOM      2  C   UNL     1      -0.018   1.467   0.010  0.00  0.00    +0.193 C 
ATOM      3  N   UNL     1       0.002  -0.004   0.002  0.00  0.00    -0.303 N 
ATOM      4  C   UNL     1       0.923  -0.647   0.799  0.00  0.00    +0.202 C 
ATOM      5  N   UNL     1       1.899   0.002   1.352  0.00  0.00    -0.303 N 
ATOM      6  C   UNL     1       2.088   1.440   1.191  0.00  0.00    +0.193 C 
ATOM      7  N   UNL     1       0.804  -2.000   1.013  0.00  0.00    -0.097 NA
ATOM      8  H   UNL     1      -0.706  -0.560  -0.630  0.00  0.00    +0.150 HD
ATOM      9  H   UNL     1       2.604  -0.580   1.964  0.00  0.00    +0.150 HD
ENDROOT
BRANCH   7  10
ATOM     10  S   UNL     1       1.904  -2.787   1.969  0.00  0.00    +0.102 S 
ATOM     11  O   UNL     1       1.500  -4.149   2.016  0.00  0.00    -0.146 OA
ATOM     12  O   UNL     1       3.192  -2.389   1.519  0.00  0.00    -0.146 OA
BRANCH  10  13
ATOM     13  C   UNL     1       1.723  -2.152   3.603  0.00  0.00    +0.113 A 
ATOM     14  C   UNL     1       2.469  -1.060   4.006  0.00  0.00    +0.030 A 
ATOM     15  C   UNL     1       2.323  -0.558   5.286  0.00  0.00    +0.017 A 
ATOM     16  C   UNL     1       1.439  -1.155   6.166  0.00  0.00    +0.018 A 
ATOM     17  C   UNL     1       0.697  -2.251   5.763  0.00  0.00    +0.017 A 
ATOM     18  C   UNL     1       0.839  -2.748   4.482  0.00  0.00    +0.030 A 
ATOM     19 BR   UNL     1       1.244  -0.473   7.919  0.00  0.00    -0.050 Br
ENDBRANCH  10  13
ENDBRANCH   7  10
BRANCH   1  20
ATOM     20  C   UNL     1       1.454   3.392  -0.092  0.00  0.00    +0.092 C 
BRANCH  20  21
ATOM     21  C   UNL     1       2.895   3.849   0.148  0.00  0.00    +0.050 C 
BRANCH  21  25
ATOM     22  C   UNL     1       3.105   8.111  -0.124  0.00  0.00    +0.161 A 
ATOM     23  C   UNL     1       3.294   7.332  -1.254  0.00  0.00    +0.049 A 
ATOM     24  C   UNL     1       3.231   5.954  -1.161  0.00  0.00    +0.007 A 
ATOM     25  C   UNL     1       2.969   5.351   0.055  0.00  0.00    -0.042 A 
ATOM     26  C   UNL     1       2.779   6.123   1.186  0.00  0.00    +0.053 A 
ATOM     27  C   UNL     1       2.847   7.504   1.101  0.00  0.00    +0.162 A 
BRANCH  22  29
ATOM     28  C   UNL     1       3.442  10.020  -1.502  0.00  0.00    +0.277 C 
ATOM     29  O   UNL     1       3.173   9.467  -0.212  0.00  0.00    -0.491 OA
ENDBRANCH  22  29
BRANCH  27  30
ATOM     30  O   UNL     1       2.660   8.265   2.213  0.00  0.00    -0.491 OA
ATOM     31  C   UNL     1       2.398   7.574   3.436  0.00  0.00    +0.277 C 
ENDBRANCH  27  30
ENDBRANCH  21  25
ENDBRANCH  20  21
ENDBRANCH   1  20
TORSDOF 7
