REMARK  Name = ZINC63514105
REMARK  7 active torsions:
REMARK  status: ('A' for Active; 'I' for Inactive)
REMARK    1  A    between atoms: C_1  and  C_2
REMARK    2  A    between atoms: C_7  and  C_13
REMARK    3  A    between atoms: C_8  and  C_12
REMARK    4  A    between atoms: C_13  and  C_14
REMARK    5  A    between atoms: C_14  and  N_15
REMARK    6  A    between atoms: C_16  and  C_18
REMARK    7  A    between atoms: C_23  and  N_24
REMARK                            x       y       z     vdW  Elec       q    Type
REMARK                         _______ _______ _______ _____ _____    ______ ____
ROOT
ATOM      1  C   UNL     1       0.128  -8.819   1.446  0.00  0.00    +0.068 A 
ATOM      2  C   UNL     1       0.132  -9.163   2.798  0.00  0.00    +0.016 A 
ATOM      3  C   UNL     1       0.150 -10.492   3.179  0.00  0.00    +0.013 A 
ATOM      4  C   UNL     1       0.165 -11.494   2.214  0.00  0.00    +0.035 A 
ATOM      5  C   UNL     1       0.161 -11.154   0.849  0.00  0.00    +0.064 A 
ATOM      6  C   UNL     1       0.137  -9.816   0.470  0.00  0.00    +0.150 A 
ATOM      7  C   UNL     1       0.177 -12.217  -0.179  0.00  0.00    +0.197 C 
ATOM      8  O   UNL     1       0.174 -11.922  -1.358  0.00  0.00    -0.287 OA
ATOM      9  C   UNL     1       0.198 -13.637   0.229  0.00  0.00    +0.033 A 
ATOM     10  C   UNL     1       0.214 -14.643  -0.733  0.00  0.00    +0.012 A 
ATOM     11  C   UNL     1       0.234 -15.971  -0.342  0.00  0.00    +0.001 A 
ATOM     12  C   UNL     1       0.238 -16.306   0.999  0.00  0.00    +0.001 A 
ATOM     13  C   UNL     1       0.222 -15.319   1.969  0.00  0.00    +0.012 A 
ATOM     14  C   UNL     1       0.202 -13.978   1.593  0.00  0.00    +0.033 A 
ATOM     15  C   UNL     1       0.186 -12.917   2.622  0.00  0.00    +0.195 C 
ATOM     16  O   UNL     1       0.190 -13.212   3.800  0.00  0.00    -0.287 OA
ENDROOT
BRANCH   1  18
ATOM     17  N   UNL     1       0.098  -6.430   1.988  0.00  0.00    -0.311 N 
ATOM     18  C   UNL     1       0.107  -7.394   1.046  0.00  0.00    +0.246 C 
ATOM     19  O   UNL     1       0.098  -7.093  -0.131  0.00  0.00    -0.270 OA
ATOM     20  H   UNL     1       0.105  -6.670   2.928  0.00  0.00    +0.149 HD
BRANCH  17  21
ATOM     21  C   UNL     1       0.077  -5.020   1.593  0.00  0.00    +0.109 C 
BRANCH  21  22
ATOM     22  C   UNL     1       0.070  -4.139   2.844  0.00  0.00    +0.052 C 
BRANCH  22  29
ATOM     23  C   UNL     1      -0.018   1.503   0.010  0.00  0.00    +0.046 C 
ATOM     24  C   UNL     1       0.002  -0.004   0.002  0.00  0.00    -0.027 A 
ATOM     25  C   UNL     1       0.006  -0.669  -1.173  0.00  0.00    +0.005 A 
ATOM     26  C   UNL     1       0.024  -2.068  -1.251  0.00  0.00    +0.001 A 
ATOM     27  C   UNL     1       0.040  -2.842  -0.142  0.00  0.00    +0.010 A 
ATOM     28  C   UNL     1       0.037  -2.197   1.177  0.00  0.00    -0.001 A 
ATOM     29  C   UNL     1       0.049  -2.688   2.437  0.00  0.00    -0.037 C 
ATOM     30  C   UNL     1       0.037  -1.486   3.355  0.00  0.00    +0.103 C 
ATOM     31  N   UNL     1       0.018  -0.310   2.478  0.00  0.00    -0.378 N 
ATOM     32  C   UNL     1       0.023  -0.718   1.232  0.00  0.00    +0.046 A 
ATOM     33  C   UNL     1      -1.212  -1.509   4.237  0.00  0.00    +0.035 C 
ATOM     34  H   UNL     1       0.007   0.614   2.771  0.00  0.00    +0.160 HD
ENDBRANCH  22  29
ENDBRANCH  21  22
ENDBRANCH  17  21
ENDBRANCH   1  18
BRANCH   6  35
ATOM     35  N   UNL     1       0.126  -9.451  -0.964  0.00  0.00    +0.058 N 
ATOM     36  O   UNL     1       1.169  -9.288  -1.554  0.00  0.00    -0.126 OA
ATOM     37  O   UNL     1      -0.925  -9.316  -1.546  0.00  0.00    -0.126 OA
ENDBRANCH   6  35
TORSDOF 5
