REMARK  Name = ZINC67102490
REMARK  8 active torsions:
REMARK  status: ('A' for Active; 'I' for Inactive)
REMARK    1  A    between atoms: C_1  and  C_2
REMARK    2  A    between atoms: C_2  and  C_3
REMARK    3  A    between atoms: C_4  and  C_12
REMARK    4  A    between atoms: C_12  and  N_13
REMARK    5  A    between atoms: N_13  and  C_14
REMARK    6  A    between atoms: N_17  and  N_18
REMARK    7  A    between atoms: C_19  and  C_21
REMARK    8  A    between atoms: C_22  and  C_26
REMARK                            x       y       z     vdW  Elec       q    Type
REMARK                         _______ _______ _______ _____ _____    ______ ____
ROOT
ATOM      1  N   UNL     1      -1.768  -1.736   2.756  0.00  0.00    -0.283 N 
ATOM      2  C   UNL     1      -1.895  -2.741   3.814  0.00  0.00    +0.134 C 
ATOM      3  C   UNL     1      -2.462  -1.874   1.609  0.00  0.00    +0.319 C 
ATOM      4  O   UNL     1      -2.224  -1.148   0.663  0.00  0.00    -0.251 OA
ATOM      5  N   UNL     1      -3.421  -2.817   1.511  0.00  0.00    -0.218 N 
ATOM      6  H   UNL     1      -3.829  -3.005   0.651  0.00  0.00    +0.174 HD
ENDROOT
BRANCH   5   7
ATOM      7  N   UNL     1      -3.827  -3.524   2.650  0.00  0.00    -0.229 N 
ATOM      8  C   UNL     1      -4.660  -4.577   2.527  0.00  0.00    +0.267 C 
ATOM      9  O   UNL     1      -5.058  -4.913   1.428  0.00  0.00    -0.268 OA
ATOM     10  H   UNL     1      -3.510  -3.256   3.526  0.00  0.00    +0.173 HD
BRANCH   8  11
ATOM     11  C   UNL     1      -5.085  -5.317   3.719  0.00  0.00    +0.078 A 
ATOM     12  C   UNL     1      -5.921  -6.419   3.811  0.00  0.00    -0.031 A 
ATOM     13  C   UNL     1      -6.137  -6.901   5.080  0.00  0.00    +0.011 A 
ATOM     14  C   UNL     1      -5.536  -6.286   6.129  0.00  0.00    +0.046 A 
ATOM     15  S   UNL     1      -4.655  -5.040   5.427  0.00  0.00    -0.092 S 
ATOM     16  C   UNL     1      -6.554  -7.049   2.597  0.00  0.00    +0.045 C 
ENDBRANCH   8  11
ENDBRANCH   5   7
BRANCH   1  17
ATOM     17  C   UNL     1      -0.886  -0.582   2.944  0.00  0.00    +0.148 C 
BRANCH  17  19
ATOM     18  C   UNL     1       0.995  -0.491   1.229  0.00  0.00    +0.111 A 
ATOM     19  C   UNL     1       0.481  -0.899   2.397  0.00  0.00    +0.019 A 
ATOM     20  C   UNL     1       1.518  -1.718   3.036  0.00  0.00    +0.025 A 
ATOM     21  C   UNL     1       1.604  -2.417   4.239  0.00  0.00    +0.012 A 
ATOM     22  C   UNL     1       2.748  -3.101   4.545  0.00  0.00    +0.001 A 
ATOM     23  C   UNL     1       3.821  -3.104   3.667  0.00  0.00    +0.004 A 
ATOM     24  C   UNL     1       3.755  -2.419   2.472  0.00  0.00    +0.047 A 
ATOM     25  C   UNL     1       2.602  -1.718   2.142  0.00  0.00    +0.136 A 
ATOM     26  O   UNL     1       2.240  -0.976   1.076  0.00  0.00    -0.459 OA
BRANCH  18  28
ATOM     27  C   UNL     1       0.488   1.852   0.593  0.00  0.00    +0.012 C 
ATOM     28  C   UNL     1       0.280   0.380   0.229  0.00  0.00    +0.071 C 
ENDBRANCH  18  28
ENDBRANCH  17  19
ENDBRANCH   1  17
TORSDOF 5
