REMARK  Name = ZINC42478183
REMARK  3 active torsions:
REMARK  status: ('A' for Active; 'I' for Inactive)
REMARK    1  A    between atoms: C_2  and  C_12
REMARK    2  A    between atoms: C_13  and  C_14
REMARK    3  A    between atoms: N_16  and  C_17
REMARK                            x       y       z     vdW  Elec       q    Type
REMARK                         _______ _______ _______ _____ _____    ______ ____
ROOT
ATOM      1  C   UNL     1       1.190   3.604  -0.224  0.00  0.00    +0.013 C 
ATOM      2  C   UNL     1       2.328   4.250   0.104  0.00  0.00    +0.068 C 
ENDROOT
BRANCH   1   4
ATOM      3  C   UNL     1       2.115   2.024  -1.907  0.00  0.00    +0.057 A 
ATOM      4  C   UNL     1       1.253   2.267  -0.832  0.00  0.00    -0.020 A 
ATOM      5  C   UNL     1       0.451   1.232  -0.337  0.00  0.00    +0.031 A 
ATOM      6  C   UNL     1       0.515  -0.020  -0.909  0.00  0.00    +0.087 A 
ATOM      7  C   UNL     1       1.373  -0.261  -1.977  0.00  0.00    +0.180 A 
ATOM      8  C   UNL     1       2.172   0.765  -2.475  0.00  0.00    +0.164 A 
ATOM      9  O   UNL     1       3.011   0.547  -3.525  0.00  0.00    -0.485 OA
ATOM     10  C   UNL     1       3.317  -0.818  -3.831  0.00  0.00    +0.270 C 
ATOM     11  C   UNL     1       2.007  -1.617  -3.824  0.00  0.00    +0.270 C 
ATOM     12  O   UNL     1       1.422  -1.506  -2.522  0.00  0.00    -0.483 OA
ATOM     13 CL   UNL     1      -0.479  -1.303  -0.293  0.00  0.00    -0.080 Cl
ENDBRANCH   1   4
BRANCH   2  14
ATOM     14  C   UNL     1       3.605   3.537   0.089  0.00  0.00    +0.237 C 
ATOM     15  O   UNL     1       3.628   2.335  -0.101  0.00  0.00    -0.271 OA
ATOM     16  N   UNL     1       4.756   4.211   0.284  0.00  0.00    -0.301 N 
ATOM     17  H   UNL     1       4.737   5.169   0.435  0.00  0.00    +0.150 HD
BRANCH  16  18
ATOM     18  C   UNL     1       6.035   3.496   0.268  0.00  0.00    +0.159 C 
ATOM     19  C   UNL     1       7.161   4.465  -0.101  0.00  0.00    +0.032 C 
ATOM     20  C   UNL     1       8.335   3.719  -0.706  0.00  0.00    +0.004 C 
ATOM     21  C   UNL     1       9.046   2.799   0.270  0.00  0.00    +0.019 C 
ATOM     22  C   UNL     1       8.142   1.635   0.680  0.00  0.00    +0.104 C 
ATOM     23  N   UNL     1       7.314   2.061   1.820  0.00  0.00    -0.314 N 
ATOM     24  C   UNL     1       6.316   2.927   1.643  0.00  0.00    +0.233 C 
ATOM     25  O   UNL     1       5.635   3.264   2.588  0.00  0.00    -0.274 OA
ATOM     26  H   UNL     1       7.493   1.706   2.705  0.00  0.00    +0.149 HD
ENDBRANCH  16  18
ENDBRANCH   2  14
TORSDOF 3
