REMARK  Name = ZINC05945311
REMARK  12 active torsions:
REMARK  status: ('A' for Active; 'I' for Inactive)
REMARK    1  A    between atoms: C_1  and  C_2
REMARK    2  A    between atoms: C_2  and  C_30
REMARK    3  A    between atoms: C_4  and  N_10
REMARK    4  A    between atoms: C_6  and  C_8
REMARK    5  A    between atoms: C_6  and  C_9
REMARK    6  A    between atoms: N_10  and  C_11
REMARK    7  A    between atoms: N_10  and  C_20
REMARK    8  A    between atoms: C_11  and  C_12
REMARK    9  A    between atoms: C_17  and  O_18
REMARK   10  A    between atoms: O_18  and  C_19
REMARK   11  A    between atoms: C_20  and  N_22
REMARK   12  A    between atoms: N_22  and  C_23
REMARK                            x       y       z     vdW  Elec       q    Type
REMARK                         _______ _______ _______ _____ _____    ______ ____
ROOT
ATOM      1  N   UNL     1       2.616  -0.765  -2.528  0.00  0.00    -0.305 N 
ENDROOT
BRANCH   1   5
ATOM      2  C   UNL     1       0.653   2.364  -0.130  0.00  0.00    -0.010 C 
ATOM      3  C   UNL     1       0.301   0.878  -0.011  0.00  0.00    -0.072 C 
ATOM      4  C   UNL     1       0.723   0.144  -1.280  0.00  0.00    +0.009 C 
ATOM      5  C   UNL     1       2.241  -0.030  -1.314  0.00  0.00    +0.073 C 
ATOM      6  C   UNL     1       2.656  -0.840  -0.086  0.00  0.00    +0.009 C 
ATOM      7  C   UNL     1       2.248  -0.115   1.192  0.00  0.00    -0.072 C 
ATOM      8  N   UNL     1       0.856   0.299   1.200  0.00  0.00    +0.386 N 
ATOM      9  C   UNL     1       3.184   1.074   1.434  0.00  0.00    -0.010 C 
ATOM     10  C   UNL     1       2.453  -1.099   2.367  0.00  0.00    -0.010 C 
ATOM     11  C   UNL     1      -1.240   0.783   0.087  0.00  0.00    -0.010 C 
ATOM     12  H   UNL     1       0.724   0.968   1.965  0.00  0.00    -0.084 HD
ATOM     13  H   UNL     1       0.283  -0.510   1.460  0.00  0.00    -0.084 HD
ENDBRANCH   1   5
BRANCH   1  14
ATOM     14  C   UNL     1       2.151  -2.013  -2.732  0.00  0.00    +0.138 C 
ATOM     15  S   UNL     1       1.055  -2.710  -1.616  0.00  0.00    -0.018 S 
BRANCH  14  16
ATOM     16  N   UNL     1       2.548  -2.713  -3.813  0.00  0.00    -0.297 N 
ATOM     17  H   UNL     1       3.162  -3.457  -3.710  0.00  0.00    +0.154 HD
BRANCH  16  18
ATOM     18  C   UNL     1       2.076  -2.365  -5.083  0.00  0.00    +0.033 A 
ATOM     19  C   UNL     1       1.244  -1.264  -5.239  0.00  0.00    +0.024 A 
ATOM     20  C   UNL     1       0.780  -0.923  -6.494  0.00  0.00    +0.017 A 
ATOM     21  C   UNL     1       1.142  -1.678  -7.596  0.00  0.00    +0.018 A 
ATOM     22  C   UNL     1       1.971  -2.776  -7.444  0.00  0.00    +0.017 A 
ATOM     23  C   UNL     1       2.443  -3.118  -6.192  0.00  0.00    +0.024 A 
ATOM     24 BR   UNL     1       0.504  -1.209  -9.313  0.00  0.00    -0.050 Br
ENDBRANCH  16  18
ENDBRANCH  14  16
ENDBRANCH   1  14
BRANCH   1  25
ATOM     25  C   UNL     1       3.497  -0.141  -3.519  0.00  0.00    +0.145 C 
BRANCH  25  26
ATOM     26  C   UNL     1       4.933  -0.313  -3.094  0.00  0.00    +0.011 A 
ATOM     27  C   UNL     1       5.572   0.694  -2.396  0.00  0.00    +0.009 A 
ATOM     28  C   UNL     1       6.889   0.537  -2.006  0.00  0.00    +0.001 A 
ATOM     29  C   UNL     1       7.570  -0.627  -2.313  0.00  0.00    +0.004 A 
ATOM     30  C   UNL     1       6.935  -1.636  -3.010  0.00  0.00    +0.046 A 
ATOM     31  C   UNL     1       5.612  -1.484  -3.398  0.00  0.00    +0.125 A 
BRANCH  31  32
ATOM     32  O   UNL     1       4.983  -2.478  -4.079  0.00  0.00    -0.495 OA
ATOM     33  C   UNL     1       5.743  -3.655  -4.357  0.00  0.00    +0.277 C 
ENDBRANCH  31  32
ENDBRANCH  25  26
ENDBRANCH   1  25
TORSDOF 7
