REMARK  Name = ZINC35449688
REMARK  8 active torsions:
REMARK  status: ('A' for Active; 'I' for Inactive)
REMARK    1  A    between atoms: C_1  and  C_2
REMARK    2  A    between atoms: C_6  and  C_8
REMARK    3  A    between atoms: C_13  and  S_17
REMARK    4  A    between atoms: S_17  and  C_18
REMARK    5  A    between atoms: C_18  and  C_19
REMARK    6  A    between atoms: C_19  and  C_20
REMARK    7  A    between atoms: C_20  and  C_21
REMARK    8  A    between atoms: C_20  and  C_22
REMARK                            x       y       z     vdW  Elec       q    Type
REMARK                         _______ _______ _______ _____ _____    ______ ____
ROOT
ATOM      1  C   UNL     1       0.054  -2.845   2.489  0.00  0.00    +0.092 C 
ATOM      2  C   UNL     1       1.303  -3.671   2.558  0.00  0.00    +0.069 A 
ATOM      3  C   UNL     1       1.265  -5.034   2.321  0.00  0.00    +0.135 A 
ATOM      4  N   UNL     1       2.392  -5.752   2.382  0.00  0.00    -0.208 NA
ATOM      5  C   UNL     1       3.546  -5.184   2.669  0.00  0.00    +0.171 A 
ATOM      6  N   UNL     1       3.636  -3.847   2.914  0.00  0.00    -0.302 N 
ATOM      7  C   UNL     1       2.531  -3.073   2.864  0.00  0.00    +0.258 A 
ATOM      8  O   UNL     1       2.602  -1.874   3.080  0.00  0.00    -0.267 OA
ATOM      9  N   UNL     1       0.062  -5.644   2.027  0.00  0.00    -0.302 N 
ATOM     10  C   UNL     1      -1.122  -5.035   2.343  0.00  0.00    +0.017 C 
ATOM     11  C   UNL     1      -1.180  -3.708   2.571  0.00  0.00    +0.024 C 
ATOM     12  C   UNL     1      -2.398  -3.082   2.891  0.00  0.00    +0.162 C 
ATOM     13  O   UNL     1      -2.414  -1.886   3.107  0.00  0.00    -0.292 OA
ATOM     14  C   UNL     1      -3.681  -3.862   2.971  0.00  0.00    +0.080 C 
ATOM     15  C   UNL     1      -3.585  -5.072   2.035  0.00  0.00    +0.014 C 
ATOM     16  C   UNL     1      -2.361  -5.893   2.433  0.00  0.00    +0.051 C 
ATOM     17  H   UNL     1       0.056  -6.512   1.594  0.00  0.00    +0.153 HD
ATOM     18  H   UNL     1       4.495  -3.451   3.126  0.00  0.00    +0.171 HD
ENDROOT
BRANCH   1  24
ATOM     19  C   UNL     1      -0.018   1.503   0.010  0.00  0.00    +0.044 C 
ATOM     20  C   UNL     1       0.002  -0.004   0.002  0.00  0.00    -0.050 A 
ATOM     21  C   UNL     1       0.006  -0.689  -1.199  0.00  0.00    +0.003 A 
ATOM     22  C   UNL     1       0.025  -2.071  -1.207  0.00  0.00    +0.001 A 
ATOM     23  C   UNL     1       0.040  -2.768  -0.013  0.00  0.00    +0.004 A 
ATOM     24  C   UNL     1       0.037  -2.084   1.188  0.00  0.00    -0.035 A 
ATOM     25  C   UNL     1       0.023  -0.702   1.195  0.00  0.00    +0.008 A 
ENDBRANCH   1  24
BRANCH   5  26
ATOM     26  S   UNL     1       5.002  -6.174   2.737  0.00  0.00    -0.088 S 
BRANCH  26  27
ATOM     27  C   UNL     1       4.413  -7.846   2.352  0.00  0.00    +0.077 C 
BRANCH  27  28
ATOM     28  C   UNL     1       5.593  -8.820   2.377  0.00  0.00    +0.014 C 
BRANCH  28  29
ATOM     29  C   UNL     1       5.097 -10.231   2.053  0.00  0.00    -0.016 C 
ATOM     30  C   UNL     1       6.292 -11.182   1.955  0.00  0.00    +0.007 C 
ATOM     31  C   UNL     1       4.154 -10.708   3.159  0.00  0.00    +0.007 C 
ENDBRANCH  28  29
ENDBRANCH  27  28
ENDBRANCH  26  27
ENDBRANCH   5  26
TORSDOF 5
