REMARK  Name = ZINC15839441
REMARK  10 active torsions:
REMARK  status: ('A' for Active; 'I' for Inactive)
REMARK    1  A    between atoms: C_1  and  C_2
REMARK    2  A    between atoms: C_2  and  C_3
REMARK    3  A    between atoms: C_3  and  C_34
REMARK    4  A    between atoms: N_18  and  C_33
REMARK    5  A    between atoms: C_20  and  S_21
REMARK    6  A    between atoms: S_21  and  C_22
REMARK    7  A    between atoms: C_22  and  C_23
REMARK    8  A    between atoms: N_25  and  C_26
REMARK    9  A    between atoms: C_29  and  C_32
REMARK   10  A    between atoms: C_34  and  C_35
REMARK                            x       y       z     vdW  Elec       q    Type
REMARK                         _______ _______ _______ _____ _____    ______ ____
ROOT
ATOM      1  C   UNL     1       8.553  -8.411  -1.007  0.00  0.00    +0.006 C 
ATOM      2  C   UNL     1       9.085  -9.718  -0.427  0.00  0.00    +0.047 C 
ATOM      3  C   UNL     1       8.524 -10.898  -1.176  0.00  0.00    -0.037 A 
ATOM      4  C   UNL     1       9.297 -12.022  -1.382  0.00  0.00    +0.004 A 
ATOM      5  C   UNL     1       8.772 -13.109  -2.058  0.00  0.00    +0.000 A 
ATOM      6  C   UNL     1       7.472 -13.078  -2.530  0.00  0.00    +0.001 A 
ATOM      7  C   UNL     1       6.691 -11.957  -2.336  0.00  0.00    +0.010 A 
ATOM      8  C   UNL     1       7.218 -10.858  -1.662  0.00  0.00    +0.004 A 
ATOM      9  C   UNL     1       6.407  -9.636  -1.455  0.00  0.00    +0.084 A 
ATOM     10  C   UNL     1       7.055  -8.451  -1.122  0.00  0.00    +0.050 A 
ATOM     11  C   UNL     1       6.291  -7.303  -0.904  0.00  0.00    +0.266 A 
ATOM     12  O   UNL     1       6.825  -6.248  -0.600  0.00  0.00    -0.267 OA
ATOM     13  N   UNL     1       4.949  -7.382  -1.034  0.00  0.00    -0.222 N 
ATOM     14  C   UNL     1       4.362  -8.561  -1.387  0.00  0.00    +0.237 A 
ATOM     15  N   UNL     1       5.082  -9.652  -1.593  0.00  0.00    -0.211 NA
ATOM     16  N   UNL     1       3.021  -8.336  -1.454  0.00  0.00    -0.233 N 
ATOM     17  N   UNL     1       2.805  -6.993  -1.119  0.00  0.00    -0.143 NA
ATOM     18  C   UNL     1       3.957  -6.439  -0.877  0.00  0.00    +0.198 A 
ATOM     19  C   UNL     1       1.993  -9.319  -1.808  0.00  0.00    +0.176 C 
ENDROOT
BRANCH   1  21
ATOM     20  C   UNL     1       8.657  -6.865  -2.967  0.00  0.00    +0.005 C 
ATOM     21  C   UNL     1       9.159  -8.192  -2.395  0.00  0.00    +0.009 C 
ENDBRANCH   1  21
BRANCH   1  22
ATOM     22  C   UNL     1       8.957  -7.253  -0.092  0.00  0.00    +0.009 C 
ATOM     23  C   UNL     1      10.466  -7.302   0.155  0.00  0.00    +0.005 C 
ENDBRANCH   1  22
BRANCH  18  24
ATOM     24  S   UNL     1       4.207  -4.757  -0.415  0.00  0.00    -0.076 S 
BRANCH  24  25
ATOM     25  C   UNL     1       2.494  -4.173  -0.416  0.00  0.00    +0.173 C 
BRANCH  25  26
ATOM     26  C   UNL     1       2.460  -2.714  -0.038  0.00  0.00    +0.227 C 
ATOM     27  O   UNL     1       3.493  -2.128   0.208  0.00  0.00    -0.275 OA
ATOM     28  N   UNL     1       1.283  -2.062   0.027  0.00  0.00    -0.285 N 
ATOM     29  H   UNL     1       0.452  -2.547  -0.096  0.00  0.00    +0.155 HD
BRANCH  28  30
ATOM     30  C   UNL     1       1.259  -0.685   0.272  0.00  0.00    +0.033 A 
ATOM     31  C   UNL     1       2.279   0.126  -0.207  0.00  0.00    +0.023 A 
ATOM     32  C   UNL     1       2.252   1.485   0.036  0.00  0.00    +0.005 A 
ATOM     33  C   UNL     1       1.210   2.039   0.756  0.00  0.00    -0.050 A 
ATOM     34  C   UNL     1       0.192   1.235   1.235  0.00  0.00    +0.005 A 
ATOM     35  C   UNL     1       0.213  -0.125   0.995  0.00  0.00    +0.023 A 
ATOM     36  C   UNL     1       1.184   3.523   1.019  0.00  0.00    +0.044 C 
ENDBRANCH  28  30
ENDBRANCH  25  26
ENDBRANCH  24  25
ENDBRANCH  18  24
TORSDOF 6
