REMARK  Name = ZINC36141758
REMARK  6 active torsions:
REMARK  status: ('A' for Active; 'I' for Inactive)
REMARK    1  A    between atoms: C_1  and  C_2
REMARK    2  A    between atoms: C_2  and  C_3
REMARK    3  A    between atoms: C_2  and  C_4
REMARK    4  A    between atoms: C_4  and  O_5
REMARK    5  A    between atoms: O_5  and  C_6
REMARK    6  A    between atoms: C_12  and  O_21
REMARK                            x       y       z     vdW  Elec       q    Type
REMARK                         _______ _______ _______ _____ _____    ______ ____
ROOT
ATOM      1  C   UNL     1      -3.224  -0.160  -1.192  0.00  0.00    +0.130 A 
ATOM      2  C   UNL     1      -3.767  -0.716  -0.044  0.00  0.00    +0.046 A 
ATOM      3  C   UNL     1      -5.076  -1.158  -0.046  0.00  0.00    +0.007 A 
ATOM      4  C   UNL     1      -5.839  -1.050  -1.192  0.00  0.00    +0.046 A 
ATOM      5  C   UNL     1      -5.298  -0.496  -2.348  0.00  0.00    +0.130 A 
ATOM      6  C   UNL     1      -3.993  -0.039  -2.343  0.00  0.00    +0.064 A 
ATOM      7  C   UNL     1      -3.377   0.601  -3.561  0.00  0.00    +0.155 C 
ATOM      8  C   UNL     1      -4.180   0.249  -4.810  0.00  0.00    +0.082 C 
ATOM      9  C   UNL     1      -5.667   0.409  -4.528  0.00  0.00    +0.097 C 
ATOM     10  O   UNL     1      -6.077  -0.424  -3.458  0.00  0.00    -0.487 OA
ATOM     11  C   UNL     1      -5.993   1.890  -4.229  0.00  0.00    +0.027 C 
ATOM     12  C   UNL     1      -7.478   1.978  -4.664  0.00  0.00    -0.079 C 
ATOM     13  N   UNL     1      -7.576   1.103  -5.853  0.00  0.00    +0.382 N 
ATOM     14  C   UNL     1      -6.487   0.108  -5.794  0.00  0.00    -0.034 C 
ATOM     15  H   UNL     1      -8.467   0.630  -5.854  0.00  0.00    -0.086 HD
ATOM     16  H   UNL     1      -7.485   1.657  -6.691  0.00  0.00    -0.086 HD
ENDROOT
BRANCH   7  17
ATOM     17  O   UNL     1      -2.037   0.129  -3.716  0.00  0.00    -0.387 OA
ATOM     18  H   UNL     1      -1.549   0.559  -4.431  0.00  0.00    +0.210 HD
ENDBRANCH   7  17
BRANCH   1  19
ATOM     19  O   UNL     1      -1.935   0.274  -1.189  0.00  0.00    -0.491 OA
BRANCH  19  20
ATOM     20  C   UNL     1      -1.202   0.120   0.027  0.00  0.00    +0.232 C 
BRANCH  20  22
ATOM     21  C   UNL     1       0.159   2.169  -0.411  0.00  0.00    +0.010 C 
ATOM     22  C   UNL     1       0.217   0.661  -0.162  0.00  0.00    +0.020 C 
ATOM     23  C   UNL     1       1.040   0.383   1.098  0.00  0.00    +0.010 C 
ENDBRANCH  20  22
ENDBRANCH  19  20
ENDBRANCH   1  19
TORSDOF 4
