REMARK  Name = ZINC32506134
REMARK  7 active torsions:
REMARK  status: ('A' for Active; 'I' for Inactive)
REMARK    1  A    between atoms: C_1  and  C_2
REMARK    2  A    between atoms: C_5  and  C_8
REMARK    3  A    between atoms: C_8  and  C_9
REMARK    4  A    between atoms: C_9  and  N_11
REMARK    5  A    between atoms: N_13  and  C_24
REMARK    6  A    between atoms: C_28  and  C_31
REMARK    7  A    between atoms: C_29  and  C_30
REMARK                            x       y       z     vdW  Elec       q    Type
REMARK                         _______ _______ _______ _____ _____    ______ ____
ROOT
ATOM      1  N   UNL     1       1.751  -6.109  -0.148  0.00  0.00    -0.159 NA
ATOM      2  C   UNL     1       3.015  -6.513  -0.199  0.00  0.00    +0.154 C 
ATOM      3  N   UNL     1       4.159  -5.709  -0.162  0.00  0.00    -0.276 N 
ATOM      4  C   UNL     1       5.223  -6.395   0.507  0.00  0.00    +0.116 C 
ATOM      5  C   UNL     1       6.641  -5.887   0.692  0.00  0.00    +0.190 C 
ATOM      6  S   UNL     1       7.374  -7.447   1.386  0.00  0.00    -0.028 S 
ATOM      7  O   UNL     1       7.263  -7.422   2.802  0.00  0.00    -0.174 OA
ATOM      8  O   UNL     1       8.643  -7.668   0.786  0.00  0.00    -0.174 OA
ATOM      9  C   UNL     1       6.161  -8.669   0.706  0.00  0.00    +0.182 C 
ATOM     10  C   UNL     1       5.370  -7.766  -0.259  0.00  0.00    +0.097 C 
ATOM     11  S   UNL     1       3.575  -8.108  -0.317  0.00  0.00    -0.086 S 
ENDROOT
BRANCH   3  12
ATOM     12  C   UNL     1       4.251  -4.422  -0.701  0.00  0.00    +0.039 A 
ATOM     13  C   UNL     1       4.101  -3.311   0.120  0.00  0.00    +0.024 A 
ATOM     14  C   UNL     1       4.193  -2.042  -0.415  0.00  0.00    +0.002 A 
ATOM     15  C   UNL     1       4.434  -1.875  -1.767  0.00  0.00    +0.004 A 
ATOM     16  C   UNL     1       4.583  -2.978  -2.587  0.00  0.00    -0.046 A 
ATOM     17  C   UNL     1       4.498  -4.251  -2.057  0.00  0.00    -0.026 A 
ATOM     18  C   UNL     1       4.668  -5.453  -2.950  0.00  0.00    +0.046 C 
ATOM     19  C   UNL     1       4.846  -2.792  -4.059  0.00  0.00    +0.044 C 
ENDBRANCH   3  12
BRANCH   1  20
ATOM     20  C   UNL     1       1.464  -4.811  -0.198  0.00  0.00    +0.243 C 
ATOM     21  O   UNL     1       1.896  -4.128  -1.105  0.00  0.00    -0.273 OA
BRANCH  20  22
ATOM     22  C   UNL     1       0.604  -4.188   0.872  0.00  0.00    +0.133 C 
BRANCH  22  27
ATOM     23  C   UNL     1      -0.057   1.447  -0.226  0.00  0.00    +0.044 C 
ATOM     24  C   UNL     1       0.115  -0.022   0.060  0.00  0.00    -0.050 A 
ATOM     25  C   UNL     1      -0.783  -0.937  -0.456  0.00  0.00    +0.003 A 
ATOM     26  C   UNL     1      -0.625  -2.285  -0.194  0.00  0.00    +0.004 A 
ATOM     27  C   UNL     1       0.432  -2.718   0.585  0.00  0.00    -0.039 A 
ATOM     28  C   UNL     1       1.331  -1.803   1.100  0.00  0.00    +0.004 A 
ATOM     29  C   UNL     1       1.175  -0.456   0.834  0.00  0.00    +0.003 A 
ENDBRANCH  22  27
ENDBRANCH  20  22
ENDBRANCH   1  20
TORSDOF 4
