REMARK  Name = ZINC12593147
REMARK  7 active torsions:
REMARK  status: ('A' for Active; 'I' for Inactive)
REMARK    1  A    between atoms: C_4  and  C_7
REMARK    2  A    between atoms: C_7  and  C_8
REMARK    3  A    between atoms: C_7  and  N_14
REMARK    4  A    between atoms: C_15  and  C_17
REMARK    5  A    between atoms: C_17  and  O_18
REMARK    6  A    between atoms: O_18  and  C_19
REMARK    7  A    between atoms: C_28  and  O_30
REMARK                            x       y       z     vdW  Elec       q    Type
REMARK                         _______ _______ _______ _____ _____    ______ ____
ROOT
ATOM      1  N   UNL     1       2.994  -3.937  -5.931  0.00  0.00    -0.302 N 
ATOM      2  C   UNL     1       2.371  -3.264  -4.943  0.00  0.00    +0.251 C 
ATOM      3  O   UNL     1       1.315  -3.670  -4.504  0.00  0.00    -0.272 OA
ATOM      4  H   UNL     1       3.838  -3.613  -6.281  0.00  0.00    +0.150 HD
ENDROOT
BRANCH   1   5
ATOM      5  C   UNL     1       2.396  -5.159  -6.474  0.00  0.00    +0.134 C 
BRANCH   5   9
ATOM      6  C   UNL     1      -0.428  -4.132  -9.511  0.00  0.00    +0.000 A 
ATOM      7  C   UNL     1      -0.711  -5.151  -8.620  0.00  0.00    +0.000 A 
ATOM      8  C   UNL     1       0.203  -5.484  -7.638  0.00  0.00    +0.006 A 
ATOM      9  C   UNL     1       1.400  -4.797  -7.546  0.00  0.00    -0.023 A 
ATOM     10  C   UNL     1       1.680  -3.775  -8.433  0.00  0.00    +0.006 A 
ATOM     11  C   UNL     1       0.768  -3.446  -9.419  0.00  0.00    +0.000 A 
ENDBRANCH   5   9
BRANCH   5  12
ATOM     12  C   UNL     1       3.476  -6.027  -7.066  0.00  0.00    -0.023 A 
ATOM     13  C   UNL     1       4.506  -5.453  -7.788  0.00  0.00    +0.006 A 
ATOM     14  C   UNL     1       5.500  -6.249  -8.327  0.00  0.00    +0.000 A 
ATOM     15  C   UNL     1       5.458  -7.619  -8.152  0.00  0.00    +0.000 A 
ATOM     16  C   UNL     1       4.426  -8.194  -7.434  0.00  0.00    +0.000 A 
ATOM     17  C   UNL     1       3.435  -7.398  -6.891  0.00  0.00    +0.006 A 
ENDBRANCH   5  12
ENDBRANCH   1   5
BRANCH   2  18
ATOM     18  C   UNL     1       2.986  -2.007  -4.383  0.00  0.00    +0.324 C 
BRANCH  18  19
ATOM     19  O   UNL     1       2.144  -1.482  -3.355  0.00  0.00    -0.482 OA
BRANCH  19  20
ATOM     20  C   UNL     1       2.557  -0.341  -2.743  0.00  0.00    +0.125 A 
ATOM     21  C   UNL     1       3.747   0.254  -3.127  0.00  0.00    +0.046 A 
ATOM     22  C   UNL     1       4.165   1.414  -2.504  0.00  0.00    +0.004 A 
ATOM     23  C   UNL     1       3.397   1.970  -1.501  0.00  0.00    +0.006 A 
ATOM     24  C   UNL     1       2.204   1.375  -1.110  0.00  0.00    -0.013 A 
ATOM     25  C   UNL     1       1.781   0.222  -1.732  0.00  0.00    -0.000 A 
ATOM     26  C   UNL     1       0.495  -0.472  -1.366  0.00  0.00    +0.039 C 
ATOM     27  C   UNL     1       0.002  -0.004   0.002  0.00  0.00    +0.008 C 
ATOM     28  C   UNL     1      -0.019   1.529   0.010  0.00  0.00    +0.036 C 
ATOM     29  C   UNL     1       1.424   2.030  -0.001  0.00  0.00    +0.145 C 
BRANCH  29  30
ATOM     30  O   UNL     1       1.429   3.446  -0.194  0.00  0.00    -0.387 OA
ATOM     31  H   UNL     1       2.314   3.837  -0.212  0.00  0.00    +0.210 HD
ENDBRANCH  29  30
ENDBRANCH  19  20
ENDBRANCH  18  19
ENDBRANCH   2  18
TORSDOF 7
