REMARK  Name = ZINC67369315
REMARK  4 active torsions:
REMARK  status: ('A' for Active; 'I' for Inactive)
REMARK    1  A    between atoms: C_4  and  O_7
REMARK    2  A    between atoms: O_7  and  C_8
REMARK    3  A    between atoms: C_8  and  C_9
REMARK    4  A    between atoms: C_19  and  C_21
REMARK                            x       y       z     vdW  Elec       q    Type
REMARK                         _______ _______ _______ _____ _____    ______ ____
ROOT
ATOM      1  C   UNL     1       4.910  -2.776   0.064  0.00  0.00    +0.030 C 
ATOM      2  C   UNL     1       5.388  -2.437  -1.350  0.00  0.00    +0.026 C 
ATOM      3  C   UNL     1       6.868  -2.808  -1.487  0.00  0.00    +0.107 C 
ATOM      4  N   UNL     1       7.038  -4.219  -1.115  0.00  0.00    -0.315 N 
ATOM      5  C   UNL     1       6.531  -4.673   0.188  0.00  0.00    +0.107 C 
ATOM      6  C   UNL     1       5.055  -4.280   0.306  0.00  0.00    +0.026 C 
ATOM      7  C   UNL     1       7.666  -5.109  -1.979  0.00  0.00    +0.123 A 
ATOM      8  C   UNL     1       8.336  -4.623  -3.101  0.00  0.00    +0.045 A 
ATOM      9  C   UNL     1       8.959  -5.513  -3.957  0.00  0.00    +0.026 A 
ATOM     10  C   UNL     1       8.895  -6.870  -3.667  0.00  0.00    +0.077 A 
ATOM     11  C   UNL     1       8.208  -7.290  -2.529  0.00  0.00    +0.160 A 
ATOM     12  N   UNL     1       7.625  -6.405  -1.725  0.00  0.00    -0.220 NA
ATOM     13 CL   UNL     1       9.659  -8.028  -4.709  0.00  0.00    -0.081 Cl
ENDROOT
BRANCH  11  14
ATOM     14  C   UNL     1       8.135  -8.686  -2.219  0.00  0.00    +0.121 C 
ATOM     15  N   UNL     1       8.076  -9.793  -1.973  0.00  0.00    -0.189 NA
ENDBRANCH  11  14
BRANCH   1  16
ATOM     16  C   UNL     1       3.441  -2.375   0.215  0.00  0.00    +0.232 C 
BRANCH  16  17
ATOM     17  O   UNL     1       3.322  -0.955   0.104  0.00  0.00    -0.492 OA
BRANCH  17  21
ATOM     18  C   UNL     1      -0.469   0.637   0.444  0.00  0.00    +0.000 A 
ATOM     19  C   UNL     1       0.614   1.471   0.234  0.00  0.00    +0.004 A 
ATOM     20  C   UNL     1       1.884   0.940   0.119  0.00  0.00    +0.045 A 
ATOM     21  C   UNL     1       2.073  -0.431   0.217  0.00  0.00    +0.121 A 
ATOM     22  C   UNL     1       0.985  -1.265   0.429  0.00  0.00    +0.045 A 
ATOM     23  C   UNL     1      -0.283  -0.730   0.542  0.00  0.00    +0.004 A 
ENDBRANCH  17  21
ENDBRANCH  16  17
ENDBRANCH   1  16
TORSDOF 4
