REMARK  Name = ZINC65265934
REMARK  8 active torsions:
REMARK  status: ('A' for Active; 'I' for Inactive)
REMARK    1  A    between atoms: C_1  and  C_2
REMARK    2  A    between atoms: C_2  and  C_3
REMARK    3  A    between atoms: C_2  and  C_4
REMARK    4  A    between atoms: C_2  and  N_5
REMARK    5  A    between atoms: C_21  and  C_23
REMARK    6  A    between atoms: C_23  and  C_24
REMARK    7  A    between atoms: C_29  and  O_30
REMARK    8  A    between atoms: O_30  and  C_31
REMARK                            x       y       z     vdW  Elec       q    Type
REMARK                         _______ _______ _______ _____ _____    ______ ____
ROOT
ATOM      1  N   UNL     1       0.195  -0.914  -1.022  0.00  0.00    -0.370 N 
ATOM      2  C   UNL     1       1.417  -1.320  -1.144  0.00  0.00    +0.095 C 
ATOM      3  N   UNL     1       2.384  -0.985  -0.227  0.00  0.00    -0.303 N 
ATOM      4  C   UNL     1       2.602  -1.827   0.859  0.00  0.00    +0.037 A 
ATOM      5  C   UNL     1       2.739  -1.294   2.133  0.00  0.00    +0.023 A 
ATOM      6  C   UNL     1       2.969  -2.124   3.212  0.00  0.00    +0.002 A 
ATOM      7  C   UNL     1       3.063  -3.490   3.010  0.00  0.00    +0.000 A 
ATOM      8  C   UNL     1       2.921  -4.019   1.746  0.00  0.00    +0.007 A 
ATOM      9  C   UNL     1       2.681  -3.197   0.648  0.00  0.00    -0.012 A 
ATOM     10  C   UNL     1       2.505  -3.877  -0.685  0.00  0.00    +0.119 C 
ATOM     11  N   UNL     1       2.950  -3.043  -1.810  0.00  0.00    -0.299 NA
ATOM     12  C   UNL     1       1.849  -2.180  -2.282  0.00  0.00    +0.091 C 
ATOM     13  C   UNL     1       2.301  -1.349  -3.494  0.00  0.00    +0.050 C 
ATOM     14  C   UNL     1       2.071  -2.316  -4.678  0.00  0.00    +0.110 C 
ATOM     15  N   UNL     1       1.098  -3.327  -4.234  0.00  0.00    -0.299 N 
ATOM     16  C   UNL     1       0.696  -3.023  -2.846  0.00  0.00    +0.137 C 
ATOM     17  C   UNL     1       0.647  -4.360  -4.973  0.00  0.00    +0.220 C 
ATOM     18  O   UNL     1      -0.159  -5.135  -4.504  0.00  0.00    -0.275 OA
ATOM     19  H   UNL     1      -0.494  -1.269  -1.606  0.00  0.00    +0.161 HD
ATOM     20  H   UNL     1       3.759  -2.496  -1.557  0.00  0.00    +0.123 HD
ATOM     21  H   UNL     1       2.907  -0.175  -0.336  0.00  0.00    +0.153 HD
ENDROOT
BRANCH   1  23
ATOM     22  C   UNL     1       0.765   1.300  -0.154  0.00  0.00    +0.033 C 
ATOM     23  C   UNL     1      -0.148   0.082  -0.004  0.00  0.00    +0.031 C 
ATOM     24  C   UNL     1       0.037  -0.527   1.387  0.00  0.00    +0.033 C 
ATOM     25  C   UNL     1      -1.605   0.512  -0.183  0.00  0.00    +0.033 C 
ENDBRANCH   1  23
BRANCH  17  26
ATOM     26  C   UNL     1       1.145  -4.551  -6.383  0.00  0.00    +0.134 C 
BRANCH  26  27
ATOM     27  C   UNL     1       0.491  -5.768  -6.985  0.00  0.00    +0.003 A 
ATOM     28  C   UNL     1       1.131  -6.992  -6.939  0.00  0.00    +0.008 A 
ATOM     29  C   UNL     1       0.532  -8.108  -7.491  0.00  0.00    +0.001 A 
ATOM     30  C   UNL     1      -0.709  -8.004  -8.092  0.00  0.00    +0.004 A 
ATOM     31  C   UNL     1      -1.353  -6.783  -8.141  0.00  0.00    +0.046 A 
ATOM     32  C   UNL     1      -0.757  -5.662  -7.582  0.00  0.00    +0.124 A 
BRANCH  32  33
ATOM     33  O   UNL     1      -1.391  -4.461  -7.624  0.00  0.00    -0.495 OA
ATOM     34  C   UNL     1      -2.673  -4.427  -8.254  0.00  0.00    +0.277 C 
ENDBRANCH  32  33
ENDBRANCH  26  27
ENDBRANCH  17  26
TORSDOF 4
