REMARK  Name = ZINC03130791
REMARK  7 active torsions:
REMARK  status: ('A' for Active; 'I' for Inactive)
REMARK    1  A    between atoms: C_3  and  N_9
REMARK    2  A    between atoms: N_9  and  C_10
REMARK    3  A    between atoms: C_10  and  N_12
REMARK    4  A    between atoms: N_12  and  C_13
REMARK    5  A    between atoms: C_13  and  C_15
REMARK    6  A    between atoms: C_13  and  N_19
REMARK    7  A    between atoms: C_20  and  C_22
REMARK                            x       y       z     vdW  Elec       q    Type
REMARK                         _______ _______ _______ _____ _____    ______ ____
ROOT
ATOM      1  N   UNL     1      -3.396   1.039  -1.192  0.00  0.00    -0.305 N 
ATOM      2  H   UNL     1      -3.557   1.931  -1.538  0.00  0.00    +0.150 HD
ENDROOT
BRANCH   1   3
ATOM      3  C   UNL     1      -3.373  -0.016  -2.030  0.00  0.00    +0.136 C 
ATOM      4  S   UNL     1      -3.089  -1.590  -1.418  0.00  0.00    -0.019 S 
BRANCH   3   5
ATOM      5  N   UNL     1      -3.573   0.168  -3.350  0.00  0.00    -0.296 N 
ATOM      6  H   UNL     1      -3.812   1.045  -3.687  0.00  0.00    +0.154 HD
BRANCH   5   9
ATOM      7  C   UNL     1      -2.226  -2.836  -4.989  0.00  0.00    +0.022 A 
ATOM      8  C   UNL     1      -2.359  -1.775  -4.115  0.00  0.00    +0.026 A 
ATOM      9  C   UNL     1      -3.436  -0.908  -4.235  0.00  0.00    +0.051 A 
ATOM     10  C   UNL     1      -4.382  -1.114  -5.233  0.00  0.00    +0.063 A 
ATOM     11  C   UNL     1      -4.242  -2.174  -6.108  0.00  0.00    +0.041 A 
ATOM     12  C   UNL     1      -3.166  -3.036  -5.985  0.00  0.00    +0.042 A 
ATOM     13 CL   UNL     1      -2.996  -4.371  -7.082  0.00  0.00    -0.083 Cl
ATOM     14 CL   UNL     1      -5.736  -0.037  -5.383  0.00  0.00    -0.082 Cl
ENDBRANCH   5   9
ENDBRANCH   3   5
ENDBRANCH   1   3
BRANCH   1  15
ATOM     15  C   UNL     1      -3.178   0.839   0.243  0.00  0.00    +0.211 C 
BRANCH  15  16
ATOM     16  C   UNL     1      -4.213   1.643   1.033  0.00  0.00    +0.225 C 
ATOM     17 CL   UNL     1      -4.043   3.394   0.637  0.00  0.00    -0.080 Cl
ATOM     18 CL   UNL     1      -5.870   1.086   0.593  0.00  0.00    -0.080 Cl
ATOM     19 CL   UNL     1      -3.945   1.397   2.799  0.00  0.00    -0.080 Cl
ENDBRANCH  15  16
BRANCH  15  20
ATOM     20  N   UNL     1      -1.831   1.292   0.601  0.00  0.00    -0.293 N 
ATOM     21  C   UNL     1      -0.861   0.390   0.848  0.00  0.00    +0.229 C 
ATOM     22  O   UNL     1      -1.102  -0.796   0.775  0.00  0.00    -0.274 OA
ATOM     23  H   UNL     1      -1.638   2.241   0.659  0.00  0.00    +0.151 HD
BRANCH  21  24
ATOM     24  C   UNL     1       0.526   0.856   1.209  0.00  0.00    +0.204 C 
ATOM     25 CL   UNL     1       1.592  -0.575   1.470  0.00  0.00    -0.116 Cl
ENDBRANCH  21  24
ENDBRANCH  15  20
ENDBRANCH   1  15
TORSDOF 7
