REMARK  Name = ZINC12551363
REMARK  11 active torsions:
REMARK  status: ('A' for Active; 'I' for Inactive)
REMARK    1  A    between atoms: C_1  and  N_2
REMARK    2  A    between atoms: C_6  and  C_7
REMARK    3  A    between atoms: C_7  and  C_9
REMARK    4  A    between atoms: C_7  and  N_19
REMARK    5  A    between atoms: C_11  and  O_17
REMARK    6  A    between atoms: C_13  and  O_15
REMARK    7  A    between atoms: O_15  and  C_16
REMARK    8  A    between atoms: O_17  and  C_18
REMARK    9  A    between atoms: N_19  and  C_20
REMARK   10  A    between atoms: C_23  and  C_29
REMARK   11  A    between atoms: C_25  and  N_26
REMARK                            x       y       z     vdW  Elec       q    Type
REMARK                         _______ _______ _______ _____ _____    ______ ____
ROOT
ATOM      1  C   UNL     1       0.067   0.028   3.194  0.00  0.00    +0.166 C 
ENDROOT
BRANCH   1   7
ATOM      2  C   UNL     1       0.255   2.050   0.854  0.00  0.00    +0.150 C 
ATOM      3  N   UNL     1       0.419   0.598   0.741  0.00  0.00    -0.337 N 
ATOM      4  C   UNL     1       0.685  -0.102  -0.404  0.00  0.00    +0.104 A 
ATOM      5  C   UNL     1       0.756  -1.402  -0.059  0.00  0.00    +0.102 A 
ATOM      6  N   UNL     1       0.538  -1.492   1.262  0.00  0.00    -0.348 N 
ATOM      7  C   UNL     1       0.341  -0.298   1.748  0.00  0.00    +0.112 A 
ATOM      8  H   UNL     1       0.533  -2.316   1.775  0.00  0.00    +0.167 HD
ENDBRANCH   1   7
BRANCH   1   9
ATOM      9  C   UNL     1       1.373   0.155   3.936  0.00  0.00    -0.013 A 
ATOM     10  C   UNL     1       2.045  -0.979   4.348  0.00  0.00    +0.051 A 
ATOM     11  C   UNL     1       3.248  -0.864   5.032  0.00  0.00    +0.124 A 
ATOM     12  C   UNL     1       3.774   0.390   5.301  0.00  0.00    +0.091 A 
ATOM     13  C   UNL     1       3.097   1.526   4.886  0.00  0.00    +0.124 A 
ATOM     14  C   UNL     1       1.898   1.406   4.198  0.00  0.00    +0.051 A 
BRANCH  13  15
ATOM     15  O   UNL     1       3.610   2.757   5.148  0.00  0.00    -0.495 OA
ATOM     16  C   UNL     1       4.851   2.805   5.856  0.00  0.00    +0.277 C 
ENDBRANCH  13  15
BRANCH  11  17
ATOM     17  O   UNL     1       3.909  -1.980   5.438  0.00  0.00    -0.495 OA
ATOM     18  C   UNL     1       5.140  -1.787   6.136  0.00  0.00    +0.277 C 
ENDBRANCH  11  17
ENDBRANCH   1   9
BRANCH   1  19
ATOM     19  N   UNL     1      -0.732  -1.044   3.793  0.00  0.00    -0.329 N 
ATOM     20  H   UNL     1      -0.295  -1.762   4.278  0.00  0.00    +0.147 HD
BRANCH  19  21
ATOM     21  C   UNL     1      -2.123  -1.032   3.666  0.00  0.00    +0.058 A 
ATOM     22  C   UNL     1      -2.759   0.053   3.076  0.00  0.00    +0.026 A 
ATOM     23  C   UNL     1      -4.134   0.061   2.951  0.00  0.00    +0.014 A 
ATOM     24  C   UNL     1      -4.879  -1.009   3.414  0.00  0.00    +0.057 A 
ATOM     25  C   UNL     1      -4.249  -2.090   4.003  0.00  0.00    +0.047 A 
ATOM     26  C   UNL     1      -2.873  -2.108   4.125  0.00  0.00    +0.147 A 
BRANCH  24  27
ATOM     27  C   UNL     1      -6.379  -0.997   3.277  0.00  0.00    +0.417 C 
ATOM     28  F   UNL     1      -6.781   0.191   2.656  0.00  0.00    -0.166 F 
ATOM     29  F   UNL     1      -6.786  -2.088   2.502  0.00  0.00    -0.166 F 
ATOM     30  F   UNL     1      -6.964  -1.081   4.545  0.00  0.00    -0.166 F 
ENDBRANCH  24  27
BRANCH  26  31
ATOM     31  N   UNL     1      -2.199  -3.268   4.750  0.00  0.00    +0.058 N 
ATOM     32  O   UNL     1      -1.139  -3.656   4.317  0.00  0.00    -0.126 OA
ATOM     33  O   UNL     1      -2.709  -3.828   5.692  0.00  0.00    -0.126 OA
ENDBRANCH  26  31
ENDBRANCH  19  21
ENDBRANCH   1  19
TORSDOF 8
