REMARK  Name = ZINC37470505
REMARK  11 active torsions:
REMARK  status: ('A' for Active; 'I' for Inactive)
REMARK    1  A    between atoms: C_1  and  C_2
REMARK    2  A    between atoms: C_2  and  C_3
REMARK    3  A    between atoms: C_6  and  C_9
REMARK    4  A    between atoms: C_9  and  C_11
REMARK    5  A    between atoms: C_9  and  N_12
REMARK    6  A    between atoms: C_13  and  C_15
REMARK    7  A    between atoms: C_15  and  N_16
REMARK    8  A    between atoms: N_19  and  C_22
REMARK    9  A    between atoms: C_22  and  C_23
REMARK   10  A    between atoms: C_27  and  C_34
REMARK   11  A    between atoms: C_30  and  C_33
REMARK                            x       y       z     vdW  Elec       q    Type
REMARK                         _______ _______ _______ _____ _____    ______ ____
ROOT
ATOM      1  N   UNL     1       2.615  -5.807   7.593  0.00  0.00    -0.298 NA
ATOM      2  C   UNL     1       3.248  -5.084   8.706  0.00  0.00    +0.066 C 
ATOM      3  C   UNL     1       4.193  -6.029   9.451  0.00  0.00    -0.063 C 
ATOM      4  N   UNL     1       3.435  -7.179   9.960  0.00  0.00    +0.387 N 
ATOM      5  C   UNL     1       2.829  -7.905   8.836  0.00  0.00    -0.063 C 
ATOM      6  C   UNL     1       1.873  -6.976   8.085  0.00  0.00    +0.066 C 
ATOM      7  H   UNL     1       2.709  -6.855  10.582  0.00  0.00    -0.081 HD
ENDROOT
BRANCH   1   8
ATOM      8  C   UNL     1       1.741  -4.917   6.817  0.00  0.00    +0.180 C 
BRANCH   8  10
ATOM      9  N   UNL     1       1.985  -2.938   5.354  0.00  0.00    -0.308 N 
ATOM     10  C   UNL     1       2.577  -3.869   6.128  0.00  0.00    +0.228 C 
ATOM     11  O   UNL     1       3.781  -3.864   6.269  0.00  0.00    -0.274 OA
ATOM     12  H   UNL     1       1.022  -2.942   5.240  0.00  0.00    +0.149 HD
BRANCH   9  13
ATOM     13  C   UNL     1       2.797  -1.919   4.683  0.00  0.00    +0.100 C 
ATOM     14  C   UNL     1       3.046  -0.753   5.642  0.00  0.00    +0.033 C 
BRANCH  13  18
ATOM     15  C   UNL     1       0.731  -0.503   1.223  0.00  0.00    -0.048 A 
ATOM     16  C   UNL     1       2.097  -0.710   1.176  0.00  0.00    +0.004 A 
ATOM     17  C   UNL     1       2.766  -1.167   2.296  0.00  0.00    +0.006 A 
ATOM     18  C   UNL     1       2.068  -1.419   3.463  0.00  0.00    -0.027 A 
ATOM     19  C   UNL     1       0.702  -1.212   3.510  0.00  0.00    +0.006 A 
ATOM     20  C   UNL     1       0.034  -0.750   2.391  0.00  0.00    +0.004 A 
BRANCH  15  22
ATOM     21  C   UNL     1      -0.019   1.526   0.010  0.00  0.00    +0.009 C 
ATOM     22  C   UNL     1       0.002  -0.004   0.002  0.00  0.00    +0.032 C 
ENDBRANCH  15  22
ENDBRANCH  13  18
ENDBRANCH   9  13
ENDBRANCH   8  10
ENDBRANCH   1   8
BRANCH   4  23
ATOM     23  C   UNL     1       4.340  -8.076  10.692  0.00  0.00    +0.019 C 
BRANCH  23  24
ATOM     24  C   UNL     1       3.543  -9.192  11.318  0.00  0.00    +0.199 C 
ATOM     25  O   UNL     1       2.340  -9.235  11.170  0.00  0.00    -0.278 OA
ATOM     26  N   UNL     1       4.167 -10.141  12.043  0.00  0.00    -0.303 N 
ATOM     27  C   UNL     1       5.623 -10.099  12.236  0.00  0.00    +0.111 C 
ATOM     28  C   UNL     1       5.923 -10.164  13.737  0.00  0.00    +0.004 C 
ATOM     29  C   UNL     1       5.245 -11.398  14.336  0.00  0.00    +0.009 C 
ATOM     30  C   UNL     1       3.729 -11.290  14.150  0.00  0.00    +0.004 C 
ATOM     31  C   UNL     1       3.404 -11.235  12.659  0.00  0.00    +0.111 C 
ATOM     32  C   UNL     1       3.050 -12.508  14.779  0.00  0.00    +0.009 C 
ATOM     33  C   UNL     1       5.387  -8.904  14.420  0.00  0.00    +0.009 C 
ENDBRANCH  23  24
ENDBRANCH   4  23
TORSDOF 7
