REMARK  Name = ZINC39007114
REMARK  8 active torsions:
REMARK  status: ('A' for Active; 'I' for Inactive)
REMARK    1  A    between atoms: C_1  and  O_2
REMARK    2  A    between atoms: O_2  and  C_3
REMARK    3  A    between atoms: C_6  and  C_17
REMARK    4  A    between atoms: C_8  and  O_9
REMARK    5  A    between atoms: O_9  and  C_10
REMARK    6  A    between atoms: C_10  and  C_11
REMARK    7  A    between atoms: N_18  and  N_19
REMARK    8  A    between atoms: C_20  and  C_26
REMARK                            x       y       z     vdW  Elec       q    Type
REMARK                         _______ _______ _______ _____ _____    ______ ____
ROOT
ATOM      1  C   UNL     1       0.404  -0.657  -1.164  0.00  0.00    +0.162 A 
ATOM      2  C   UNL     1       1.156   0.112  -2.040  0.00  0.00    +0.050 A 
ATOM      3  C   UNL     1       1.779  -0.478  -3.119  0.00  0.00    +0.013 A 
ATOM      4  C   UNL     1       1.654  -1.854  -3.332  0.00  0.00    -0.002 A 
ATOM      5  C   UNL     1       0.897  -2.628  -2.449  0.00  0.00    +0.059 A 
ATOM      6  C   UNL     1       0.279  -2.030  -1.366  0.00  0.00    +0.163 A 
ENDROOT
BRANCH   1   8
ATOM      7  C   UNL     1      -0.040   1.341   0.046  0.00  0.00    +0.277 C 
ATOM      8  O   UNL     1      -0.209  -0.070  -0.102  0.00  0.00    -0.491 OA
ENDBRANCH   1   8
BRANCH   4   9
ATOM      9  C   UNL     1       2.319  -2.486  -4.486  0.00  0.00    +0.138 C 
ATOM     10  N   UNL     1       3.022  -1.765  -5.306  0.00  0.00    -0.183 NA
BRANCH  10  11
ATOM     11  N   UNL     1       3.735  -2.379  -6.344  0.00  0.00    -0.172 N 
ATOM     12  C   UNL     1       4.490  -1.727  -7.429  0.00  0.00    +0.265 C 
ATOM     13  N   UNL     1       5.024  -2.852  -8.213  0.00  0.00    -0.189 NA
ATOM     14  N   UNL     1       4.649  -3.900  -7.682  0.00  0.00    -0.219 N 
ATOM     15  C   UNL     1       3.890  -3.702  -6.571  0.00  0.00    +0.174 C 
ATOM     16  S   UNL     1       3.223  -4.948  -5.604  0.00  0.00    -0.015 S 
ATOM     17  H   UNL     1       4.877  -4.780  -8.021  0.00  0.00    +0.176 HD
BRANCH  12  18
ATOM     18  C   UNL     1       3.576  -0.877  -8.273  0.00  0.00    +0.012 A 
ATOM     19  C   UNL     1       2.409  -0.369  -7.732  0.00  0.00    +0.008 A 
ATOM     20  C   UNL     1       1.571   0.411  -8.506  0.00  0.00    +0.000 A 
ATOM     21  C   UNL     1       1.898   0.684  -9.822  0.00  0.00    +0.001 A 
ATOM     22  C   UNL     1       3.064   0.177 -10.363  0.00  0.00    +0.015 A 
ATOM     23  C   UNL     1       3.906  -0.600  -9.587  0.00  0.00    +0.025 A 
ATOM     24 BR   UNL     1       5.505  -1.288 -10.326  0.00  0.00    -0.050 Br
ENDBRANCH  12  18
ENDBRANCH  10  11
ENDBRANCH   4   9
BRANCH   6  25
ATOM     25  O   UNL     1      -0.454  -2.781  -0.502  0.00  0.00    -0.484 OA
BRANCH  25  26
ATOM     26  C   UNL     1      -0.539  -4.182  -0.770  0.00  0.00    +0.264 C 
BRANCH  26  27
ATOM     27  C   UNL     1      -1.385  -4.846   0.285  0.00  0.00    -0.010 A 
ATOM     28  C   UNL     1      -0.797  -5.332   1.438  0.00  0.00    +0.007 A 
ATOM     29  C   UNL     1      -1.574  -5.940   2.406  0.00  0.00    +0.000 A 
ATOM     30  C   UNL     1      -2.938  -6.063   2.222  0.00  0.00    +0.000 A 
ATOM     31  C   UNL     1      -3.526  -5.576   1.070  0.00  0.00    +0.000 A 
ATOM     32  C   UNL     1      -2.750  -4.963   0.103  0.00  0.00    +0.007 A 
ENDBRANCH  26  27
ENDBRANCH  25  26
ENDBRANCH   6  25
TORSDOF 7
