REMARK  Name = ZINC24673742
REMARK  12 active torsions:
REMARK  status: ('A' for Active; 'I' for Inactive)
REMARK    1  A    between atoms: C_1  and  C_2
REMARK    2  A    between atoms: C_2  and  C_4
REMARK    3  A    between atoms: C_2  and  N_7
REMARK    4  A    between atoms: N_7  and  C_8
REMARK    5  A    between atoms: N_7  and  C_15
REMARK    6  A    between atoms: C_8  and  C_9
REMARK    7  A    between atoms: C_15  and  C_16
REMARK    8  A    between atoms: C_16  and  C_18
REMARK    9  A    between atoms: C_19  and  N_34
REMARK   10  A    between atoms: N_20  and  C_27
REMARK   11  A    between atoms: N_23  and  C_26
REMARK   12  A    between atoms: C_27  and  C_28
REMARK                            x       y       z     vdW  Elec       q    Type
REMARK                         _______ _______ _______ _____ _____    ______ ____
ROOT
ATOM      1  C   UNL     1       2.424  -3.501  -0.831  0.00  0.00    +0.118 A 
ATOM      2  C   UNL     1       3.095  -3.873   0.347  0.00  0.00    +0.116 A 
ATOM      3  N   UNL     1       3.406  -5.188   0.543  0.00  0.00    -0.277 N 
ATOM      4  C   UNL     1       3.085  -6.124  -0.364  0.00  0.00    +0.333 A 
ATOM      5  O   UNL     1       3.384  -7.281  -0.143  0.00  0.00    -0.246 OA
ATOM      6  N   UNL     1       2.444  -5.829  -1.507  0.00  0.00    -0.263 N 
ATOM      7  C   UNL     1       2.086  -4.559  -1.792  0.00  0.00    +0.269 A 
ATOM      8  O   UNL     1       1.501  -4.296  -2.826  0.00  0.00    -0.267 OA
ATOM      9  C   UNL     1       2.123  -6.900  -2.453  0.00  0.00    +0.157 C 
ENDROOT
BRANCH   2  10
ATOM     10  N   UNL     1       3.430  -2.938   1.277  0.00  0.00    -0.344 N 
ATOM     11  H   UNL     1       3.079  -2.036   1.206  0.00  0.00    +0.144 HD
ATOM     12  H   UNL     1       4.019  -3.172   2.010  0.00  0.00    +0.144 HD
ENDBRANCH   2  10
BRANCH   1  13
ATOM     13  C   UNL     1       2.080  -2.155  -1.079  0.00  0.00    +0.155 C 
ATOM     14  O   UNL     1       2.477  -1.280  -0.337  0.00  0.00    -0.294 OA
BRANCH  13  15
ATOM     15  C   UNL     1       1.219  -1.804  -2.265  0.00  0.00    +0.003 C 
BRANCH  15  16
ATOM     16  N   UNL     1       0.716  -0.432  -2.116  0.00  0.00    +0.389 N 
ATOM     17  H   UNL     1       1.476   0.178  -1.857  0.00  0.00    -0.080 HD
BRANCH  16  19
ATOM     18  C   UNL     1       0.321  -0.013   0.264  0.00  0.00    -0.013 C 
ATOM     19  C   UNL     1      -0.316  -0.400  -1.072  0.00  0.00    -0.068 C 
BRANCH  19  20
ATOM     20  C   UNL     1      -0.960  -1.782  -0.949  0.00  0.00    -0.025 C 
ATOM     21  C   UNL     1      -2.355  -1.968  -1.549  0.00  0.00    +0.002 C 
ATOM     22  C   UNL     1      -2.177  -1.915  -0.031  0.00  0.00    +0.002 C 
ENDBRANCH  19  20
ENDBRANCH  16  19
BRANCH  16  23
ATOM     23  C   UNL     1       0.139   0.019  -3.390  0.00  0.00    -0.042 C 
BRANCH  23  24
ATOM     24  C   UNL     1      -0.366   1.431  -3.240  0.00  0.00    -0.064 A 
ATOM     25  C   UNL     1      -1.698   1.661  -2.947  0.00  0.00    +0.002 A 
ATOM     26  C   UNL     1      -2.161   2.956  -2.810  0.00  0.00    +0.000 A 
ATOM     27  C   UNL     1      -1.294   4.021  -2.965  0.00  0.00    +0.000 A 
ATOM     28  C   UNL     1       0.038   3.791  -3.257  0.00  0.00    +0.000 A 
ATOM     29  C   UNL     1       0.502   2.496  -3.390  0.00  0.00    +0.002 A 
ENDBRANCH  23  24
ENDBRANCH  16  23
ENDBRANCH  15  16
ENDBRANCH  13  15
ENDBRANCH   1  13
BRANCH   3  30
ATOM     30  C   UNL     1       4.106  -5.586   1.767  0.00  0.00    +0.163 C 
BRANCH  30  31
ATOM     31  C   UNL     1       3.098  -5.921   2.836  0.00  0.00    -0.028 A 
ATOM     32  C   UNL     1       2.639  -4.934   3.688  0.00  0.00    +0.005 A 
ATOM     33  C   UNL     1       1.714  -5.241   4.668  0.00  0.00    +0.000 A 
ATOM     34  C   UNL     1       1.248  -6.536   4.796  0.00  0.00    +0.000 A 
ATOM     35  C   UNL     1       1.705  -7.523   3.943  0.00  0.00    +0.000 A 
ATOM     36  C   UNL     1       2.627  -7.215   2.960  0.00  0.00    +0.005 A 
ENDBRANCH  30  31
ENDBRANCH   3  30
TORSDOF 10
