REMARK  Name = ZINC05545758
REMARK  7 active torsions:
REMARK  status: ('A' for Active; 'I' for Inactive)
REMARK    1  A    between atoms: C_1  and  C_2
REMARK    2  A    between atoms: C_5  and  S_8
REMARK    3  A    between atoms: S_8  and  N_11
REMARK    4  A    between atoms: N_11  and  N_12
REMARK    5  A    between atoms: C_15  and  C_18
REMARK    6  A    between atoms: C_21  and  C_25
REMARK    7  A    between atoms: C_23  and  C_24
REMARK                            x       y       z     vdW  Elec       q    Type
REMARK                         _______ _______ _______ _____ _____    ______ ____
ROOT
ATOM      1  N   UNL     1       2.339   4.243   0.844  0.00  0.00    -0.240 N 
ATOM      2  C   UNL     1       1.247   3.393   0.782  0.00  0.00    +0.174 A 
ATOM      3  N   UNL     1       1.212   2.095   0.542  0.00  0.00    -0.224 NA
ATOM      4  C   UNL     1       0.059   1.430   0.521  0.00  0.00    +0.080 A 
ATOM      5  C   UNL     1      -1.107   2.106   0.747  0.00  0.00    +0.077 A 
ATOM      6  S   UNL     1      -0.487   3.762   1.008  0.00  0.00    -0.059 S 
ATOM      7  H   UNL     1       3.233   3.896   0.699  0.00  0.00    +0.170 HD
ENDROOT
BRANCH   4   8
ATOM      8  C   UNL     1       0.039  -0.028   0.249  0.00  0.00    +0.004 A 
ATOM      9  C   UNL     1      -1.150  -0.745   0.365  0.00  0.00    +0.010 A 
ATOM     10  C   UNL     1      -1.164  -2.100   0.105  0.00  0.00    +0.004 A 
ATOM     11  C   UNL     1       0.003  -2.749  -0.258  0.00  0.00    -0.050 A 
ATOM     12  C   UNL     1       1.187  -2.043  -0.369  0.00  0.00    +0.007 A 
ATOM     13  C   UNL     1       1.211  -0.687  -0.118  0.00  0.00    -0.041 A 
ATOM     14  C   UNL     1       2.503   0.081  -0.239  0.00  0.00    +0.044 C 
ATOM     15  C   UNL     1      -0.017  -4.231  -0.534  0.00  0.00    +0.044 C 
ENDBRANCH   4   8
BRANCH   1  16
ATOM     16  N   UNL     1       2.152   5.605   1.116  0.00  0.00    -0.108 NA
ATOM     17  H   UNL     1       1.552   6.131   0.566  0.00  0.00    +0.172 HD
BRANCH  16  18
ATOM     18  S   UNL     1       2.957   6.315   2.377  0.00  0.00    +0.074 S 
ATOM     19  O   UNL     1       2.677   7.706   2.306  0.00  0.00    -0.152 OA
ATOM     20  O   UNL     1       2.670   5.538   3.532  0.00  0.00    -0.152 OA
BRANCH  18  25
ATOM     21  C   UNL     1       8.862   5.689   1.305  0.00  0.00    +0.044 C 
ATOM     22  C   UNL     1       7.387   5.846   1.573  0.00  0.00    -0.050 A 
ATOM     23  C   UNL     1       6.714   6.959   1.106  0.00  0.00    +0.005 A 
ATOM     24  C   UNL     1       5.361   7.102   1.352  0.00  0.00    +0.029 A 
ATOM     25  C   UNL     1       4.681   6.132   2.064  0.00  0.00    +0.107 A 
ATOM     26  C   UNL     1       5.356   5.021   2.535  0.00  0.00    +0.029 A 
ATOM     27  C   UNL     1       6.707   4.875   2.285  0.00  0.00    +0.005 A 
ENDBRANCH  18  25
ENDBRANCH  16  18
ENDBRANCH   1  16
TORSDOF 4
