REMARK  Name = ZINC35890554
REMARK  3 active torsions:
REMARK  status: ('A' for Active; 'I' for Inactive)
REMARK    1  A    between atoms: C_14  and  C_15
REMARK    2  A    between atoms: N_25  and  C_28
REMARK    3  A    between atoms: C_28  and  C_29
REMARK                            x       y       z     vdW  Elec       q    Type
REMARK                         _______ _______ _______ _____ _____    ______ ____
ROOT
ATOM      1  C   UNL     1       0.044   0.456   1.281  0.00  0.00    +0.021 A 
ATOM      2  C   UNL     1       1.065   1.212   0.747  0.00  0.00    +0.015 A 
ATOM      3  C   UNL     1       2.378   0.757   0.835  0.00  0.00    +0.045 A 
ATOM      4  C   UNL     1       2.659  -0.475   1.469  0.00  0.00    +0.079 A 
ATOM      5  C   UNL     1       1.609  -1.223   2.003  0.00  0.00    +0.048 A 
ATOM      6  C   UNL     1       0.316  -0.755   1.906  0.00  0.00    +0.043 A 
ATOM      7 CL   UNL     1      -0.987  -1.689   2.571  0.00  0.00    -0.083 Cl
ATOM      8  N   UNL     1       3.943  -0.906   1.546  0.00  0.00    -0.215 NA
ATOM      9  C   UNL     1       4.939  -0.218   1.052  0.00  0.00    +0.206 A 
ATOM     10  N   UNL     1       4.766   0.985   0.420  0.00  0.00    -0.250 N 
ATOM     11  C   UNL     1       3.504   1.519   0.284  0.00  0.00    +0.173 A 
ATOM     12  N   UNL     1       3.634   2.658  -0.351  0.00  0.00    -0.129 NA
ATOM     13  N   UNL     1       4.876   2.867  -0.616  0.00  0.00    -0.133 NA
ATOM     14  C   UNL     1       5.607   1.880  -0.168  0.00  0.00    +0.143 A 
ATOM     15  N   UNL     1       6.211  -0.723   1.170  0.00  0.00    -0.302 N 
ATOM     16  C   UNL     1       6.402  -2.017   1.855  0.00  0.00    +0.106 C 
ATOM     17  C   UNL     1       7.433  -2.889   1.114  0.00  0.00    +0.000 C 
ATOM     18  C   UNL     1       7.230  -2.748  -0.379  0.00  0.00    -0.077 C 
ATOM     19  N   UNL     1       8.109  -1.698  -0.888  0.00  0.00    +0.383 N 
ATOM     20  C   UNL     1       7.566  -0.395  -0.846  0.00  0.00    -0.059 C 
ATOM     21  C   UNL     1       7.316   0.031   0.614  0.00  0.00    +0.089 C 
ATOM     22  H   UNL     1       8.961  -1.706  -0.348  0.00  0.00    -0.081 HD
ENDROOT
BRANCH  14  23
ATOM     23  C   UNL     1       7.104   1.756  -0.283  0.00  0.00    +0.058 C 
ATOM     24  C   UNL     1       7.581   2.480  -1.544  0.00  0.00    +0.011 C 
ATOM     25  C   UNL     1       9.101   2.354  -1.660  0.00  0.00    +0.001 C 
ATOM     26  C   UNL     1       9.761   2.982  -0.431  0.00  0.00    +0.000 C 
ATOM     27  C   UNL     1       9.284   2.258   0.830  0.00  0.00    +0.001 C 
ATOM     28  C   UNL     1       7.764   2.384   0.946  0.00  0.00    +0.011 C 
ENDBRANCH  14  23
BRANCH  19  29
ATOM     29  C   UNL     1       8.448  -2.014  -2.282  0.00  0.00    -0.042 C 
BRANCH  29  30
ATOM     30  C   UNL     1       9.636  -1.191  -2.709  0.00  0.00    -0.057 A 
ATOM     31  C   UNL     1       9.459  -0.023  -3.426  0.00  0.00    +0.009 A 
ATOM     32  C   UNL     1      10.549   0.694  -3.794  0.00  0.00    +0.045 A 
ATOM     33  S   UNL     1      11.880  -0.286  -3.122  0.00  0.00    -0.105 S 
ATOM     34  C   UNL     1      10.894  -1.582  -2.390  0.00  0.00    +0.047 A 
ENDBRANCH  29  30
ENDBRANCH  19  29
TORSDOF 3
