REMARK  Name = ZINC20343809
REMARK  5 active torsions:
REMARK  status: ('A' for Active; 'I' for Inactive)
REMARK    1  A    between atoms: C_1  and  C_2
REMARK    2  A    between atoms: N_9  and  C_10
REMARK    3  A    between atoms: N_17  and  C_18
REMARK    4  A    between atoms: C_23  and  O_24
REMARK    5  A    between atoms: O_24  and  C_25
REMARK                            x       y       z     vdW  Elec       q    Type
REMARK                         _______ _______ _______ _____ _____    ______ ____
ROOT
ATOM      1  C   UNL     1       7.639   6.802   0.220  0.00  0.00    +0.053 C 
ATOM      2  C   UNL     1       6.141   6.648   0.177  0.00  0.00    +0.007 A 
ATOM      3  C   UNL     1       5.210   7.584  -0.118  0.00  0.00    +0.058 A 
ATOM      4  C   UNL     1       3.877   7.182  -0.092  0.00  0.00    +0.140 A 
ATOM      5  N   UNL     1       2.897   8.018  -0.370  0.00  0.00    -0.283 NA
ATOM      6  N   UNL     1       3.633   5.869   0.242  0.00  0.00    -0.235 N 
ATOM      7  S   UNL     1       5.198   5.232   0.494  0.00  0.00    -0.007 S 
ATOM      8  C   UNL     1       2.421   5.224   0.344  0.00  0.00    +0.213 C 
ATOM      9  N   UNL     1       1.304   5.909   0.266  0.00  0.00    -0.216 NA
ATOM     10  N   UNL     1       2.380   3.862   0.526  0.00  0.00    -0.281 N 
ATOM     11  H   UNL     1       3.096   8.938  -0.603  0.00  0.00    +0.188 HD
ATOM     12  H   UNL     1       1.597   3.414   1.156  0.00  0.00    +0.155 HD
ENDROOT
BRANCH   9  13
ATOM     13  C   UNL     1       0.098   5.267   0.369  0.00  0.00    +0.068 A 
ATOM     14  C   UNL     1      -0.182   4.168  -0.445  0.00  0.00    +0.030 A 
ATOM     15  C   UNL     1      -1.396   3.522  -0.333  0.00  0.00    +0.040 A 
ATOM     16  C   UNL     1      -2.341   3.969   0.576  0.00  0.00    +0.124 A 
ATOM     17  C   UNL     1      -2.070   5.063   1.383  0.00  0.00    +0.040 A 
ATOM     18  C   UNL     1      -0.857   5.713   1.284  0.00  0.00    +0.030 A 
ATOM     19  F   UNL     1      -3.530   3.336   0.678  0.00  0.00    -0.205 F 
ENDBRANCH   9  13
BRANCH  10  20
ATOM     20  C   UNL     1       3.336   3.044  -0.091  0.00  0.00    +0.077 A 
ATOM     21  C   UNL     1       4.064   3.520  -1.171  0.00  0.00    +0.047 A 
ATOM     22  C   UNL     1       5.007   2.710  -1.779  0.00  0.00    +0.043 A 
ATOM     23  C   UNL     1       5.229   1.428  -1.308  0.00  0.00    +0.024 A 
ATOM     24  C   UNL     1       4.501   0.946  -0.235  0.00  0.00    +0.049 A 
ATOM     25  C   UNL     1       3.556   1.751   0.379  0.00  0.00    +0.141 A 
ATOM     26 CL   UNL     1       5.918   3.306  -3.131  0.00  0.00    -0.083 Cl
BRANCH  25  27
ATOM     27  O   UNL     1       2.844   1.280   1.438  0.00  0.00    -0.493 OA
ATOM     28  C   UNL     1       3.123  -0.054   1.865  0.00  0.00    +0.277 C 
ENDBRANCH  25  27
ENDBRANCH  10  20
TORSDOF 3
