REMARK  Name = ZINC14459373
REMARK  8 active torsions:
REMARK  status: ('A' for Active; 'I' for Inactive)
REMARK    1  A    between atoms: C_1  and  O_2
REMARK    2  A    between atoms: O_2  and  C_3
REMARK    3  A    between atoms: C_5  and  C_10
REMARK    4  A    between atoms: C_8  and  O_9
REMARK    5  A    between atoms: C_21  and  S_26
REMARK    6  A    between atoms: S_26  and  N_29
REMARK    7  A    between atoms: N_29  and  C_30
REMARK    8  A    between atoms: C_30  and  C_31
REMARK                            x       y       z     vdW  Elec       q    Type
REMARK                         _______ _______ _______ _____ _____    ______ ____
ROOT
ATOM      1  C   UNL     1      -8.467   0.435   5.369  0.00  0.00    +0.105 C 
ATOM      2  C   UNL     1      -8.526   0.739   3.884  0.00  0.00    +0.029 C 
ATOM      3  C   UNL     1      -7.852  -0.384   3.060  0.00  0.00    +0.033 C 
ATOM      4  C   UNL     1      -7.373   0.347   1.819  0.00  0.00    -0.030 C 
ATOM      5  C   UNL     1      -7.257   1.629   2.058  0.00  0.00    -0.023 C 
ATOM      6  C   UNL     1      -7.639   1.937   3.500  0.00  0.00    +0.049 C 
ATOM      7  C   UNL     1      -6.367   1.989   4.303  0.00  0.00    -0.018 A 
ATOM      8  C   UNL     1      -5.406   2.925   3.943  0.00  0.00    +0.034 A 
ATOM      9  C   UNL     1      -4.217   3.010   4.637  0.00  0.00    +0.106 A 
ATOM     10  C   UNL     1      -3.973   2.170   5.708  0.00  0.00    +0.030 A 
ATOM     11  C   UNL     1      -4.924   1.240   6.079  0.00  0.00    +0.025 A 
ATOM     12  C   UNL     1      -6.120   1.151   5.375  0.00  0.00    +0.031 A 
ATOM     13  N   UNL     1      -7.074   0.206   5.768  0.00  0.00    -0.336 N 
ATOM     14  H   UNL     1      -6.823  -0.575   6.286  0.00  0.00    +0.147 HD
ENDROOT
BRANCH   1  17
ATOM     15  C   UNL     1     -10.836   2.629   7.331  0.00  0.00    +0.162 A 
ATOM     16  C   UNL     1     -10.322   1.557   6.619  0.00  0.00    +0.054 A 
ATOM     17  C   UNL     1      -9.025   1.602   6.143  0.00  0.00    -0.023 A 
ATOM     18  C   UNL     1      -8.237   2.713   6.379  0.00  0.00    +0.009 A 
ATOM     19  C   UNL     1      -8.745   3.788   7.084  0.00  0.00    +0.049 A 
ATOM     20  C   UNL     1     -10.045   3.749   7.564  0.00  0.00    +0.158 A 
BRANCH  15  22
ATOM     21  C   UNL     1     -12.866   1.404   7.523  0.00  0.00    +0.277 C 
ATOM     22  O   UNL     1     -12.112   2.586   7.800  0.00  0.00    -0.491 OA
ENDBRANCH  15  22
BRANCH  20  23
ATOM     23  O   UNL     1     -10.545   4.804   8.262  0.00  0.00    -0.503 OA
ATOM     24  H   UNL     1     -10.401   4.748   9.216  0.00  0.00    +0.292 HD
ENDBRANCH  20  23
ENDBRANCH   1  17
BRANCH   9  25
ATOM     25  S   UNL     1      -3.006   4.199   4.162  0.00  0.00    +0.058 S 
ATOM     26  O   UNL     1      -2.211   4.451   5.313  0.00  0.00    -0.153 OA
ATOM     27  O   UNL     1      -3.699   5.231   3.474  0.00  0.00    -0.153 OA
BRANCH  25  28
ATOM     28  N   UNL     1      -2.015   3.472   3.052  0.00  0.00    -0.187 NA
ATOM     29  H   UNL     1      -1.081   3.320   3.263  0.00  0.00    +0.148 HD
BRANCH  28  30
ATOM     30  C   UNL     1      -2.550   3.059   1.752  0.00  0.00    +0.137 C 
BRANCH  30  31
ATOM     31  C   UNL     1      -1.394   2.771   0.793  0.00  0.00    +0.134 C 
ATOM     32  C   UNL     1      -1.928   2.453  -0.626  0.00  0.00    +0.035 C 
ATOM     33  C   UNL     1      -0.778   1.606  -1.224  0.00  0.00    +0.031 C 
ATOM     34  C   UNL     1      -0.013   1.086   0.008  0.00  0.00    +0.160 C 
ATOM     35  O   UNL     1      -0.705   1.559   1.176  0.00  0.00    -0.375 OA
ENDBRANCH  30  31
ENDBRANCH  28  30
ENDBRANCH  25  28
ENDBRANCH   9  25
TORSDOF 7
