REMARK  Name = ZINC64480126
REMARK  12 active torsions:
REMARK  status: ('A' for Active; 'I' for Inactive)
REMARK    1  A    between atoms: C_1  and  C_2
REMARK    2  A    between atoms: C_4  and  C_35
REMARK    3  A    between atoms: N_6  and  C_28
REMARK    4  A    between atoms: C_7  and  N_20
REMARK    5  A    between atoms: C_9  and  C_11
REMARK    6  A    between atoms: C_21  and  C_23
REMARK    7  A    between atoms: C_28  and  C_29
REMARK    8  A    between atoms: C_29  and  C_30
REMARK    9  A    between atoms: C_30  and  O_31
REMARK   10  A    between atoms: O_31  and  C_32
REMARK   11  A    between atoms: C_32  and  C_33
REMARK   12  A    between atoms: C_32  and  C_34
REMARK                            x       y       z     vdW  Elec       q    Type
REMARK                         _______ _______ _______ _____ _____    ______ ____
ROOT
ATOM      1  C   UNL     1       0.073   1.527  -0.200  0.00  0.00    +0.009 C 
ATOM      2  C   UNL     1       0.246   0.021   0.007  0.00  0.00    +0.013 C 
ATOM      3  C   UNL     1      -1.128  -0.686   0.115  0.00  0.00    +0.059 C 
ATOM      4  N   UNL     1      -1.556  -0.469   1.513  0.00  0.00    -0.281 NA
ATOM      5  C   UNL     1      -0.358  -0.232   2.339  0.00  0.00    +0.151 C 
ATOM      6  C   UNL     1       0.865  -0.282   1.397  0.00  0.00    +0.071 C 
ATOM      7  C   UNL     1      -2.129  -0.055  -0.855  0.00  0.00    +0.024 C 
ENDROOT
BRANCH   6   8
ATOM      8  C   UNL     1       1.887   0.790   1.780  0.00  0.00    +0.180 C 
ATOM      9  N   UNL     1       3.005   0.783   0.827  0.00  0.00    -0.363 N 
ATOM     10  C   UNL     1       4.088   0.515   1.498  0.00  0.00    +0.060 A 
ATOM     11  C   UNL     1       5.497   0.374   1.105  0.00  0.00    +0.027 A 
ATOM     12  C   UNL     1       6.422   0.086   2.042  0.00  0.00    +0.002 A 
ATOM     13  C   UNL     1       6.098  -0.090   3.399  0.00  0.00    +0.002 A 
ATOM     14  C   UNL     1       4.838   0.017   3.865  0.00  0.00    +0.027 A 
ATOM     15  C   UNL     1       3.745   0.330   2.934  0.00  0.00    +0.060 A 
ATOM     16  N   UNL     1       2.463   0.490   3.096  0.00  0.00    -0.363 N 
ATOM     17  H   UNL     1       2.946   0.948  -0.127  0.00  0.00    +0.162 HD
ATOM     18  H   UNL     1       1.978   0.424   3.933  0.00  0.00    +0.162 HD
ENDBRANCH   6   8
BRANCH   5  19
ATOM     19  N   UNL     1      -0.446   1.083   2.978  0.00  0.00    -0.295 N 
ATOM     20  C   UNL     1      -0.709   1.176   4.297  0.00  0.00    +0.252 C 
ATOM     21  O   UNL     1      -0.873   0.167   4.957  0.00  0.00    -0.270 OA
ATOM     22  H   UNL     1      -0.315   1.888   2.452  0.00  0.00    +0.151 HD
BRANCH  20  23
ATOM     23  C   UNL     1      -0.796   2.492   4.936  0.00  0.00    +0.074 A 
ATOM     24  C   UNL     1      -1.049   2.804   6.263  0.00  0.00    +0.021 A 
ATOM     25  C   UNL     1      -1.070   4.144   6.568  0.00  0.00    +0.008 A 
ATOM     26  C   UNL     1      -0.850   5.048   5.581  0.00  0.00    +0.046 A 
ATOM     27  S   UNL     1      -0.599   4.109   4.211  0.00  0.00    -0.092 S 
ENDBRANCH  20  23
ENDBRANCH   5  19
BRANCH   4  28
ATOM     28  C   UNL     1      -2.322  -1.619   2.014  0.00  0.00    +0.089 C 
BRANCH  28  29
ATOM     29  C   UNL     1      -3.733  -1.587   1.425  0.00  0.00    +0.043 C 
BRANCH  29  30
ATOM     30  C   UNL     1      -4.573  -2.702   2.051  0.00  0.00    +0.161 C 
BRANCH  30  31
ATOM     31  O   UNL     1      -5.891  -2.672   1.502  0.00  0.00    -0.377 OA
BRANCH  31  32
ATOM     32  C   UNL     1      -6.761  -3.679   2.023  0.00  0.00    +0.112 C 
ATOM     33  C   UNL     1      -8.203  -3.167   2.004  0.00  0.00    +0.037 C 
ATOM     34  C   UNL     1      -6.656  -4.939   1.162  0.00  0.00    +0.037 C 
ENDBRANCH  31  32
ENDBRANCH  30  31
ENDBRANCH  29  30
ENDBRANCH  28  29
ENDBRANCH   4  28
TORSDOF 8
