REMARK  Name = ZINC23098457
REMARK  11 active torsions:
REMARK  status: ('A' for Active; 'I' for Inactive)
REMARK    1  A    between atoms: C_1  and  C_2
REMARK    2  A    between atoms: C_2  and  C_3
REMARK    3  A    between atoms: C_2  and  C_4
REMARK    4  A    between atoms: C_4  and  C_6
REMARK    5  A    between atoms: C_4  and  N_27
REMARK    6  A    between atoms: C_6  and  N_7
REMARK    7  A    between atoms: C_8  and  C_10
REMARK    8  A    between atoms: N_13  and  S_16
REMARK    9  A    between atoms: S_16  and  C_19
REMARK   10  A    between atoms: N_27  and  C_28
REMARK   11  A    between atoms: N_27  and  C_29
REMARK                            x       y       z     vdW  Elec       q    Type
REMARK                         _______ _______ _______ _____ _____    ______ ____
ROOT
ATOM      1  C   UNL     1      -0.054  -3.989  -3.733  0.00  0.00    +0.077 C 
ATOM      2  C   UNL     1      -0.962  -3.224  -4.699  0.00  0.00    +0.030 C 
ATOM      3  C   UNL     1      -0.834  -3.828  -6.101  0.00  0.00    +0.110 C 
ATOM      4  N   UNL     1      -1.114  -5.269  -6.022  0.00  0.00    -0.176 NA
ATOM      5  C   UNL     1      -0.359  -6.083  -5.060  0.00  0.00    +0.110 C 
ATOM      6  C   UNL     1      -0.493  -5.454  -3.670  0.00  0.00    +0.030 C 
ENDROOT
BRANCH   1   8
ATOM      7  N   UNL     1       0.186  -2.085  -2.173  0.00  0.00    -0.317 N 
ATOM      8  C   UNL     1      -0.152  -3.376  -2.360  0.00  0.00    +0.216 C 
ATOM      9  O   UNL     1      -0.534  -4.045  -1.423  0.00  0.00    -0.276 OA
ATOM     10  H   UNL     1       0.533  -1.478  -3.023  0.00  0.00    +0.149 HD
BRANCH   7  11
ATOM     11  C   UNL     1       0.091  -1.489  -0.838  0.00  0.00    +0.089 C 
BRANCH  11  12
ATOM     12  C   UNL     1       0.530  -0.024  -0.901  0.00  0.00    -0.049 C 
BRANCH  12  13
ATOM     13  N   UNL     1       1.875   0.059  -1.486  0.00  0.00    +0.379 N 
ATOM     14  C   UNL     1       2.105   1.379  -2.089  0.00  0.00    -0.096 C 
ATOM     15  C   UNL     1       2.904  -0.249  -0.484  0.00  0.00    -0.096 C 
ATOM     16  H   UNL     1       1.944  -0.694  -2.284  0.00  0.00    -0.082 HD
ENDBRANCH  12  13
BRANCH  12  18
ATOM     17  C   UNL     1       0.871   2.058   0.438  0.00  0.00    +0.005 C 
ATOM     18  C   UNL     1       0.550   0.563   0.511  0.00  0.00    -0.029 C 
ATOM     19  C   UNL     1      -0.819   0.367   1.165  0.00  0.00    +0.005 C 
ENDBRANCH  12  18
ENDBRANCH  11  12
ENDBRANCH   7  11
ENDBRANCH   1   8
BRANCH   4  20
ATOM     20  S   UNL     1      -2.257  -5.961  -7.000  0.00  0.00    +0.062 S 
ATOM     21  O   UNL     1      -2.515  -5.031  -8.044  0.00  0.00    -0.153 OA
ATOM     22  O   UNL     1      -1.823  -7.290  -7.255  0.00  0.00    -0.153 OA
BRANCH  20  23
ATOM     23  C   UNL     1      -3.741  -6.086  -6.059  0.00  0.00    +0.125 A 
ATOM     24  C   UNL     1      -4.210  -7.327  -5.671  0.00  0.00    +0.050 A 
ATOM     25  C   UNL     1      -5.373  -7.426  -4.927  0.00  0.00    +0.043 A 
ATOM     26  C   UNL     1      -6.071  -6.282  -4.581  0.00  0.00    +0.021 A 
ATOM     27  C   UNL     1      -5.605  -5.042  -4.974  0.00  0.00    +0.023 A 
ATOM     28  C   UNL     1      -4.439  -4.944  -5.713  0.00  0.00    +0.067 A 
ATOM     29 CL   UNL     1      -3.854  -3.386  -6.206  0.00  0.00    -0.082 Cl
ATOM     30 CL   UNL     1      -5.958  -8.984  -4.434  0.00  0.00    -0.083 Cl
ENDBRANCH  20  23
ENDBRANCH   4  20
TORSDOF 7
