REMARK  Name = ZINC35681834
REMARK  6 active torsions:
REMARK  status: ('A' for Active; 'I' for Inactive)
REMARK    1  A    between atoms: C_4  and  C_7
REMARK    2  A    between atoms: C_8  and  N_24
REMARK    3  A    between atoms: N_12  and  C_13
REMARK    4  A    between atoms: C_13  and  N_15
REMARK    5  A    between atoms: C_16  and  C_18
REMARK    6  A    between atoms: C_25  and  C_27
REMARK                            x       y       z     vdW  Elec       q    Type
REMARK                         _______ _______ _______ _____ _____    ______ ____
ROOT
ATOM      1  C   UNL     1       3.694  -0.683  -0.035  0.00  0.00    +0.077 A 
ATOM      2  C   UNL     1       3.728  -2.039   0.052  0.00  0.00    +0.099 A 
ATOM      3  S   UNL     1       5.482  -2.370  -0.018  0.00  0.00    -0.037 S 
ATOM      4  C   UNL     1       6.048  -0.682  -0.158  0.00  0.00    +0.164 A 
ATOM      5  N   UNL     1       4.870   0.010  -0.147  0.00  0.00    -0.334 N 
ATOM      6  N   UNL     1       7.292  -0.220  -0.253  0.00  0.00    -0.169 NA
ATOM      7  H   UNL     1       4.867   0.978  -0.214  0.00  0.00    +0.168 HD
ENDROOT
BRANCH   1  11
ATOM      8  C   UNL     1      -0.016   1.381   0.022  0.00  0.00    +0.000 A 
ATOM      9  C   UNL     1       1.025   1.812   0.827  0.00  0.00    +0.001 A 
ATOM     10  C   UNL     1       2.232   1.147   0.813  0.00  0.00    +0.010 A 
ATOM     11  C   UNL     1       2.404   0.035  -0.015  0.00  0.00    +0.001 A 
ATOM     12  C   UNL     1       1.350  -0.395  -0.824  0.00  0.00    +0.010 A 
ATOM     13  C   UNL     1       0.147   0.280  -0.800  0.00  0.00    +0.001 A 
ENDBRANCH   1  11
BRANCH   2  14
ATOM     14  N   UNL     1       2.671  -2.937   0.166  0.00  0.00    -0.274 N 
ATOM     15  C   UNL     1       2.917  -4.250   0.344  0.00  0.00    +0.249 C 
ATOM     16  O   UNL     1       4.064  -4.650   0.405  0.00  0.00    -0.270 OA
ATOM     17  H   UNL     1       1.756  -2.618   0.117  0.00  0.00    +0.156 HD
BRANCH  15  18
ATOM     18  C   UNL     1       1.794  -5.203   0.465  0.00  0.00    +0.037 A 
ATOM     19  C   UNL     1       0.477  -4.748   0.390  0.00  0.00    +0.013 A 
ATOM     20  C   UNL     1      -0.567  -5.643   0.503  0.00  0.00    +0.001 A 
ATOM     21  C   UNL     1      -0.310  -6.989   0.692  0.00  0.00    +0.000 A 
ATOM     22  C   UNL     1       0.994  -7.448   0.767  0.00  0.00    +0.001 A 
ATOM     23  C   UNL     1       2.046  -6.564   0.649  0.00  0.00    +0.013 A 
ENDBRANCH  15  18
ENDBRANCH   2  14
BRANCH   6  24
ATOM     24  C   UNL     1       8.322  -1.070  -0.252  0.00  0.00    +0.163 C 
ATOM     25  S   UNL     1       8.042  -2.754  -0.128  0.00  0.00    -0.016 S 
BRANCH  24  26
ATOM     26  N   UNL     1       9.582  -0.602  -0.348  0.00  0.00    -0.262 N 
ATOM     27  C   UNL     1      10.621  -1.459  -0.347  0.00  0.00    +0.250 C 
ATOM     28  O   UNL     1      10.422  -2.655  -0.259  0.00  0.00    -0.270 OA
ATOM     29  H   UNL     1       9.740   0.353  -0.419  0.00  0.00    +0.157 HD
BRANCH  27  30
ATOM     30  C   UNL     1      12.003  -0.946  -0.453  0.00  0.00    +0.037 A 
ATOM     31  C   UNL     1      12.235   0.427  -0.548  0.00  0.00    +0.013 A 
ATOM     32  C   UNL     1      13.527   0.900  -0.647  0.00  0.00    +0.001 A 
ATOM     33  C   UNL     1      14.592   0.016  -0.652  0.00  0.00    +0.000 A 
ATOM     34  C   UNL     1      14.369  -1.346  -0.557  0.00  0.00    +0.001 A 
ATOM     35  C   UNL     1      13.082  -1.831  -0.452  0.00  0.00    +0.013 A 
ENDBRANCH  27  30
ENDBRANCH  24  26
ENDBRANCH   6  24
TORSDOF 6
