REMARK  Name = ZINC09739670
REMARK  5 active torsions:
REMARK  status: ('A' for Active; 'I' for Inactive)
REMARK    1  A    between atoms: N_9  and  C_28
REMARK    2  A    between atoms: C_10  and  C_12
REMARK    3  A    between atoms: C_12  and  N_54
REMARK    4  A    between atoms: C_16  and  C_19
REMARK    5  A    between atoms: C_28  and  C_29
REMARK                            x       y       z     vdW  Elec       q    Type
REMARK                         _______ _______ _______ _____ _____    ______ ____
ROOT
ATOM      1  C   UNL     1      -4.016  15.586  -1.473  0.00  0.00    +0.001 A 
ATOM      2  C   UNL     1      -4.245  14.733  -0.402  0.00  0.00    +0.002 A 
ATOM      3  C   UNL     1      -3.710  13.464  -0.384  0.00  0.00    +0.028 A 
ATOM      4  C   UNL     1      -2.928  13.028  -1.455  0.00  0.00    +0.078 A 
ATOM      5  C   UNL     1      -2.697  13.899  -2.543  0.00  0.00    +0.065 A 
ATOM      6  C   UNL     1      -3.247  15.179  -2.542  0.00  0.00    +0.015 A 
ATOM      7  C   UNL     1      -1.869  13.410  -3.655  0.00  0.00    +0.262 A 
ATOM      8  O   UNL     1      -1.631  14.110  -4.622  0.00  0.00    -0.267 OA
ATOM      9  N   UNL     1      -1.380  12.151  -3.561  0.00  0.00    -0.289 N 
ATOM     10  C   UNL     1      -1.653  11.383  -2.474  0.00  0.00    +0.097 A 
ATOM     11  N   UNL     1      -2.385  11.785  -1.481  0.00  0.00    -0.235 NA
ENDROOT
BRANCH  10  12
ATOM     12  C   UNL     1      -1.082   9.989  -2.423  0.00  0.00    -0.003 C 
BRANCH  12  18
ATOM     13  C   UNL     1      -0.898  10.002  -0.009  0.00  0.00    -0.078 C 
ATOM     14  C   UNL     1      -1.462   9.390   1.275  0.00  0.00    -0.018 C 
ATOM     15  C   UNL     1      -1.148   7.892   1.303  0.00  0.00    +0.006 C 
ATOM     16  C   UNL     1      -1.740   7.231   0.055  0.00  0.00    +0.028 C 
ATOM     17  C   UNL     1      -1.168   7.905  -1.194  0.00  0.00    -0.068 C 
ATOM     18  N   UNL     1      -1.526   9.339  -1.172  0.00  0.00    +0.385 N 
ATOM     19  H   UNL     1      -2.546   9.426  -1.095  0.00  0.00    -0.081 HD
BRANCH  16  20
ATOM     20  C   UNL     1      -1.385   5.767   0.045  0.00  0.00    +0.081 A 
ATOM     21  N   UNL     1      -0.201   5.223   0.031  0.00  0.00    -0.244 NA
ATOM     22  C   UNL     1      -0.017   3.886   0.022  0.00  0.00    +0.078 A 
ATOM     23  C   UNL     1       1.190   3.152   0.007  0.00  0.00    +0.029 A 
ATOM     24  C   UNL     1       1.176   1.792   0.001  0.00  0.00    +0.002 A 
ATOM     25  C   UNL     1      -0.013   1.076   0.008  0.00  0.00    +0.001 A 
ATOM     26  C   UNL     1      -1.215   1.757   0.017  0.00  0.00    +0.017 A 
ATOM     27  C   UNL     1      -1.212   3.130   0.030  0.00  0.00    +0.039 A 
ATOM     28  S   UNL     1      -2.454   4.399   0.048  0.00  0.00    -0.072 S 
ENDBRANCH  16  20
ENDBRANCH  12  18
ENDBRANCH  10  12
BRANCH   9  29
ATOM     29  C   UNL     1      -0.549  11.613  -4.640  0.00  0.00    +0.221 C 
BRANCH  29  30
ATOM     30  C   UNL     1      -1.426  10.928  -5.656  0.00  0.00    +0.230 C 
ATOM     31  O   UNL     1      -2.628  10.893  -5.495  0.00  0.00    -0.274 OA
ATOM     32  N   UNL     1      -0.876  10.354  -6.745  0.00  0.00    -0.328 N 
ATOM     33  H   UNL     1       0.085  10.382  -6.874  0.00  0.00    +0.145 HD
ATOM     34  H   UNL     1      -1.441   9.914  -7.399  0.00  0.00    +0.145 HD
ENDBRANCH  29  30
ENDBRANCH   9  29
TORSDOF 5
