REMARK  Name = ZINC63868228
REMARK  8 active torsions:
REMARK  status: ('A' for Active; 'I' for Inactive)
REMARK    1  A    between atoms: C_1  and  C_2
REMARK    2  A    between atoms: C_4  and  C_9
REMARK    3  A    between atoms: C_5  and  C_8
REMARK    4  A    between atoms: C_9  and  C_11
REMARK    5  A    between atoms: C_9  and  N_12
REMARK    6  A    between atoms: N_12  and  C_13
REMARK    7  A    between atoms: C_14  and  C_16
REMARK    8  A    between atoms: C_16  and  C_17
REMARK                            x       y       z     vdW  Elec       q    Type
REMARK                         _______ _______ _______ _____ _____    ______ ____
ROOT
ATOM      1  N   UNL     1      -2.807   0.861  -1.114  0.00  0.00    -0.298 N 
ATOM      2  C   UNL     1      -1.806   1.594  -1.894  0.00  0.00    +0.132 C 
ATOM      3  C   UNL     1      -3.947   1.472  -0.736  0.00  0.00    +0.216 C 
ATOM      4  O   UNL     1      -4.775   0.865  -0.090  0.00  0.00    -0.276 OA
ENDROOT
BRANCH   1   5
ATOM      5  C   UNL     1      -2.568  -0.537  -0.746  0.00  0.00    +0.103 C 
ATOM      6  C   UNL     1      -2.243  -1.347  -2.003  0.00  0.00    +0.033 C 
BRANCH   5   9
ATOM      7  C   UNL     1      -1.430   1.505   1.557  0.00  0.00    +0.039 C 
ATOM      8  C   UNL     1      -0.566   0.529   0.755  0.00  0.00    +0.154 C 
ATOM      9  C   UNL     1      -1.409  -0.613   0.214  0.00  0.00    -0.001 C 
ATOM     10  C   UNL     1      -0.884  -1.699   0.785  0.00  0.00    +0.063 C 
ATOM     11  N   UNL     1       0.150  -1.366   1.590  0.00  0.00    -0.159 NA
ATOM     12  N   UNL     1       0.399  -0.154   1.633  0.00  0.00    -0.180 NA
ATOM     13  C   UNL     1      -1.377  -3.105   0.564  0.00  0.00    +0.067 C 
ENDBRANCH   5   9
ENDBRANCH   1   5
BRANCH   3  14
ATOM     14  C   UNL     1      -4.192   2.910  -1.114  0.00  0.00    +0.103 C 
BRANCH  14  15
ATOM     15  C   UNL     1      -5.548   3.357  -0.565  0.00  0.00    -0.020 C 
ATOM     16  C   UNL     1      -5.551   3.224   0.959  0.00  0.00    +0.011 C 
ATOM     17  C   UNL     1      -6.907   3.671   1.508  0.00  0.00    -0.010 C 
ATOM     18  C   UNL     1      -7.156   5.131   1.124  0.00  0.00    +0.007 C 
ATOM     19  C   UNL     1      -7.154   5.264  -0.400  0.00  0.00    -0.010 C 
ATOM     20  C   UNL     1      -5.798   4.817  -0.949  0.00  0.00    +0.011 C 
ATOM     21  C   UNL     1      -8.259   4.386  -0.991  0.00  0.00    +0.007 C 
ATOM     22  C   UNL     1      -8.009   2.926  -0.606  0.00  0.00    -0.010 C 
ATOM     23  C   UNL     1      -8.011   2.792   0.918  0.00  0.00    +0.007 C 
ATOM     24  C   UNL     1      -6.653   2.478  -1.156  0.00  0.00    +0.011 C 
ENDBRANCH  14  15
ENDBRANCH   3  14
TORSDOF 4
