REMARK  Name = ZINC11665335
REMARK  3 active torsions:
REMARK  status: ('A' for Active; 'I' for Inactive)
REMARK    1  A    between atoms: C_8  and  N_49
REMARK    2  A    between atoms: C_12  and  N_49
REMARK    3  A    between atoms: N_15  and  C_18
REMARK                            x       y       z     vdW  Elec       q    Type
REMARK                         _______ _______ _______ _____ _____    ______ ____
ROOT
ATOM      1  C   UNL     1      -6.033   3.146  -0.960  0.00  0.00    -0.068 C 
ATOM      2  C   UNL     1      -6.022   3.932  -2.274  0.00  0.00    +0.003 C 
ATOM      3  C   UNL     1      -7.168   3.445  -3.164  0.00  0.00    +0.103 C 
ATOM      4  N   UNL     1      -8.446   3.639  -2.468  0.00  0.00    -0.330 N 
ATOM      5  C   UNL     1      -8.499   2.856  -1.226  0.00  0.00    +0.103 C 
ATOM      6  C   UNL     1      -7.393   3.325  -0.278  0.00  0.00    +0.003 C 
ENDROOT
BRANCH   4   7
ATOM      7  C   UNL     1      -9.524   3.327  -3.303  0.00  0.00    +0.033 A 
ATOM      8  C   UNL     1     -10.458   2.378  -2.907  0.00  0.00    +0.027 A 
ATOM      9  C   UNL     1     -11.526   2.073  -3.729  0.00  0.00    +0.051 A 
ATOM     10  C   UNL     1     -11.663   2.704  -4.955  0.00  0.00    +0.166 A 
ATOM     11  C   UNL     1     -10.725   3.652  -5.357  0.00  0.00    +0.168 A 
ATOM     12  C   UNL     1      -9.658   3.961  -4.531  0.00  0.00    +0.072 A 
ATOM     13  O   UNL     1     -11.080   4.122  -6.589  0.00  0.00    -0.453 OA
ATOM     14  C   UNL     1     -12.014   3.159  -7.113  0.00  0.00    +0.466 C 
ATOM     15  O   UNL     1     -12.606   2.581  -5.935  0.00  0.00    -0.453 OA
ENDBRANCH   4   7
BRANCH   1  16
ATOM     16  N   UNL     1      -4.973   3.657  -0.070  0.00  0.00    +0.385 N 
ATOM     17  H   UNL     1      -4.876   4.670  -0.206  0.00  0.00    -0.085 HD
ATOM     18  H   UNL     1      -5.229   3.466   0.906  0.00  0.00    -0.085 HD
BRANCH  16  26
ATOM     19  C   UNL     1       1.157   3.162   0.008  0.00  0.00    +0.000 A 
ATOM     20  C   UNL     1       1.174   1.780   0.000  0.00  0.00    +0.004 A 
ATOM     21  C   UNL     1      -0.013   1.076   0.008  0.00  0.00    +0.046 A 
ATOM     22  C   UNL     1      -1.228   1.753   0.017  0.00  0.00    +0.124 A 
ATOM     23  C   UNL     1      -1.242   3.136   0.035  0.00  0.00    -0.007 A 
ATOM     24  C   UNL     1      -0.048   3.838   0.026  0.00  0.00    +0.007 A 
ATOM     25  C   UNL     1      -2.537   3.909   0.060  0.00  0.00    +0.026 C 
ATOM     26  C   UNL     1      -3.689   2.999  -0.374  0.00  0.00    -0.029 C 
ATOM     27  C   UNL     1      -3.583   1.683   0.407  0.00  0.00    +0.214 C 
ATOM     28  O   UNL     1      -2.375   1.025   0.021  0.00  0.00    -0.493 OA
ENDBRANCH  16  26
ENDBRANCH   1  16
TORSDOF 3
