REMARK  Name = ZINC16551369
REMARK  11 active torsions:
REMARK  status: ('A' for Active; 'I' for Inactive)
REMARK    1  A    between atoms: C_1  and  C_2
REMARK    2  A    between atoms: C_2  and  O_3
REMARK    3  A    between atoms: O_3  and  C_4
REMARK    4  A    between atoms: C_4  and  C_6
REMARK    5  A    between atoms: C_7  and  C_32
REMARK    6  A    between atoms: C_8  and  C_29
REMARK    7  A    between atoms: C_10  and  N_11
REMARK    8  A    between atoms: C_12  and  C_14
REMARK    9  A    between atoms: C_14  and  N_15
REMARK   10  A    between atoms: N_18  and  C_21
REMARK   11  A    between atoms: C_26  and  C_27
REMARK                            x       y       z     vdW  Elec       q    Type
REMARK                         _______ _______ _______ _____ _____    ______ ____
ROOT
ATOM      1  N   UNL     1      -3.036  -2.525   2.504  0.00  0.00    -0.278 N 
ATOM      2  C   UNL     1      -3.810  -2.867   3.553  0.00  0.00    +0.232 C 
ATOM      3  O   UNL     1      -4.912  -3.338   3.365  0.00  0.00    -0.274 OA
ATOM      4  H   UNL     1      -2.155  -2.148   2.654  0.00  0.00    +0.155 HD
ENDROOT
BRANCH   1   9
ATOM      5  C   UNL     1      -2.845  -2.417   0.016  0.00  0.00    +0.091 A 
ATOM      6  C   UNL     1      -3.515  -2.699  -1.167  0.00  0.00    -0.015 A 
ATOM      7  C   UNL     1      -4.767  -3.238  -1.041  0.00  0.00    +0.079 A 
ATOM      8  S   UNL     1      -4.977  -3.336   0.725  0.00  0.00    -0.068 S 
ATOM      9  C   UNL     1      -3.498  -2.709   1.215  0.00  0.00    +0.087 A 
ATOM     10  C   UNL     1      -2.898  -2.428  -2.514  0.00  0.00    +0.046 C 
BRANCH   7  11
ATOM     11  C   UNL     1      -5.702  -3.634  -2.096  0.00  0.00    +0.248 C 
ATOM     12  O   UNL     1      -5.394  -3.496  -3.266  0.00  0.00    -0.270 OA
ATOM     13  N   UNL     1      -6.904  -4.152  -1.773  0.00  0.00    -0.325 N 
ATOM     14  H   UNL     1      -7.149  -4.262  -0.841  0.00  0.00    +0.145 HD
ATOM     15  H   UNL     1      -7.523  -4.414  -2.472  0.00  0.00    +0.145 HD
ENDBRANCH   7  11
BRANCH   5  16
ATOM     16  C   UNL     1      -1.497  -1.838   0.006  0.00  0.00    +0.342 C 
ATOM     17  O   UNL     1      -0.523  -2.565  -0.007  0.00  0.00    -0.245 OA
BRANCH  16  18
ATOM     18  O   UNL     1      -1.339  -0.499   0.012  0.00  0.00    -0.461 OA
BRANCH  18  20
ATOM     19  C   UNL     1      -0.019   1.526   0.010  0.00  0.00    +0.048 C 
ATOM     20  C   UNL     1       0.002  -0.004   0.002  0.00  0.00    +0.229 C 
ENDBRANCH  18  20
ENDBRANCH  16  18
ENDBRANCH   5  16
ENDBRANCH   1   9
BRANCH   2  21
ATOM     21  C   UNL     1      -3.306  -2.666   4.958  0.00  0.00    +0.181 C 
BRANCH  21  22
ATOM     22  N   UNL     1      -4.328  -3.114   5.914  0.00  0.00    -0.291 NA
ATOM     23  C   UNL     1      -5.526  -2.267   5.840  0.00  0.00    +0.104 C 
ATOM     24  C   UNL     1      -6.630  -2.871   6.714  0.00  0.00    +0.120 C 
ATOM     25  N   UNL     1      -6.094  -3.073   8.069  0.00  0.00    -0.327 N 
ATOM     26  C   UNL     1      -4.822  -3.796   8.213  0.00  0.00    +0.120 C 
ATOM     27  C   UNL     1      -3.789  -3.156   7.280  0.00  0.00    +0.104 C 
BRANCH  25  28
ATOM     28  C   UNL     1      -6.776  -2.591   9.188  0.00  0.00    +0.034 A 
ATOM     29  C   UNL     1      -7.711  -3.391   9.832  0.00  0.00    +0.043 A 
ATOM     30  C   UNL     1      -8.384  -2.911  10.939  0.00  0.00    +0.043 A 
ATOM     31  C   UNL     1      -8.126  -1.634  11.407  0.00  0.00    +0.020 A 
ATOM     32  C   UNL     1      -7.195  -0.836  10.768  0.00  0.00    +0.006 A 
ATOM     33  C   UNL     1      -6.515  -1.312   9.664  0.00  0.00    -0.029 A 
ATOM     34  C   UNL     1      -5.496  -0.443   8.973  0.00  0.00    +0.045 C 
ATOM     35 CL   UNL     1      -9.554  -3.909  11.744  0.00  0.00    -0.083 Cl
ENDBRANCH  25  28
ENDBRANCH  21  22
ENDBRANCH   2  21
TORSDOF 8
