REMARK  Name = ZINC11843766
REMARK  9 active torsions:
REMARK  status: ('A' for Active; 'I' for Inactive)
REMARK    1  A    between atoms: C_1  and  C_2
REMARK    2  A    between atoms: C_2  and  C_4
REMARK    3  A    between atoms: C_7  and  C_9
REMARK    4  A    between atoms: N_11  and  C_12
REMARK    5  A    between atoms: N_11  and  C_13
REMARK    6  A    between atoms: C_19  and  C_20
REMARK    7  A    between atoms: C_19  and  N_55
REMARK    8  A    between atoms: C_20  and  C_21
REMARK    9  A    between atoms: C_21  and  C_22
REMARK                            x       y       z     vdW  Elec       q    Type
REMARK                         _______ _______ _______ _____ _____    ______ ____
ROOT
ATOM      1  C   UNL     1       2.671  -3.873   0.413  0.00  0.00    +0.059 C 
ATOM      2  C   UNL     1       2.324  -4.998  -0.566  0.00  0.00    +0.019 C 
ATOM      3  C   UNL     1       3.087  -6.264  -0.167  0.00  0.00    -0.017 C 
ATOM      4  C   UNL     1       2.728  -6.639   1.272  0.00  0.00    -0.079 C 
ATOM      5  C   UNL     1       2.323  -4.317   1.836  0.00  0.00    -0.056 C 
ATOM      6  N   UNL     1       3.109  -5.525   2.167  0.00  0.00    +0.381 N 
ATOM      7  H   UNL     1       4.106  -5.319   2.037  0.00  0.00    -0.082 HD
ENDROOT
BRANCH   1  10
ATOM      8  C   UNL     1       2.539  -1.533  -0.253  0.00  0.00    +0.253 C 
ATOM      9  O   UNL     1       3.754  -1.507  -0.296  0.00  0.00    -0.269 OA
ATOM     10  N   UNL     1       1.901  -2.674   0.072  0.00  0.00    -0.299 N 
ATOM     11  C   UNL     1       0.436  -2.716   0.086  0.00  0.00    +0.132 C 
BRANCH   8  15
ATOM     12  C   UNL     1      -0.035   1.621  -1.091  0.00  0.00    +0.055 A 
ATOM     13  C   UNL     1       1.314   1.957  -1.043  0.00  0.00    +0.020 A 
ATOM     14  C   UNL     1       2.223   0.975  -0.774  0.00  0.00    +0.021 A 
ATOM     15  C   UNL     1       1.766  -0.317  -0.558  0.00  0.00    +0.075 A 
ATOM     16  S   UNL     1       0.000  -0.129  -0.744  0.00  0.00    -0.081 S 
BRANCH  12  18
ATOM     17  C   UNL     1      -2.577   1.899  -1.370  0.00  0.00    +0.092 C 
ATOM     18  C   UNL     1      -1.187   2.482  -1.362  0.00  0.00    +0.167 C 
ATOM     19  O   UNL     1      -1.024   3.664  -1.580  0.00  0.00    -0.292 OA
ENDBRANCH  12  18
ENDBRANCH   8  15
ENDBRANCH   1  10
BRANCH   6  20
ATOM     20  C   UNL     1       2.877  -5.907   3.575  0.00  0.00    -0.078 C 
BRANCH  20  21
ATOM     21  C   UNL     1       3.866  -7.010   3.955  0.00  0.00    -0.014 C 
BRANCH  21  22
ATOM     22  C   UNL     1       3.655  -7.402   5.419  0.00  0.00    +0.033 C 
BRANCH  22  23
ATOM     23  C   UNL     1       4.629  -8.489   5.794  0.00  0.00    -0.047 A 
ATOM     24  C   UNL     1       4.278  -9.817   5.634  0.00  0.00    +0.003 A 
ATOM     25  C   UNL     1       5.173 -10.814   5.973  0.00  0.00    +0.000 A 
ATOM     26  C   UNL     1       6.416 -10.484   6.481  0.00  0.00    +0.000 A 
ATOM     27  C   UNL     1       6.765  -9.156   6.646  0.00  0.00    +0.000 A 
ATOM     28  C   UNL     1       5.872  -8.159   6.302  0.00  0.00    +0.003 A 
ENDBRANCH  22  23
ENDBRANCH  21  22
ENDBRANCH  20  21
ENDBRANCH   6  20
TORSDOF 7
