REMARK  Name = ZINC39533711
REMARK  10 active torsions:
REMARK  status: ('A' for Active; 'I' for Inactive)
REMARK    1  A    between atoms: C_1  and  C_2
REMARK    2  A    between atoms: C_2  and  O_3
REMARK    3  A    between atoms: O_3  and  N_4
REMARK    4  A    between atoms: N_4  and  C_5
REMARK    5  A    between atoms: C_5  and  C_6
REMARK    6  A    between atoms: C_6  and  C_8
REMARK    7  A    between atoms: C_6  and  N_20
REMARK    8  A    between atoms: C_11  and  C_14
REMARK    9  A    between atoms: C_24  and  S_27
REMARK   10  A    between atoms: S_27  and  C_28
REMARK                            x       y       z     vdW  Elec       q    Type
REMARK                         _______ _______ _______ _____ _____    ______ ____
ROOT
ATOM      1  C   UNL     1       1.399  -3.851  -2.524  0.00  0.00    -0.021 C 
ENDROOT
BRANCH   1   2
ATOM      2  N   UNL     1       1.908  -4.368  -1.246  0.00  0.00    +0.387 N 
ATOM      3  C   UNL     1       1.977  -5.834  -1.303  0.00  0.00    -0.062 C 
ATOM      4  C   UNL     1       2.525  -6.371   0.020  0.00  0.00    +0.063 C 
ATOM      5  N   UNL     1       1.646  -5.947   1.120  0.00  0.00    -0.308 NA
ATOM      6  C   UNL     1       1.548  -4.481   1.174  0.00  0.00    +0.095 C 
ATOM      7  C   UNL     1       1.008  -3.960  -0.160  0.00  0.00    -0.048 C 
ATOM      8  H   UNL     1       0.733  -6.367   1.035  0.00  0.00    +0.123 HD
ATOM      9  H   UNL     1       2.830  -3.994  -1.077  0.00  0.00    -0.081 HD
BRANCH   6  10
ATOM     10  S   UNL     1       0.424  -3.999   2.513  0.00  0.00    -0.147 S 
ATOM     11  C   UNL     1       0.251  -5.508   3.505  0.00  0.00    +0.086 C 
ENDBRANCH   6  10
ENDBRANCH   1   2
BRANCH   1  12
ATOM     12  C   UNL     1       2.303  -4.300  -3.643  0.00  0.00    -0.060 A 
ATOM     13  C   UNL     1       3.673  -4.311  -3.459  0.00  0.00    +0.002 A 
ATOM     14  C   UNL     1       4.506  -4.721  -4.481  0.00  0.00    +0.009 A 
ATOM     15  C   UNL     1       3.963  -5.123  -5.699  0.00  0.00    -0.018 A 
ATOM     16  C   UNL     1       2.582  -5.109  -5.880  0.00  0.00    +0.009 A 
ATOM     17  C   UNL     1       1.758  -4.703  -4.849  0.00  0.00    +0.002 A 
BRANCH  15  18
ATOM     18  C   UNL     1       4.854  -5.563  -6.802  0.00  0.00    -0.018 A 
ATOM     19  C   UNL     1       6.235  -5.582  -6.620  0.00  0.00    +0.008 A 
ATOM     20  C   UNL     1       7.058  -5.994  -7.648  0.00  0.00    +0.001 A 
ATOM     21  C   UNL     1       6.515  -6.386  -8.858  0.00  0.00    +0.000 A 
ATOM     22  C   UNL     1       5.144  -6.369  -9.044  0.00  0.00    +0.001 A 
ATOM     23  C   UNL     1       4.311  -5.965  -8.021  0.00  0.00    +0.008 A 
ENDBRANCH  15  18
ENDBRANCH   1  12
BRANCH   1  24
ATOM     24  C   UNL     1       1.363  -2.322  -2.478  0.00  0.00    +0.100 C 
BRANCH  24  25
ATOM     25  N   UNL     1       0.774  -1.809  -3.723  0.00  0.00    -0.202 NA
ATOM     26  H   UNL     1      -0.109  -2.256  -3.916  0.00  0.00    +0.154 HD
BRANCH  25  27
ATOM     27  O   UNL     1       0.625  -0.355  -3.671  0.00  0.00    -0.300 OA
BRANCH  27  29
ATOM     28  C   UNL     1      -0.051   1.731  -4.688  0.00  0.00    +0.036 C 
ATOM     29  C   UNL     1       0.057   0.214  -4.853  0.00  0.00    +0.182 C 
ENDBRANCH  27  29
ENDBRANCH  25  27
ENDBRANCH  24  25
ENDBRANCH   1  24
TORSDOF 8
