REMARK  Name = ZINC25480394
REMARK  10 active torsions:
REMARK  status: ('A' for Active; 'I' for Inactive)
REMARK    1  A    between atoms: C_1  and  C_2
REMARK    2  A    between atoms: C_15  and  C_17
REMARK    3  A    between atoms: C_17  and  N_18
REMARK    4  A    between atoms: N_18  and  C_19
REMARK    5  A    between atoms: N_18  and  C_20
REMARK    6  A    between atoms: C_20  and  C_21
REMARK    7  A    between atoms: C_24  and  C_27
REMARK    8  A    between atoms: C_27  and  C_28
REMARK    9  A    between atoms: C_27  and  C_29
REMARK   10  A    between atoms: C_27  and  C_30
REMARK                            x       y       z     vdW  Elec       q    Type
REMARK                         _______ _______ _______ _____ _____    ______ ____
ROOT
ATOM      1  C   UNL     1      -0.019   1.526   0.010  0.00  0.00    +0.008 C 
ATOM      2  C   UNL     1       0.002  -0.004   0.002  0.00  0.00    -0.009 C 
ATOM      3  C   UNL     1       0.726  -0.501  -1.253  0.00  0.00    +0.008 C 
ATOM      4  C   UNL     1       0.536  -2.011  -1.397  0.00  0.00    +0.037 C 
ATOM      5  C   UNL     1       0.949  -2.688  -0.093  0.00  0.00    -0.023 A 
ATOM      6  C   UNL     1       1.031  -1.976   1.055  0.00  0.00    -0.004 A 
ATOM      7  S   UNL     1       1.537  -3.145   2.292  0.00  0.00    -0.073 S 
ATOM      8  C   UNL     1       1.637  -4.581   1.270  0.00  0.00    +0.116 A 
ATOM      9  C   UNL     1       1.271  -4.101  -0.007  0.00  0.00    +0.075 A 
ATOM     10  C   UNL     1       1.257  -5.054  -1.081  0.00  0.00    +0.260 A 
ATOM     11  O   UNL     1       0.955  -4.742  -2.220  0.00  0.00    -0.267 OA
ATOM     12  N   UNL     1       1.599  -6.321  -0.747  0.00  0.00    -0.309 N 
ATOM     13  H   UNL     1       1.603  -6.997  -1.443  0.00  0.00    +0.170 HD
ATOM     14  C   UNL     1       1.938  -6.688   0.512  0.00  0.00    +0.125 A 
ATOM     15  N   UNL     1       1.962  -5.845   1.522  0.00  0.00    -0.225 NA
ATOM     16  C   UNL     1       0.751  -0.516   1.241  0.00  0.00    +0.046 C 
ENDROOT
BRANCH  14  17
ATOM     17  C   UNL     1       2.301  -8.127   0.768  0.00  0.00    +0.158 C 
BRANCH  17  18
ATOM     18  N   UNL     1       2.631  -8.304   2.189  0.00  0.00    -0.294 NA
ATOM     19  C   UNL     1       1.450  -8.086   3.035  0.00  0.00    +0.105 C 
BRANCH  18  20
ATOM     20  C   UNL     1       3.216  -9.629   2.433  0.00  0.00    +0.119 C 
BRANCH  20  21
ATOM     21  C   UNL     1       3.765  -9.685   3.835  0.00  0.00    -0.033 A 
ATOM     22  C   UNL     1       5.072  -9.312   4.082  0.00  0.00    +0.005 A 
ATOM     23  C   UNL     1       5.575  -9.364   5.369  0.00  0.00    +0.004 A 
ATOM     24  C   UNL     1       4.770  -9.789   6.409  0.00  0.00    -0.042 A 
ATOM     25  C   UNL     1       3.462 -10.161   6.162  0.00  0.00    +0.004 A 
ATOM     26  C   UNL     1       2.958 -10.105   4.876  0.00  0.00    +0.005 A 
BRANCH  24  27
ATOM     27  C   UNL     1       5.319  -9.846   7.811  0.00  0.00    -0.013 C 
ATOM     28  C   UNL     1       5.770  -8.449   8.240  0.00  0.00    +0.015 C 
ATOM     29  C   UNL     1       4.231 -10.346   8.764  0.00  0.00    +0.015 C 
ATOM     30  C   UNL     1       6.512 -10.803   7.853  0.00  0.00    +0.015 C 
ENDBRANCH  24  27
ENDBRANCH  20  21
ENDBRANCH  18  20
ENDBRANCH  17  18
ENDBRANCH  14  17
TORSDOF 5
