REMARK  Name = ZINC28383527
REMARK  9 active torsions:
REMARK  status: ('A' for Active; 'I' for Inactive)
REMARK    1  A    between atoms: C_3  and  C_16
REMARK    2  A    between atoms: C_5  and  N_7
REMARK    3  A    between atoms: C_11  and  O_15
REMARK    4  A    between atoms: C_21  and  C_24
REMARK    5  A    between atoms: C_24  and  C_25
REMARK    6  A    between atoms: C_25  and  C_26
REMARK    7  A    between atoms: C_26  and  C_28
REMARK    8  A    between atoms: C_26  and  C_32
REMARK    9  A    between atoms: C_28  and  C_29
REMARK                            x       y       z     vdW  Elec       q    Type
REMARK                         _______ _______ _______ _____ _____    ______ ____
ROOT
ATOM      1  C   UNL     1       4.233   2.160  -0.780  0.00  0.00    +0.247 C 
ATOM      2  O   UNL     1       3.214   1.549  -1.036  0.00  0.00    -0.270 OA
ATOM      3  N   UNL     1       4.217   3.507  -0.735  0.00  0.00    -0.298 N 
ATOM      4  C   UNL     1       3.001   4.254  -1.084  0.00  0.00    +0.108 C 
ATOM      5  C   UNL     1       3.348   5.287  -2.160  0.00  0.00    +0.022 C 
ATOM      6  C   UNL     1       4.503   6.162  -1.668  0.00  0.00    -0.008 C 
ATOM      7  C   UNL     1       5.736   5.290  -1.420  0.00  0.00    +0.022 C 
ATOM      8  C   UNL     1       5.414   4.257  -0.329  0.00  0.00    +0.108 C 
ENDROOT
BRANCH   1  11
ATOM      9  C   UNL     1       7.008  -0.357  -1.058  0.00  0.00    +0.003 A 
ATOM     10  C   UNL     1       5.835   0.327  -1.305  0.00  0.00    +0.013 A 
ATOM     11  C   UNL     1       5.489   1.426  -0.518  0.00  0.00    +0.039 A 
ATOM     12  C   UNL     1       6.333   1.831   0.516  0.00  0.00    +0.036 A 
ATOM     13  C   UNL     1       7.510   1.138   0.756  0.00  0.00    +0.033 A 
ATOM     14  C   UNL     1       7.845   0.044  -0.034  0.00  0.00    +0.023 A 
BRANCH  13  15
ATOM     15  N   UNL     1       8.360   1.540   1.791  0.00  0.00    -0.305 N 
ATOM     16  C   UNL     1       8.893   0.606   2.642  0.00  0.00    +0.072 C 
ATOM     17  C   UNL     1       9.911   1.070   3.643  0.00  0.00    +0.072 C 
ATOM     18  C   UNL     1      10.081   0.016   4.741  0.00  0.00    +0.040 C 
ATOM     19  C   UNL     1      10.250  -1.353   4.068  0.00  0.00    +0.134 C 
ATOM     20  C   UNL     1       8.942  -1.709   3.361  0.00  0.00    +0.145 C 
ATOM     21  N   UNL     1       8.487  -0.598   2.535  0.00  0.00    -0.374 N 
ATOM     22  H   UNL     1       7.828  -0.790   1.850  0.00  0.00    +0.161 HD
ATOM     23  H   UNL     1       8.573   2.479   1.907  0.00  0.00    +0.153 HD
BRANCH  19  24
ATOM     24  O   UNL     1      10.549  -2.341   5.056  0.00  0.00    -0.390 OA
ATOM     25  H   UNL     1      10.668  -3.231   4.699  0.00  0.00    +0.210 HD
ENDBRANCH  19  24
ENDBRANCH  13  15
ENDBRANCH   1  11
BRANCH   6  26
ATOM     26  C   UNL     1       4.831   7.217  -2.727  0.00  0.00    +0.004 C 
BRANCH  26  27
ATOM     27  C   UNL     1       5.899   8.169  -2.185  0.00  0.00    +0.009 C 
BRANCH  27  28
ATOM     28  C   UNL     1       6.226   9.224  -3.244  0.00  0.00    +0.030 C 
BRANCH  28  29
ATOM     29  C   UNL     1       7.364  10.085  -2.760  0.00  0.00    -0.040 A 
ATOM     30  C   UNL     1       7.231  10.809  -1.589  0.00  0.00    +0.008 A 
ATOM     31  C   UNL     1       8.272  11.600  -1.140  0.00  0.00    +0.050 A 
ATOM     32  C   UNL     1       9.451  11.671  -1.864  0.00  0.00    +0.166 A 
ATOM     33  C   UNL     1       9.585  10.942  -3.043  0.00  0.00    +0.166 A 
ATOM     34  C   UNL     1       8.540  10.146  -3.484  0.00  0.00    +0.053 A 
ATOM     35  O   UNL     1      10.825  11.178  -3.563  0.00  0.00    -0.453 OA
ATOM     36  C   UNL     1      11.295  12.371  -2.910  0.00  0.00    +0.466 C 
ATOM     37  O   UNL     1      10.607  12.363  -1.645  0.00  0.00    -0.453 OA
ENDBRANCH  28  29
BRANCH  28  38
ATOM     38  C   UNL     1       4.995  10.097  -3.491  0.00  0.00    +0.133 C 
BRANCH  38  39
ATOM     39  C   UNL     1       5.277  11.056  -4.619  0.00  0.00    +0.357 C 
ATOM     40  O   UNL     1       6.362  11.042  -5.174  0.00  0.00    -0.246 OA
ATOM     41  O   UNL     1       4.419  11.845  -4.977  0.00  0.00    -0.246 OA
ENDBRANCH  38  39
ENDBRANCH  28  38
ENDBRANCH  27  28
ENDBRANCH  26  27
ENDBRANCH   6  26
TORSDOF 9
