REMARK  Name = ZINC21025946
REMARK  6 active torsions:
REMARK  status: ('A' for Active; 'I' for Inactive)
REMARK    1  A    between atoms: C_1  and  C_2
REMARK    2  A    between atoms: C_4  and  C_12
REMARK    3  A    between atoms: C_6  and  N_9
REMARK    4  A    between atoms: C_7  and  C_8
REMARK    5  A    between atoms: C_12  and  C_14
REMARK    6  A    between atoms: C_12  and  N_22
REMARK                            x       y       z     vdW  Elec       q    Type
REMARK                         _______ _______ _______ _____ _____    ______ ____
ROOT
ATOM      1  C   UNL     1       0.110   5.446   0.136  0.00  0.00    +0.115 C 
ENDROOT
BRANCH   1   5
ATOM      2  C   UNL     1       1.130   6.352  -4.679  0.00  0.00    +0.044 C 
ATOM      3  C   UNL     1       0.130   6.066  -3.588  0.00  0.00    -0.045 A 
ATOM      4  C   UNL     1       0.559   5.900  -2.284  0.00  0.00    +0.009 A 
ATOM      5  C   UNL     1      -0.357   5.632  -1.284  0.00  0.00    -0.024 A 
ATOM      6  C   UNL     1      -1.704   5.542  -1.587  0.00  0.00    +0.038 A 
ATOM      7  C   UNL     1      -2.132   5.713  -2.889  0.00  0.00    +0.130 A 
ATOM      8  C   UNL     1      -1.216   5.975  -3.890  0.00  0.00    -0.017 A 
ATOM      9  C   UNL     1      -1.683   6.162  -5.311  0.00  0.00    +0.046 C 
BRANCH   7  10
ATOM     10  N   UNL     1      -3.574   5.615  -3.213  0.00  0.00    +0.057 N 
ATOM     11  O   UNL     1      -4.062   6.356  -4.047  0.00  0.00    -0.126 OA
ATOM     12  O   UNL     1      -4.271   4.793  -2.646  0.00  0.00    -0.126 OA
ENDBRANCH   7  10
ENDBRANCH   1   5
BRANCH   1  13
ATOM     13  C   UNL     1       0.626   4.041   0.315  0.00  0.00    +0.010 A 
ATOM     14  C   UNL     1      -0.257   2.976   0.321  0.00  0.00    +0.047 A 
ATOM     15  C   UNL     1       0.217   1.686   0.485  0.00  0.00    +0.020 A 
ATOM     16  C   UNL     1       1.572   1.462   0.641  0.00  0.00    +0.003 A 
ATOM     17  C   UNL     1       2.454   2.527   0.641  0.00  0.00    +0.020 A 
ATOM     18  C   UNL     1       1.982   3.816   0.472  0.00  0.00    +0.047 A 
ATOM     19 CL   UNL     1       3.090   5.153   0.464  0.00  0.00    -0.083 Cl
ATOM     20 CL   UNL     1      -1.958   3.257   0.123  0.00  0.00    -0.083 Cl
ENDBRANCH   1  13
BRANCH   1  21
ATOM     21  N   UNL     1      -1.012   5.676   1.055  0.00  0.00    -0.320 NA
ATOM     22  H   UNL     1      -0.671   5.540   2.092  0.00  0.00    +0.119 HD
ATOM     23  H   UNL     1      -1.389   6.702   0.925  0.00  0.00    +0.119 HD
ENDBRANCH   1  21
TORSDOF 4
