REMARK  Name = ZINC48375271
REMARK  6 active torsions:
REMARK  status: ('A' for Active; 'I' for Inactive)
REMARK    1  A    between atoms: C_5  and  C_7
REMARK    2  A    between atoms: C_7  and  C_8
REMARK    3  A    between atoms: C_8  and  N_9
REMARK    4  A    between atoms: C_10  and  C_12
REMARK    5  A    between atoms: N_20  and  C_21
REMARK    6  A    between atoms: C_26  and  N_27
REMARK                            x       y       z     vdW  Elec       q    Type
REMARK                         _______ _______ _______ _____ _____    ______ ____
ROOT
ATOM      1  C   UNL     1       1.501  -6.332   2.563  0.00  0.00    +0.078 C 
ATOM      2  C   UNL     1       0.208  -6.874   1.950  0.00  0.00    +0.032 C 
ATOM      3  C   UNL     1       0.267  -8.404   1.912  0.00  0.00    +0.110 C 
ATOM      4  N   UNL     1       0.547  -8.900   3.266  0.00  0.00    -0.285 N 
ATOM      5  C   UNL     1       1.718  -8.376   3.983  0.00  0.00    +0.110 C 
ATOM      6  C   UNL     1       1.642  -6.846   3.997  0.00  0.00    +0.032 C 
ATOM      7  C   UNL     1      -0.254  -9.819   3.841  0.00  0.00    +0.307 C 
ATOM      8  O   UNL     1      -1.272 -10.174   3.279  0.00  0.00    -0.252 OA
ATOM      9  N   UNL     1       0.072 -10.343   5.039  0.00  0.00    -0.266 N 
ATOM     10  H   UNL     1       0.851 -10.016   5.516  0.00  0.00    +0.156 HD
ENDROOT
BRANCH   9  11
ATOM     11  C   UNL     1      -0.713 -11.363   5.595  0.00  0.00    +0.073 A 
ATOM     12  C   UNL     1      -2.050 -11.496   5.241  0.00  0.00    +0.028 A 
ATOM     13  C   UNL     1      -2.787 -12.520   5.818  0.00  0.00    +0.019 A 
ATOM     14  C   UNL     1      -2.177 -13.370   6.719  0.00  0.00    +0.084 A 
ATOM     15  N   UNL     1      -0.905 -13.222   7.039  0.00  0.00    -0.348 N 
ATOM     16  C   UNL     1      -0.163 -12.264   6.510  0.00  0.00    +0.121 A 
ATOM     17  H   UNL     1      -0.503 -13.834   7.675  0.00  0.00    +0.167 HD
BRANCH  16  18
ATOM     18  N   UNL     1       1.177 -12.148   6.871  0.00  0.00    -0.315 N 
ATOM     19  C   UNL     1       2.296 -12.877   6.256  0.00  0.00    +0.106 C 
ATOM     20  C   UNL     1       3.582 -12.450   6.995  0.00  0.00    +0.020 C 
ATOM     21  C   UNL     1       3.045 -11.932   8.356  0.00  0.00    +0.020 C 
ATOM     22  C   UNL     1       1.709 -11.271   7.929  0.00  0.00    +0.106 C 
ENDBRANCH  16  18
ENDBRANCH   9  11
BRANCH   1  24
ATOM     23  N   UNL     1       1.339  -4.149   1.411  0.00  0.00    -0.315 N 
ATOM     24  C   UNL     1       1.460  -4.826   2.570  0.00  0.00    +0.216 C 
ATOM     25  O   UNL     1       1.537  -4.223   3.620  0.00  0.00    -0.276 OA
ATOM     26  H   UNL     1       1.278  -4.632   0.572  0.00  0.00    +0.149 HD
BRANCH  23  27
ATOM     27  C   UNL     1       1.300  -2.685   1.419  0.00  0.00    +0.109 C 
BRANCH  27  28
ATOM     28  C   UNL     1       1.159  -2.171  -0.016  0.00  0.00    +0.056 C 
BRANCH  28  33
ATOM     29  C   UNL     1      -0.135   1.376   0.003  0.00  0.00    +0.000 A 
ATOM     30  C   UNL     1       1.043   2.101   0.005  0.00  0.00    +0.003 A 
ATOM     31  C   UNL     1       2.259   1.444   0.001  0.00  0.00    +0.038 A 
ATOM     32  C   UNL     1       2.298   0.060  -0.006  0.00  0.00    +0.127 A 
ATOM     33  C   UNL     1       1.118  -0.664  -0.008  0.00  0.00    -0.011 A 
ATOM     34  C   UNL     1      -0.097  -0.006  -0.004  0.00  0.00    +0.006 A 
ATOM     35  F   UNL     1       3.486  -0.583  -0.010  0.00  0.00    -0.205 F 
ENDBRANCH  28  33
ENDBRANCH  27  28
ENDBRANCH  23  27
ENDBRANCH   1  24
TORSDOF 6
