REMARK  Name = ZINC00717259
REMARK  4 active torsions:
REMARK  status: ('A' for Active; 'I' for Inactive)
REMARK    1  A    between atoms: C_4  and  C_7
REMARK    2  A    between atoms: C_8  and  C_9
REMARK    3  A    between atoms: C_9  and  N_49
REMARK    4  A    between atoms: C_17  and  C_20
REMARK                            x       y       z     vdW  Elec       q    Type
REMARK                         _______ _______ _______ _____ _____    ______ ____
ROOT
ATOM      1  C   UNL     1       0.138  -0.132  -2.413  0.00  0.00    -0.059 C 
ATOM      2  C   UNL     1       1.028  -0.570  -3.578  0.00  0.00    +0.088 C 
ATOM      3  N   UNL     1       1.271  -2.017  -3.489  0.00  0.00    -0.313 N 
ATOM      4  C   UNL     1       1.925  -2.361  -2.219  0.00  0.00    +0.088 C 
ATOM      5  C   UNL     1       1.034  -1.923  -1.054  0.00  0.00    -0.059 C 
ATOM      6  C   UNL     1       2.016  -2.463  -4.568  0.00  0.00    +0.161 A 
ATOM      7  N   UNL     1       1.766  -2.348  -5.860  0.00  0.00    -0.225 NA
ATOM      8  C   UNL     1       2.603  -2.842  -6.769  0.00  0.00    +0.080 A 
ATOM      9  C   UNL     1       3.740  -3.477  -6.356  0.00  0.00    +0.076 A 
ATOM     10  S   UNL     1       3.574  -3.338  -4.582  0.00  0.00    -0.060 S 
ATOM     11  N   UNL     1       0.817  -0.464  -1.143  0.00  0.00    +0.384 N 
ATOM     12  H   UNL     1       1.727   0.011  -1.117  0.00  0.00    -0.081 HD
ENDROOT
BRANCH   8  13
ATOM     13  C   UNL     1       2.305  -2.704  -8.215  0.00  0.00    +0.001 A 
ATOM     14  C   UNL     1       1.196  -1.970  -8.634  0.00  0.00    +0.010 A 
ATOM     15  C   UNL     1       0.927  -1.840  -9.982  0.00  0.00    +0.001 A 
ATOM     16  C   UNL     1       1.748  -2.446 -10.915  0.00  0.00    +0.000 A 
ATOM     17  C   UNL     1       2.847  -3.180 -10.505  0.00  0.00    +0.001 A 
ATOM     18  C   UNL     1       3.129  -3.312  -9.161  0.00  0.00    +0.010 A 
ENDBRANCH   8  13
BRANCH  11  19
ATOM     19  C   UNL     1       0.002  -0.004   0.002  0.00  0.00    -0.051 C 
BRANCH  19  21
ATOM     20  C   UNL     1      -1.175   2.150   0.019  0.00  0.00    +0.002 C 
ATOM     21  C   UNL     1      -0.018   1.503   0.010  0.00  0.00    -0.045 C 
BRANCH  20  25
ATOM     22  C   UNL     1      -1.233   6.397   0.043  0.00  0.00    +0.000 A 
ATOM     23  C   UNL     1      -2.423   5.692   0.044  0.00  0.00    +0.001 A 
ATOM     24  C   UNL     1      -2.411   4.312   0.037  0.00  0.00    +0.008 A 
ATOM     25  C   UNL     1      -1.195   3.628   0.027  0.00  0.00    -0.025 A 
ATOM     26  C   UNL     1       0.002   4.345   0.031  0.00  0.00    +0.008 A 
ATOM     27  C   UNL     1      -0.024   5.724   0.033  0.00  0.00    +0.001 A 
ENDBRANCH  20  25
ENDBRANCH  19  21
ENDBRANCH  11  19
TORSDOF 4
