REMARK  Name = ZINC63617116
REMARK  11 active torsions:
REMARK  status: ('A' for Active; 'I' for Inactive)
REMARK    1  A    between atoms: C_1  and  C_2
REMARK    2  A    between atoms: C_5  and  C_8
REMARK    3  A    between atoms: C_8  and  C_10
REMARK    4  A    between atoms: C_8  and  N_22
REMARK    5  A    between atoms: N_12  and  C_13
REMARK    6  A    between atoms: C_16  and  C_19
REMARK    7  A    between atoms: C_19  and  C_20
REMARK    8  A    between atoms: C_19  and  C_21
REMARK    9  A    between atoms: N_22  and  C_23
REMARK   10  A    between atoms: C_24  and  C_26
REMARK   11  A    between atoms: C_26  and  C_27
REMARK                            x       y       z     vdW  Elec       q    Type
REMARK                         _______ _______ _______ _____ _____    ______ ____
ROOT
ATOM      1  C   UNL     1       0.257  -4.228  -0.157  0.00  0.00    +0.192 C 
ENDROOT
BRANCH   1   6
ATOM      2  C   UNL     1       0.362   1.550  -0.207  0.00  0.00    +0.044 C 
ATOM      3  C   UNL     1       0.335   0.043  -0.194  0.00  0.00    -0.050 A 
ATOM      4  C   UNL     1      -0.669  -0.624   0.483  0.00  0.00    +0.004 A 
ATOM      5  C   UNL     1      -0.694  -2.006   0.495  0.00  0.00    +0.006 A 
ATOM      6  C   UNL     1       0.284  -2.721  -0.171  0.00  0.00    -0.018 A 
ATOM      7  C   UNL     1       1.287  -2.054  -0.849  0.00  0.00    +0.006 A 
ATOM      8  C   UNL     1       1.310  -0.671  -0.865  0.00  0.00    +0.004 A 
ENDBRANCH   1   6
BRANCH   1   9
ATOM      9  C   UNL     1      -1.155  -4.703   0.065  0.00  0.00    +0.242 C 
ATOM     10  O   UNL     1      -1.420  -5.387   1.031  0.00  0.00    -0.273 OA
ATOM     11  N   UNL     1      -2.125  -4.368  -0.809  0.00  0.00    -0.284 N 
ATOM     12  H   UNL     1      -1.902  -3.874  -1.614  0.00  0.00    +0.155 HD
BRANCH  11  13
ATOM     13  C   UNL     1      -3.452  -4.732  -0.556  0.00  0.00    +0.033 A 
ATOM     14  C   UNL     1      -4.489  -3.890  -0.937  0.00  0.00    +0.023 A 
ATOM     15  C   UNL     1      -5.798  -4.252  -0.685  0.00  0.00    +0.006 A 
ATOM     16  C   UNL     1      -6.076  -5.451  -0.056  0.00  0.00    -0.045 A 
ATOM     17  C   UNL     1      -5.046  -6.292   0.325  0.00  0.00    +0.006 A 
ATOM     18  C   UNL     1      -3.735  -5.938   0.071  0.00  0.00    +0.023 A 
BRANCH  16  19
ATOM     19  C   UNL     1      -7.506  -5.843   0.217  0.00  0.00    +0.013 C 
ATOM     20  C   UNL     1      -7.819  -7.160  -0.497  0.00  0.00    +0.012 C 
ATOM     21  C   UNL     1      -7.708  -6.019   1.723  0.00  0.00    +0.012 C 
ENDBRANCH  16  19
ENDBRANCH  11  13
ENDBRANCH   1   9
BRANCH   1  22
ATOM     22  N   UNL     1       1.114  -4.721   0.924  0.00  0.00    -0.289 N 
ATOM     23  C   UNL     1       0.774  -4.431   2.319  0.00  0.00    +0.133 C 
ATOM     24  C   UNL     1       2.215  -5.442   0.634  0.00  0.00    +0.220 C 
ATOM     25  O   UNL     1       2.497  -5.683  -0.521  0.00  0.00    -0.275 OA
BRANCH  24  26
ATOM     26  C   UNL     1       3.097  -5.950   1.746  0.00  0.00    +0.129 C 
BRANCH  26  27
ATOM     27  C   UNL     1       4.252  -6.721   1.159  0.00  0.00    -0.033 C 
ATOM     28  C   UNL     1       5.490  -6.250   0.887  0.00  0.00    -0.001 A 
ATOM     29  C   UNL     1       6.108  -4.929   1.049  0.00  0.00    +0.010 A 
ATOM     30  C   UNL     1       7.397  -4.758   0.678  0.00  0.00    +0.001 A 
ATOM     31  C   UNL     1       8.155  -5.808   0.142  0.00  0.00    +0.002 A 
ATOM     32  C   UNL     1       7.657  -7.050  -0.037  0.00  0.00    +0.026 A 
ATOM     33  C   UNL     1       6.312  -7.343   0.320  0.00  0.00    +0.043 A 
ATOM     34  N   UNL     1       5.609  -8.447   0.244  0.00  0.00    -0.380 N 
ATOM     35  C   UNL     1       4.262  -8.180   0.761  0.00  0.00    +0.145 C 
ATOM     36  H   UNL     1       5.928  -9.298  -0.093  0.00  0.00    +0.160 HD
ENDBRANCH  26  27
ENDBRANCH  24  26
ENDBRANCH   1  22
TORSDOF 7
