REMARK  Name = ZINC40001712
REMARK  7 active torsions:
REMARK  status: ('A' for Active; 'I' for Inactive)
REMARK    1  A    between atoms: C_1  and  C_2
REMARK    2  A    between atoms: C_6  and  N_12
REMARK    3  A    between atoms: C_9  and  C_11
REMARK    4  A    between atoms: C_13  and  C_15
REMARK    5  A    between atoms: C_15  and  S_16
REMARK    6  A    between atoms: S_16  and  C_17
REMARK    7  A    between atoms: N_22  and  C_23
REMARK                            x       y       z     vdW  Elec       q    Type
REMARK                         _______ _______ _______ _____ _____    ______ ____
ROOT
ATOM      1  N   UNL     1      -3.401  -2.952  -0.543  0.00  0.00    -0.285 N 
ATOM      2  C   UNL     1      -4.418  -3.827  -0.415  0.00  0.00    +0.225 C 
ATOM      3  O   UNL     1      -5.151  -3.768   0.550  0.00  0.00    -0.275 OA
ATOM      4  H   UNL     1      -2.815  -2.999  -1.315  0.00  0.00    +0.151 HD
ENDROOT
BRANCH   1   9
ATOM      5  C   UNL     1      -0.019   1.526   0.010  0.00  0.00    +0.030 C 
ATOM      6  C   UNL     1       0.002  -0.004   0.002  0.00  0.00    +0.099 C 
ATOM      7  C   UNL     1      -1.409  -0.528   0.019  0.00  0.00    -0.011 C 
ATOM      8  C   UNL     1      -1.717  -1.674   0.651  0.00  0.00    +0.065 C 
ATOM      9  C   UNL     1      -3.181  -1.929   0.482  0.00  0.00    +0.243 C 
ATOM     10  O   UNL     1      -3.752  -0.670   0.063  0.00  0.00    -0.347 OA
ATOM     11  C   UNL     1      -2.663   0.023  -0.586  0.00  0.00    +0.146 C 
ATOM     12  C   UNL     1      -2.687  -0.251  -2.091  0.00  0.00    +0.043 C 
ATOM     13  C   UNL     1      -0.670  -2.429   1.357  0.00  0.00    +0.258 C 
ATOM     14  O   UNL     1      -0.872  -3.538   1.815  0.00  0.00    -0.269 OA
ATOM     15  N   UNL     1       0.533  -1.813   1.465  0.00  0.00    -0.247 N 
ATOM     16  N   UNL     1       0.706  -0.493   1.194  0.00  0.00    -0.233 NA
ATOM     17  H   UNL     1       1.300  -2.335   1.746  0.00  0.00    +0.169 HD
ATOM     18  H   UNL     1       1.686  -0.255   1.159  0.00  0.00    +0.145 HD
ENDBRANCH   1   9
BRANCH   2  19
ATOM     19  C   UNL     1      -4.645  -4.879  -1.470  0.00  0.00    +0.168 C 
BRANCH  19  20
ATOM     20  S   UNL     1      -6.077  -5.894  -1.013  0.00  0.00    -0.106 S 
BRANCH  20  21
ATOM     21  C   UNL     1      -6.213  -7.095  -2.366  0.00  0.00    +0.252 C 
ATOM     22  N   UNL     1      -4.970  -7.861  -2.477  0.00  0.00    -0.258 NA
ATOM     23  C   UNL     1      -4.451  -7.737  -3.623  0.00  0.00    +0.037 C 
ATOM     24  C   UNL     1      -5.338  -6.880  -4.508  0.00  0.00    +0.120 C 
ATOM     25  N   UNL     1      -6.416  -6.389  -3.642  0.00  0.00    -0.292 N 
ATOM     26  C   UNL     1      -4.474  -5.737  -5.045  0.00  0.00    +0.028 C 
ATOM     27  C   UNL     1      -3.234  -6.336  -5.715  0.00  0.00    +0.003 C 
ATOM     28  C   UNL     1      -2.355  -7.056  -4.694  0.00  0.00    +0.006 C 
ATOM     29  C   UNL     1      -3.111  -8.257  -4.103  0.00  0.00    +0.052 C 
BRANCH  25  30
ATOM     30  C   UNL     1      -7.411  -5.461  -3.957  0.00  0.00    +0.032 A 
ATOM     31  C   UNL     1      -7.458  -4.893  -5.223  0.00  0.00    +0.023 A 
ATOM     32  C   UNL     1      -8.444  -3.975  -5.531  0.00  0.00    +0.002 A 
ATOM     33  C   UNL     1      -9.383  -3.622  -4.579  0.00  0.00    +0.000 A 
ATOM     34  C   UNL     1      -9.339  -4.186  -3.317  0.00  0.00    +0.002 A 
ATOM     35  C   UNL     1      -8.360  -5.108  -3.005  0.00  0.00    +0.023 A 
ENDBRANCH  25  30
ENDBRANCH  20  21
ENDBRANCH  19  20
ENDBRANCH   2  19
TORSDOF 5
