REMARK  Name = ZINC63856955
REMARK  5 active torsions:
REMARK  status: ('A' for Active; 'I' for Inactive)
REMARK    1  A    between atoms: C_1  and  C_2
REMARK    2  A    between atoms: C_8  and  C_12
REMARK    3  A    between atoms: N_20  and  C_24
REMARK    4  A    between atoms: C_21  and  C_23
REMARK    5  A    between atoms: C_24  and  C_25
REMARK                            x       y       z     vdW  Elec       q    Type
REMARK                         _______ _______ _______ _____ _____    ______ ____
ROOT
ATOM      1  C   UNL     1       1.296  -1.619   4.209  0.00  0.00    +0.083 C 
ATOM      2  C   UNL     1       1.274  -0.479   5.201  0.00  0.00    -0.018 A 
ATOM      3  C   UNL     1       1.248   0.889   5.010  0.00  0.00    +0.006 A 
ATOM      4  C   UNL     1       1.232   1.743   6.097  0.00  0.00    +0.000 A 
ATOM      5  C   UNL     1       1.243   1.224   7.379  0.00  0.00    +0.002 A 
ATOM      6  C   UNL     1       1.269  -0.140   7.575  0.00  0.00    +0.023 A 
ATOM      7  C   UNL     1       1.285  -1.009   6.482  0.00  0.00    +0.034 A 
ATOM      8  N   UNL     1       1.312  -2.404   6.461  0.00  0.00    -0.317 N 
ATOM      9  C   UNL     1       1.323  -2.889   5.076  0.00  0.00    +0.082 C 
ATOM     10  C   UNL     1       2.596  -3.692   4.802  0.00  0.00    +0.029 C 
ENDROOT
BRANCH   1  18
ATOM     11  C   UNL     1      -0.018   1.503   0.010  0.00  0.00    +0.046 C 
ATOM     12  C   UNL     1       0.002  -0.004   0.002  0.00  0.00    -0.025 A 
ATOM     13  C   UNL     1       0.006  -0.676  -1.167  0.00  0.00    +0.005 A 
ATOM     14  C   UNL     1       0.025  -2.081  -1.233  0.00  0.00    +0.002 A 
ATOM     15  C   UNL     1       0.040  -2.860  -0.134  0.00  0.00    +0.027 A 
ATOM     16  C   UNL     1       0.037  -2.237   1.197  0.00  0.00    +0.060 A 
ATOM     17  N   UNL     1       0.049  -2.726   2.403  0.00  0.00    -0.363 N 
ATOM     18  C   UNL     1       0.039  -1.594   3.338  0.00  0.00    +0.183 C 
ATOM     19  N   UNL     1       0.019  -0.378   2.515  0.00  0.00    -0.363 N 
ATOM     20  C   UNL     1       0.024  -0.750   1.268  0.00  0.00    +0.063 A 
ATOM     21  H   UNL     1       0.008   0.536   2.841  0.00  0.00    +0.162 HD
ATOM     22  H   UNL     1       0.063  -3.666   2.641  0.00  0.00    +0.162 HD
ENDBRANCH   1  18
BRANCH   8  23
ATOM     23  C   UNL     1       1.329  -3.261   7.650  0.00  0.00    +0.200 C 
BRANCH  23  24
ATOM     24  C   UNL     1      -0.086  -3.583   8.057  0.00  0.00    +0.228 C 
ATOM     25  O   UNL     1      -1.017  -3.140   7.418  0.00  0.00    -0.274 OA
ATOM     26  N   UNL     1      -0.317  -4.363   9.132  0.00  0.00    -0.328 N 
ATOM     27  H   UNL     1       0.428  -4.717   9.643  0.00  0.00    +0.145 HD
ATOM     28  H   UNL     1      -1.227  -4.570   9.394  0.00  0.00    +0.145 HD
ENDBRANCH  23  24
ENDBRANCH   8  23
TORSDOF 3
