REMARK  Name = ZINC00870804
REMARK  4 active torsions:
REMARK  status: ('A' for Active; 'I' for Inactive)
REMARK    1  A    between atoms: C_8  and  C_10
REMARK    2  A    between atoms: C_15  and  O_27
REMARK    3  A    between atoms: C_16  and  C_21
REMARK    4  A    between atoms: C_21  and  N_46
REMARK                            x       y       z     vdW  Elec       q    Type
REMARK                         _______ _______ _______ _____ _____    ______ ____
ROOT
ATOM      1  C   UNL     1      -4.003  -1.252  -2.913  0.00  0.00    +0.092 A 
ATOM      2  C   UNL     1      -4.433  -1.500  -1.622  0.00  0.00    +0.029 A 
ATOM      3  C   UNL     1      -3.543  -1.252  -0.547  0.00  0.00    +0.019 A 
ATOM      4  C   UNL     1      -3.950  -1.493   0.774  0.00  0.00    +0.015 A 
ATOM      5  C   UNL     1      -3.091  -1.254   1.805  0.00  0.00    +0.046 A 
ATOM      6  C   UNL     1      -1.805  -0.776   1.556  0.00  0.00    +0.122 A 
ATOM      7  C   UNL     1      -1.388  -0.527   0.259  0.00  0.00    +0.020 A 
ATOM      8  C   UNL     1      -2.248  -0.764  -0.804  0.00  0.00    +0.144 A 
ATOM      9  O   UNL     1      -1.837  -0.525  -2.068  0.00  0.00    -0.421 OA
ATOM     10  C   UNL     1      -2.643  -0.744  -3.120  0.00  0.00    +0.347 A 
ATOM     11  O   UNL     1      -2.244  -0.518  -4.247  0.00  0.00    -0.244 OA
ENDROOT
BRANCH   1  19
ATOM     12  C   UNL     1      -6.483  -1.758  -8.523  0.00  0.00    +0.002 A 
ATOM     13  C   UNL     1      -7.692  -2.232  -8.033  0.00  0.00    +0.001 A 
ATOM     14  C   UNL     1      -7.856  -2.388  -6.669  0.00  0.00    +0.017 A 
ATOM     15  C   UNL     1      -6.821  -2.071  -5.824  0.00  0.00    +0.040 A 
ATOM     16  C   UNL     1      -5.577  -1.586  -6.293  0.00  0.00    +0.079 A 
ATOM     17  C   UNL     1      -5.452  -1.442  -7.695  0.00  0.00    +0.029 A 
ATOM     18  N   UNL     1      -4.659  -1.319  -5.344  0.00  0.00    -0.239 NA
ATOM     19  C   UNL     1      -4.896  -1.496  -4.061  0.00  0.00    +0.116 A 
ATOM     20  S   UNL     1      -6.573  -2.113  -4.066  0.00  0.00    -0.067 S 
ENDBRANCH   1  19
BRANCH   6  21
ATOM     21  O   UNL     1      -0.959  -0.548   2.592  0.00  0.00    -0.506 OA
ATOM     22  H   UNL     1      -1.013   0.347   2.955  0.00  0.00    +0.292 HD
ENDBRANCH   6  21
BRANCH   7  23
ATOM     23  C   UNL     1       0.002  -0.004   0.002  0.00  0.00    -0.035 C 
BRANCH  23  29
ATOM     24  C   UNL     1      -0.796   1.987  -1.123  0.00  0.00    -0.050 C 
ATOM     25  C   UNL     1      -0.841   3.516  -1.042  0.00  0.00    +0.141 C 
ATOM     26  O   UNL     1       0.495   4.026  -1.021  0.00  0.00    -0.383 OA
ATOM     27  C   UNL     1       1.281   3.538   0.069  0.00  0.00    +0.141 C 
ATOM     28  C   UNL     1       1.347   2.010   0.000  0.00  0.00    -0.050 C 
ATOM     29  N   UNL     1      -0.030   1.474   0.033  0.00  0.00    +0.385 N 
ATOM     30  H   UNL     1      -0.487   1.780   0.899  0.00  0.00    -0.081 HD
ENDBRANCH  23  29
ENDBRANCH   7  23
TORSDOF 4
