REMARK  Name = ZINC64084340
REMARK  10 active torsions:
REMARK  status: ('A' for Active; 'I' for Inactive)
REMARK    1  A    between atoms: C_1  and  C_2
REMARK    2  A    between atoms: C_2  and  C_3
REMARK    3  A    between atoms: C_2  and  C_4
REMARK    4  A    between atoms: C_4  and  C_5
REMARK    5  A    between atoms: C_5  and  C_19
REMARK    6  A    between atoms: N_8  and  C_12
REMARK    7  A    between atoms: C_12  and  C_13
REMARK    8  A    between atoms: C_13  and  C_14
REMARK    9  A    between atoms: N_22  and  C_25
REMARK   10  A    between atoms: C_25  and  C_26
REMARK                            x       y       z     vdW  Elec       q    Type
REMARK                         _______ _______ _______ _____ _____    ______ ____
ROOT
ATOM      1  C   UNL     1      -1.864  -1.631  -0.491  0.00  0.00    +0.115 C 
ATOM      2  C   UNL     1      -1.023  -2.003   0.714  0.00  0.00    +0.247 C 
ATOM      3  O   UNL     1      -1.240  -1.720   1.873  0.00  0.00    -0.273 OA
ATOM      4  N   UNL     1       0.015  -2.713   0.229  0.00  0.00    -0.224 N 
ATOM      5  C   UNL     1      -0.053  -2.840  -1.101  0.00  0.00    +0.309 C 
ATOM      6  O   UNL     1       0.770  -3.439  -1.765  0.00  0.00    -0.252 OA
ATOM      7  N   UNL     1      -1.134  -2.232  -1.621  0.00  0.00    -0.285 N 
ATOM      8  H   UNL     1      -1.384  -2.195  -2.558  0.00  0.00    +0.151 HD
ENDROOT
BRANCH   1   9
ATOM      9  C   UNL     1      -3.267  -2.231  -0.378  0.00  0.00    +0.018 C 
ATOM     10  C   UNL     1      -4.019  -1.559   0.775  0.00  0.00    -0.013 C 
ATOM     11  C   UNL     1      -5.392  -2.217   0.934  0.00  0.00    -0.078 C 
ATOM     12  N   UNL     1      -5.222  -3.646   1.224  0.00  0.00    +0.381 N 
ATOM     13  C   UNL     1      -4.566  -4.310   0.092  0.00  0.00    -0.078 C 
ATOM     14  C   UNL     1      -3.162  -3.733  -0.099  0.00  0.00    -0.013 C 
ATOM     15  H   UNL     1      -4.655  -3.755   2.052  0.00  0.00    -0.082 HD
BRANCH  12  16
ATOM     16  C   UNL     1      -6.538  -4.257   1.453  0.00  0.00    -0.050 C 
BRANCH  16  17
ATOM     17  C   UNL     1      -7.158  -3.674   2.725  0.00  0.00    +0.086 C 
ATOM     18  C   UNL     1      -8.441  -4.401   3.060  0.00  0.00    +0.005 C 
ATOM     19  C   UNL     1      -8.250  -4.958   4.277  0.00  0.00    -0.004 A 
ATOM     20  C   UNL     1      -9.107  -5.778   5.141  0.00  0.00    +0.010 A 
ATOM     21  C   UNL     1      -8.627  -6.198   6.334  0.00  0.00    +0.001 A 
ATOM     22  C   UNL     1      -7.334  -5.870   6.764  0.00  0.00    +0.002 A 
ATOM     23  C   UNL     1      -6.488  -5.120   6.027  0.00  0.00    +0.026 A 
ATOM     24  C   UNL     1      -6.889  -4.625   4.755  0.00  0.00    +0.043 A 
ATOM     25  N   UNL     1      -6.262  -3.889   3.867  0.00  0.00    -0.380 N 
ATOM     26  H   UNL     1      -5.359  -3.545   3.951  0.00  0.00    +0.160 HD
ENDBRANCH  16  17
ENDBRANCH  12  16
ENDBRANCH   1   9
BRANCH   1  27
ATOM     27  C   UNL     1      -1.941  -0.111  -0.646  0.00  0.00    +0.038 C 
BRANCH  27  29
ATOM     28  C   UNL     1       0.185   0.061  -1.948  0.00  0.00    +0.007 C 
ATOM     29  C   UNL     1      -0.526   0.472  -0.657  0.00  0.00    -0.015 C 
ATOM     30  C   UNL     1      -0.603   1.998  -0.582  0.00  0.00    +0.007 C 
ENDBRANCH  27  29
ENDBRANCH   1  27
BRANCH   4  31
ATOM     31  C   UNL     1       1.085  -3.275   1.056  0.00  0.00    +0.123 C 
BRANCH  31  32
ATOM     32  C   UNL     1       0.699  -4.687   1.500  0.00  0.00    +0.062 C 
BRANCH  32  33
ATOM     33  C   UNL     1       1.800  -5.266   2.351  0.00  0.00    -0.009 A 
ATOM     34  C   UNL     1       1.963  -5.202   3.695  0.00  0.00    +0.011 A 
ATOM     35  C   UNL     1       3.062  -5.814   4.267  0.00  0.00    +0.008 A 
ATOM     36  C   UNL     1       3.945  -6.460   3.466  0.00  0.00    +0.045 A 
ATOM     37  S   UNL     1       3.224  -6.219   1.851  0.00  0.00    -0.102 S 
ENDBRANCH  32  33
ENDBRANCH  31  32
ENDBRANCH   4  31
TORSDOF 8
