REMARK  Name = ZINC65605849
REMARK  4 active torsions:
REMARK  status: ('A' for Active; 'I' for Inactive)
REMARK    1  A    between atoms: C_1  and  C_2
REMARK    2  A    between atoms: C_3  and  N_8
REMARK    3  A    between atoms: C_9  and  C_11
REMARK    4  A    between atoms: C_17  and  C_19
REMARK                            x       y       z     vdW  Elec       q    Type
REMARK                         _______ _______ _______ _____ _____    ______ ____
ROOT
ATOM      1  C   UNL     1      -0.073  -0.746  -4.964  0.00  0.00    +0.162 C 
ATOM      2  C   UNL     1       1.117   0.164  -5.333  0.00  0.00    +0.033 C 
ATOM      3  C   UNL     1       2.080  -0.804  -6.070  0.00  0.00    +0.021 C 
ATOM      4  C   UNL     1       1.083  -1.726  -6.816  0.00  0.00    +0.108 C 
ATOM      5  N   UNL     1      -0.050  -1.894  -5.882  0.00  0.00    -0.289 N 
ATOM      6  C   UNL     1      -0.916  -2.927  -5.871  0.00  0.00    +0.222 C 
ATOM      7  O   UNL     1      -1.764  -2.998  -5.007  0.00  0.00    -0.275 OA
ENDROOT
BRANCH   6   8
ATOM      8  C   UNL     1      -0.831  -3.993  -6.933  0.00  0.00    +0.048 C 
ATOM      9  C   UNL     1       0.435  -4.824  -6.721  0.00  0.00    +0.019 C 
ATOM     10  C   UNL     1       0.521  -5.907  -7.799  0.00  0.00    -0.009 C 
ATOM     11  C   UNL     1      -0.706  -6.815  -7.708  0.00  0.00    +0.007 C 
ATOM     12  C   UNL     1      -1.973  -5.984  -7.920  0.00  0.00    -0.009 C 
ATOM     13  C   UNL     1      -2.059  -4.901  -6.843  0.00  0.00    +0.019 C 
ATOM     14  C   UNL     1      -1.926  -5.326  -9.301  0.00  0.00    +0.007 C 
ATOM     15  C   UNL     1      -0.698  -4.417  -9.392  0.00  0.00    -0.009 C 
ATOM     16  C   UNL     1       0.569  -5.249  -9.180  0.00  0.00    +0.007 C 
ATOM     17  C   UNL     1      -0.784  -3.335  -8.314  0.00  0.00    +0.019 C 
ENDBRANCH   6   8
BRANCH   1  19
ATOM     18  N   UNL     1       0.080  -0.335  -2.530  0.00  0.00    -0.281 N 
ATOM     19  C   UNL     1       0.070  -1.224  -3.542  0.00  0.00    +0.238 C 
ATOM     20  O   UNL     1       0.175  -2.410  -3.308  0.00  0.00    -0.273 OA
ATOM     21  H   UNL     1      -0.004   0.613  -2.716  0.00  0.00    +0.155 HD
BRANCH  18  24
ATOM     22  C   UNL     1       0.131   1.531  -0.036  0.00  0.00    +0.069 C 
ATOM     23  C   UNL     1       0.240   0.028  -0.057  0.00  0.00    +0.081 A 
ATOM     24  C   UNL     1       0.214  -0.781  -1.201  0.00  0.00    +0.074 A 
ATOM     25  C   UNL     1       0.339  -2.072  -0.801  0.00  0.00    +0.128 A 
ATOM     26  N   UNL     1       0.442  -2.073   0.553  0.00  0.00    -0.283 N 
ATOM     27  H   UNL     1       0.543  -2.856   1.118  0.00  0.00    +0.188 HD
ATOM     28  N   UNL     1       0.382  -0.744   0.990  0.00  0.00    -0.177 NA
ENDBRANCH  18  24
ENDBRANCH   1  19
TORSDOF 3
