REMARK  Name = ZINC40170520
REMARK  8 active torsions:
REMARK  status: ('A' for Active; 'I' for Inactive)
REMARK    1  A    between atoms: C_1  and  C_2
REMARK    2  A    between atoms: C_4  and  C_33
REMARK    3  A    between atoms: C_8  and  C_32
REMARK    4  A    between atoms: C_12  and  S_15
REMARK    5  A    between atoms: S_15  and  C_16
REMARK    6  A    between atoms: C_16  and  C_18
REMARK    7  A    between atoms: C_16  and  C_19
REMARK    8  A    between atoms: C_19  and  C_21
REMARK                            x       y       z     vdW  Elec       q    Type
REMARK                         _______ _______ _______ _____ _____    ______ ____
ROOT
ATOM      1  S   UNL     1       2.050  -4.721  -2.278  0.00  0.00    -0.075 S 
ENDROOT
BRANCH   1  13
ATOM      2  C   UNL     1      -0.018   1.502   0.010  0.00  0.00    +0.044 C 
ATOM      3  C   UNL     1       0.002  -0.004   0.002  0.00  0.00    -0.050 A 
ATOM      4  C   UNL     1      -0.039  -0.695  -1.196  0.00  0.00    +0.008 A 
ATOM      5  C   UNL     1       0.027  -2.076  -1.217  0.00  0.00    -0.026 A 
ATOM      6  C   UNL     1       0.210  -2.789  -0.045  0.00  0.00    +0.061 A 
ATOM      7  C   UNL     1       0.069  -2.094   1.181  0.00  0.00    +0.002 A 
ATOM      8  C   UNL     1       0.023  -0.698   1.192  0.00  0.00    +0.013 A 
ATOM      9  C   UNL     1      -0.094  -2.861   2.418  0.00  0.00    -0.038 A 
ATOM     10  C   UNL     1      -0.041  -4.212   2.365  0.00  0.00    +0.052 A 
ATOM     11  C   UNL     1       0.250  -4.863   1.149  0.00  0.00    +0.162 A 
ATOM     12  N   UNL     1       0.502  -4.139  -0.003  0.00  0.00    -0.270 N 
ATOM     13  C   UNL     1       1.082  -5.044  -0.841  0.00  0.00    +0.197 A 
ATOM     14  N   UNL     1       0.836  -6.244  -0.351  0.00  0.00    -0.122 NA
ATOM     15  N   UNL     1       0.309  -6.138   0.812  0.00  0.00    -0.129 NA
ATOM     16  C   UNL     1      -0.321  -2.174   3.740  0.00  0.00    +0.044 C 
ATOM     17  C   UNL     1      -0.188  -2.769  -2.540  0.00  0.00    +0.046 C 
ENDBRANCH   1  13
BRANCH   1  18
ATOM     18  C   UNL     1       2.489  -6.372  -2.891  0.00  0.00    +0.122 C 
ATOM     19  C   UNL     1       3.386  -7.072  -1.869  0.00  0.00    +0.028 C 
BRANCH  18  20
ATOM     20  C   UNL     1       3.223  -6.242  -4.200  0.00  0.00    +0.176 C 
ATOM     21  O   UNL     1       3.824  -5.221  -4.460  0.00  0.00    -0.291 OA
BRANCH  20  22
ATOM     22  C   UNL     1       3.211  -7.352  -5.162  0.00  0.00    +0.020 A 
ATOM     23  C   UNL     1       2.513  -8.530  -4.866  0.00  0.00    +0.015 A 
ATOM     24  C   UNL     1       2.501  -9.570  -5.768  0.00  0.00    +0.048 A 
ATOM     25  C   UNL     1       3.181  -9.456  -6.972  0.00  0.00    +0.142 A 
ATOM     26  C   UNL     1       3.881  -8.284  -7.275  0.00  0.00    +0.076 A 
ATOM     27  C   UNL     1       3.893  -7.234  -6.379  0.00  0.00    +0.038 A 
ATOM     28  N   UNL     1       4.562  -8.189  -8.497  0.00  0.00    -0.280 N 
ATOM     29  C   UNL     1       4.276  -9.075  -9.476  0.00  0.00    +0.255 C 
ATOM     30  O   UNL     1       4.873  -9.031 -10.530  0.00  0.00    -0.272 OA
ATOM     31  C   UNL     1       3.212 -10.120  -9.251  0.00  0.00    +0.325 C 
ATOM     32  O   UNL     1       3.174 -10.477  -7.867  0.00  0.00    -0.481 OA
ATOM     33  H   UNL     1       5.227  -7.497  -8.638  0.00  0.00    +0.155 HD
ENDBRANCH  20  22
ENDBRANCH  18  20
ENDBRANCH   1  18
TORSDOF 4
