REMARK  Name = ZINC64006917
REMARK  10 active torsions:
REMARK  status: ('A' for Active; 'I' for Inactive)
REMARK    1  A    between atoms: C_1  and  C_2
REMARK    2  A    between atoms: C_7  and  C_12
REMARK    3  A    between atoms: N_17  and  C_18
REMARK    4  A    between atoms: C_18  and  C_19
REMARK    5  A    between atoms: C_22  and  S_29
REMARK    6  A    between atoms: N_24  and  C_25
REMARK    7  A    between atoms: C_25  and  C_26
REMARK    8  A    between atoms: C_26  and  C_27
REMARK    9  A    between atoms: C_26  and  C_28
REMARK   10  A    between atoms: S_29  and  C_32
REMARK                            x       y       z     vdW  Elec       q    Type
REMARK                         _______ _______ _______ _____ _____    ______ ____
ROOT
ATOM      1  C   UNL     1       1.109  -5.552   0.576  0.00  0.00    +0.099 C 
ATOM      2  C   UNL     1       1.873  -5.007  -0.649  0.00  0.00    +0.024 C 
ATOM      3  C   UNL     1       2.532  -6.280  -1.244  0.00  0.00    +0.017 C 
ATOM      4  C   UNL     1       1.446  -7.351  -0.973  0.00  0.00    +0.085 C 
ATOM      5  N   UNL     1       0.881  -6.991   0.349  0.00  0.00    -0.294 NA
ENDROOT
BRANCH   1  12
ATOM      6  C   UNL     1      -1.317   0.701  -1.446  0.00  0.00    +0.044 C 
ATOM      7  C   UNL     1      -1.232  -0.788  -1.236  0.00  0.00    -0.048 A 
ATOM      8  C   UNL     1      -1.792  -1.640  -2.205  0.00  0.00    +0.005 A 
ATOM      9  C   UNL     1      -1.762  -2.983  -2.096  0.00  0.00    +0.027 A 
ATOM     10  C   UNL     1      -1.122  -3.602  -0.927  0.00  0.00    +0.060 A 
ATOM     11  N   UNL     1      -0.949  -4.840  -0.565  0.00  0.00    -0.362 N 
ATOM     12  C   UNL     1      -0.232  -4.828   0.717  0.00  0.00    +0.191 C 
ATOM     13  N   UNL     1      -0.011  -3.417   1.054  0.00  0.00    -0.362 N 
ATOM     14  C   UNL     1      -0.529  -2.701   0.098  0.00  0.00    +0.060 A 
ATOM     15  C   UNL     1      -0.618  -1.252  -0.129  0.00  0.00    +0.030 A 
ATOM     16  H   UNL     1      -1.239  -5.627  -1.052  0.00  0.00    +0.162 HD
ATOM     17  H   UNL     1       0.438  -3.079   1.845  0.00  0.00    +0.162 HD
ENDBRANCH   1  12
BRANCH   5  18
ATOM     18  C   UNL     1      -0.551  -7.314   0.416  0.00  0.00    +0.109 C 
BRANCH  18  19
ATOM     19  C   UNL     1      -0.724  -8.821   0.615  0.00  0.00    +0.115 C 
ATOM     20  C   UNL     1      -2.191  -9.189   0.615  0.00  0.00    +0.101 C 
ATOM     21  N   UNL     1      -2.430  -9.999   1.573  0.00  0.00    -0.254 NA
ATOM     22  C   UNL     1      -1.207 -10.289   2.329  0.00  0.00    +0.318 C 
ATOM     23  N   UNL     1      -0.241  -9.226   1.959  0.00  0.00    -0.254 NA
BRANCH  22  24
ATOM     24  S   UNL     1      -1.545 -10.236   4.111  0.00  0.00    +0.003 S 
ATOM     25  O   UNL     1      -2.623 -11.119   4.390  0.00  0.00    -0.171 OA
ATOM     26  O   UNL     1      -0.317 -10.403   4.806  0.00  0.00    -0.171 OA
ATOM     27  C   UNL     1      -2.119  -8.534   4.359  0.00  0.00    +0.198 C 
ENDBRANCH  22  24
BRANCH  23  28
ATOM     28  C   UNL     1       1.126  -9.758   1.889  0.00  0.00    +0.091 C 
BRANCH  28  29
ATOM     29  C   UNL     1       2.120  -8.663   2.279  0.00  0.00    -0.003 C 
ATOM     30  C   UNL     1       1.809  -8.173   3.695  0.00  0.00    +0.008 C 
ATOM     31  C   UNL     1       3.542  -9.226   2.236  0.00  0.00    +0.008 C 
ENDBRANCH  28  29
ENDBRANCH  23  28
ENDBRANCH  18  19
ENDBRANCH   5  18
TORSDOF 6
