REMARK  Name = ZINC02140140
REMARK  9 active torsions:
REMARK  status: ('A' for Active; 'I' for Inactive)
REMARK    1  A    between atoms: C_1  and  O_2
REMARK    2  A    between atoms: O_2  and  C_3
REMARK    3  A    between atoms: C_6  and  C_18
REMARK    4  A    between atoms: C_8  and  C_9
REMARK    5  A    between atoms: C_9  and  O_10
REMARK    6  A    between atoms: O_10  and  C_11
REMARK    7  A    between atoms: C_31  and  C_33
REMARK    8  A    between atoms: C_33  and  O_35
REMARK    9  A    between atoms: O_35  and  C_36
REMARK                            x       y       z     vdW  Elec       q    Type
REMARK                         _______ _______ _______ _____ _____    ______ ____
ROOT
ATOM      1  C   UNL     1      -1.120   7.122   1.857  0.00  0.00    +0.008 C 
ATOM      2  C   UNL     1      -2.260   7.646   1.016  0.00  0.00    +0.010 A 
ATOM      3  C   UNL     1      -2.170   8.774   0.275  0.00  0.00    -0.021 A 
ATOM      4  C   UNL     1      -3.443   8.954  -0.386  0.00  0.00    +0.003 A 
ATOM      5  C   UNL     1      -3.930   9.927  -1.264  0.00  0.00    +0.010 A 
ATOM      6  C   UNL     1      -5.222   9.778  -1.703  0.00  0.00    +0.001 A 
ATOM      7  C   UNL     1      -6.018   8.717  -1.302  0.00  0.00    +0.002 A 
ATOM      8  C   UNL     1      -5.562   7.739  -0.435  0.00  0.00    +0.026 A 
ATOM      9  C   UNL     1      -4.254   7.864   0.027  0.00  0.00    +0.047 A 
ATOM     10  N   UNL     1      -3.504   7.096   0.872  0.00  0.00    -0.359 N 
ATOM     11  H   UNL     1      -3.809   6.284   1.305  0.00  0.00    +0.166 HD
ATOM     12  C   UNL     1      -0.930   9.629   0.209  0.00  0.00    +0.033 C 
ATOM     13  C   UNL     1      -0.019   9.234   1.379  0.00  0.00    +0.045 C 
ATOM     14  N   UNL     1       0.136   7.766   1.413  0.00  0.00    +0.396 N 
ATOM     15  H   UNL     1       0.373   7.429   0.472  0.00  0.00    -0.083 HD
ATOM     16  H   UNL     1       0.890   7.520   2.064  0.00  0.00    -0.083 HD
ENDROOT
BRANCH   1  20
ATOM     17  C   UNL     1      -0.787   2.892   1.346  0.00  0.00    +0.126 A 
ATOM     18  C   UNL     1      -0.253   3.751   0.396  0.00  0.00    +0.046 A 
ATOM     19  C   UNL     1      -0.368   5.117   0.561  0.00  0.00    +0.006 A 
ATOM     20  C   UNL     1      -1.003   5.630   1.677  0.00  0.00    -0.055 A 
ATOM     21  C   UNL     1      -1.531   4.776   2.627  0.00  0.00    +0.013 A 
ATOM     22  C   UNL     1      -1.425   3.409   2.465  0.00  0.00    +0.031 A 
BRANCH  17  24
ATOM     23  C   UNL     1      -0.013   1.086   0.008  0.00  0.00    +0.277 C 
ATOM     24  O   UNL     1      -0.682   1.547   1.184  0.00  0.00    -0.495 OA
ENDBRANCH  17  24
BRANCH  22  25
ATOM     25  C   UNL     1      -2.000   2.479   3.502  0.00  0.00    +0.268 C 
BRANCH  25  26
ATOM     26  O   UNL     1      -2.599   3.245   4.548  0.00  0.00    -0.484 OA
BRANCH  26  27
ATOM     27  C   UNL     1      -3.169   2.553   5.571  0.00  0.00    +0.156 A 
ATOM     28  C   UNL     1      -3.156   1.167   5.564  0.00  0.00    +0.048 A 
ATOM     29  C   UNL     1      -3.731   0.466   6.607  0.00  0.00    +0.004 A 
ATOM     30  C   UNL     1      -4.329   1.145   7.652  0.00  0.00    +0.003 A 
ATOM     31  C   UNL     1      -4.349   2.528   7.661  0.00  0.00    +0.042 A 
ATOM     32  C   UNL     1      -3.770   3.235   6.622  0.00  0.00    +0.165 A 
ATOM     33  F   UNL     1      -3.789   4.585   6.630  0.00  0.00    -0.202 F 
ENDBRANCH  26  27
ENDBRANCH  25  26
ENDBRANCH  22  25
ENDBRANCH   1  20
BRANCH  13  34
ATOM     34  C   UNL     1       1.337   9.867   1.196  0.00  0.00    +0.293 C 
ATOM     35  O   UNL     1       2.253   9.216   0.753  0.00  0.00    -0.253 OA
BRANCH  34  36
ATOM     36  O   UNL     1       1.527  11.154   1.527  0.00  0.00    -0.469 OA
ATOM     37  C   UNL     1       2.858  11.697   1.324  0.00  0.00    +0.280 C 
ENDBRANCH  34  36
ENDBRANCH  13  34
TORSDOF 7
