REMARK  Name = ZINC36570361
REMARK  14 active torsions:
REMARK  status: ('A' for Active; 'I' for Inactive)
REMARK    1  A    between atoms: C_1  and  C_2
REMARK    2  A    between atoms: C_2  and  C_3
REMARK    3  A    between atoms: C_3  and  N_4
REMARK    4  A    between atoms: N_4  and  C_5
REMARK    5  A    between atoms: C_5  and  C_7
REMARK    6  A    between atoms: C_5  and  C_15
REMARK    7  A    between atoms: C_10  and  C_14
REMARK    8  A    between atoms: C_12  and  C_13
REMARK    9  A    between atoms: N_17  and  C_18
REMARK   10  A    between atoms: C_18  and  S_19
REMARK   11  A    between atoms: S_19  and  C_22
REMARK   12  A    between atoms: C_25  and  C_28
REMARK   13  A    between atoms: C_29  and  C_31
REMARK   14  A    between atoms: C_32  and  C_33
REMARK                            x       y       z     vdW  Elec       q    Type
REMARK                         _______ _______ _______ _____ _____    ______ ____
ROOT
ATOM      1  C   UNL     1      -0.361  -2.789  -1.739  0.00  0.00    +0.193 C 
ENDROOT
BRANCH   1   2
ATOM      2  C   UNL     1      -0.456  -2.368  -3.183  0.00  0.00    -0.015 A 
ATOM      3  C   UNL     1      -1.491  -1.551  -3.598  0.00  0.00    +0.006 A 
ATOM      4  C   UNL     1      -1.578  -1.165  -4.923  0.00  0.00    +0.004 A 
ATOM      5  C   UNL     1      -0.629  -1.596  -5.832  0.00  0.00    -0.050 A 
ATOM      6  C   UNL     1       0.406  -2.411  -5.416  0.00  0.00    +0.007 A 
ATOM      7  C   UNL     1       0.495  -2.794  -4.090  0.00  0.00    -0.045 A 
ATOM      8  C   UNL     1       1.627  -3.679  -3.636  0.00  0.00    +0.044 C 
ATOM      9  C   UNL     1      -0.725  -1.176  -7.276  0.00  0.00    +0.044 C 
ENDBRANCH   1   2
BRANCH   1  10
ATOM     10  C   UNL     1      -1.694  -2.579  -1.066  0.00  0.00    +0.239 C 
ATOM     11  O   UNL     1      -1.859  -1.628  -0.332  0.00  0.00    -0.273 OA
ATOM     12  N   UNL     1      -2.701  -3.448  -1.281  0.00  0.00    -0.294 N 
ATOM     13  H   UNL     1      -2.548  -4.247  -1.809  0.00  0.00    +0.150 HD
BRANCH  12  14
ATOM     14  C   UNL     1      -4.027  -3.186  -0.716  0.00  0.00    +0.278 C 
BRANCH  14  15
ATOM     15  S   UNL     1      -5.058  -2.353  -1.955  0.00  0.00    +0.013 S 
ATOM     16  O   UNL     1      -6.368  -2.148  -1.444  0.00  0.00    -0.168 OA
ATOM     17  O   UNL     1      -4.338  -1.283  -2.552  0.00  0.00    -0.168 OA
BRANCH  15  18
ATOM     18  C   UNL     1      -5.259  -3.536  -3.245  0.00  0.00    +0.090 A 
ATOM     19  C   UNL     1      -4.350  -3.584  -4.286  0.00  0.00    +0.027 A 
ATOM     20  C   UNL     1      -4.508  -4.512  -5.299  0.00  0.00    +0.005 A 
ATOM     21  C   UNL     1      -5.574  -5.391  -5.271  0.00  0.00    -0.050 A 
ATOM     22  C   UNL     1      -6.482  -5.344  -4.229  0.00  0.00    +0.005 A 
ATOM     23  C   UNL     1      -6.322  -4.419  -3.215  0.00  0.00    +0.027 A 
ATOM     24  C   UNL     1      -5.746  -6.402  -6.375  0.00  0.00    +0.044 C 
ENDBRANCH  15  18
ENDBRANCH  14  15
ENDBRANCH  12  14
ENDBRANCH   1  10
BRANCH   1  25
ATOM     25  N   UNL     1       0.659  -1.985  -1.062  0.00  0.00    -0.275 N 
ATOM     26  C   UNL     1       1.000  -2.263   0.212  0.00  0.00    +0.292 C 
ATOM     27  O   UNL     1       0.460  -3.181   0.800  0.00  0.00    -0.260 OA
BRANCH  26  28
ATOM     28  C   UNL     1       1.998  -1.478   0.874  0.00  0.00    -0.003 C 
ATOM     29  C   UNL     1       2.817  -0.834   1.416  0.00  0.00    -0.057 C 
BRANCH  29  30
ATOM     30  C   UNL     1       3.814  -0.048   2.078  0.00  0.00    +0.025 A 
ATOM     31  C   UNL     1       4.433   1.012   1.408  0.00  0.00    +0.017 A 
ATOM     32  C   UNL     1       5.393   1.764   2.052  0.00  0.00    +0.001 A 
ATOM     33  C   UNL     1       5.744   1.472   3.358  0.00  0.00    +0.000 A 
ATOM     34  C   UNL     1       5.137   0.424   4.028  0.00  0.00    +0.001 A 
ATOM     35  C   UNL     1       4.171  -0.333   3.400  0.00  0.00    +0.017 A 
ENDBRANCH  29  30
ENDBRANCH  26  28
BRANCH  25  36
ATOM     36  C   UNL     1       1.310  -0.880  -1.770  0.00  0.00    +0.109 C 
BRANCH  36  38
ATOM     37  C   UNL     1       1.326   1.597  -2.098  0.00  0.00    +0.005 C 
ATOM     38  C   UNL     1       0.576   0.426  -1.460  0.00  0.00    +0.016 C 
ENDBRANCH  36  38
ENDBRANCH  25  36
ENDBRANCH   1  25
TORSDOF 10
