REMARK  Name = ZINC21076278
REMARK  11 active torsions:
REMARK  status: ('A' for Active; 'I' for Inactive)
REMARK    1  A    between atoms: C_1  and  C_2
REMARK    2  A    between atoms: C_2  and  N_3
REMARK    3  A    between atoms: N_3  and  C_4
REMARK    4  A    between atoms: N_3  and  C_6
REMARK    5  A    between atoms: C_4  and  C_5
REMARK    6  A    between atoms: C_9  and  C_12
REMARK    7  A    between atoms: N_13  and  N_14
REMARK    8  A    between atoms: C_17  and  S_20
REMARK    9  A    between atoms: S_20  and  C_21
REMARK   10  A    between atoms: C_21  and  C_22
REMARK   11  A    between atoms: C_28  and  C_32
REMARK                            x       y       z     vdW  Elec       q    Type
REMARK                         _______ _______ _______ _____ _____    ______ ____
ROOT
ATOM      1  N   UNL     1      -4.857   0.866   0.022  0.00  0.00    -0.205 N 
ATOM      2  C   UNL     1      -6.061   1.556   0.034  0.00  0.00    +0.232 A 
ATOM      3  N   UNL     1      -7.308   0.995   0.035  0.00  0.00    -0.186 NA
ATOM      4  C   UNL     1      -8.226   2.006   0.048  0.00  0.00    +0.210 A 
ATOM      5  N   UNL     1      -7.574   3.145   0.055  0.00  0.00    -0.144 NA
ATOM      6  N   UNL     1      -6.203   2.859   0.051  0.00  0.00    -0.245 N 
ATOM      7  H   UNL     1      -4.853  -0.234   0.013  0.00  0.00    +0.177 HD
ATOM      8  H   UNL     1      -5.315   3.509   0.059  0.00  0.00    +0.192 HD
ENDROOT
BRANCH   1  10
ATOM      9  C   UNL     1      -2.519   0.926   0.012  0.00  0.00    +0.138 C 
ATOM     10  N   UNL     1      -3.646   1.571   0.022  0.00  0.00    -0.188 NA
BRANCH   9  14
ATOM     11  C   UNL     1       1.150   3.063   0.005  0.00  0.00    +0.030 A 
ATOM     12  C   UNL     1       1.157   1.672  -0.006  0.00  0.00    +0.024 A 
ATOM     13  C   UNL     1      -0.031   0.975   0.000  0.00  0.00    +0.011 A 
ATOM     14  C   UNL     1      -1.246   1.668   0.011  0.00  0.00    -0.005 A 
ATOM     15  C   UNL     1      -1.249   3.066   0.029  0.00  0.00    +0.011 A 
ATOM     16  C   UNL     1      -0.056   3.755   0.023  0.00  0.00    +0.024 A 
BRANCH  11  17
ATOM     17  N   UNL     1       2.356   3.765  -0.002  0.00  0.00    -0.330 N 
BRANCH  17  19
ATOM     18  C   UNL     1       2.363   5.729   1.456  0.00  0.00    +0.024 C 
ATOM     19  C   UNL     1       2.350   5.230   0.010  0.00  0.00    +0.102 C 
ENDBRANCH  17  19
BRANCH  17  20
ATOM     20  C   UNL     1       3.627   3.038  -0.020  0.00  0.00    +0.102 C 
ATOM     21  C   UNL     1       4.055   2.796  -1.469  0.00  0.00    +0.024 C 
ENDBRANCH  17  20
ENDBRANCH  11  17
ENDBRANCH   9  14
ENDBRANCH   1  10
BRANCH   4  22
ATOM     22  S   UNL     1      -9.977   1.815   0.056  0.00  0.00    -0.077 S 
BRANCH  22  23
ATOM     23  C   UNL     1     -10.604   3.518   0.073  0.00  0.00    +0.151 C 
BRANCH  23  24
ATOM     24  C   UNL     1     -12.111   3.498   0.081  0.00  0.00    +0.118 A 
ATOM     25  N   UNL     1     -12.885   3.484   1.200  0.00  0.00    -0.232 NA
ATOM     26  H   UNL     1     -12.402   3.518  -1.981  0.00  0.00    +0.167 HD
ATOM     27  C   UNL     1     -14.202   3.460   0.788  0.00  0.00    +0.089 A 
ATOM     28  C   UNL     1     -15.422   3.431   1.450  0.00  0.00    +0.030 A 
ATOM     29  C   UNL     1     -16.593   3.413   0.724  0.00  0.00    +0.005 A 
ATOM     30  C   UNL     1     -16.560   3.422  -0.664  0.00  0.00    -0.048 A 
ATOM     31  C   UNL     1     -15.370   3.449  -1.332  0.00  0.00    +0.031 A 
ATOM     32  C   UNL     1     -14.169   3.469  -0.617  0.00  0.00    +0.066 A 
ATOM     33  N   UNL     1     -12.862   3.497  -0.982  0.00  0.00    -0.341 N 
ATOM     34  C   UNL     1     -17.852   3.401  -1.440  0.00  0.00    +0.044 C 
ENDBRANCH  23  24
ENDBRANCH  22  23
ENDBRANCH   4  22
TORSDOF 8
