REMARK  Name = ZINC49402158
REMARK  7 active torsions:
REMARK  status: ('A' for Active; 'I' for Inactive)
REMARK    1  A    between atoms: C_1  and  C_2
REMARK    2  A    between atoms: C_4  and  C_8
REMARK    3  A    between atoms: C_5  and  C_7
REMARK    4  A    between atoms: C_8  and  C_10
REMARK    5  A    between atoms: C_8  and  N_11
REMARK    6  A    between atoms: C_12  and  C_14
REMARK    7  A    between atoms: C_16  and  C_20
REMARK                            x       y       z     vdW  Elec       q    Type
REMARK                         _______ _______ _______ _____ _____    ______ ____
ROOT
ATOM      1  N   UNL     1      -2.786  -3.079   0.471  0.00  0.00    -0.303 N 
ATOM      2  C   UNL     1      -3.542  -4.045   1.030  0.00  0.00    +0.263 C 
ATOM      3  O   UNL     1      -3.104  -5.175   1.135  0.00  0.00    -0.268 OA
ATOM      4  H   UNL     1      -3.135  -2.178   0.387  0.00  0.00    +0.150 HD
ENDROOT
BRANCH   2   5
ATOM      5  C   UNL     1      -4.896  -3.732   1.512  0.00  0.00    +0.134 A 
ATOM      6  C   UNL     1      -5.788  -4.606   2.110  0.00  0.00    +0.070 A 
ATOM      7  C   UNL     1      -6.926  -3.843   2.385  0.00  0.00    +0.074 A 
ATOM      8  N   UNL     1      -6.699  -2.622   1.974  0.00  0.00    -0.177 NA
ATOM      9  N   UNL     1      -5.524  -2.519   1.465  0.00  0.00    -0.271 N 
ATOM     10  H   UNL     1      -5.142  -1.705   1.100  0.00  0.00    +0.189 HD
ATOM     11  C   UNL     1      -8.190  -4.338   3.039  0.00  0.00    +0.068 C 
ATOM     12 BR   UNL     1      -5.523  -6.442   2.477  0.00  0.00    -0.046 Br
ENDBRANCH   2   5
BRANCH   1  13
ATOM     13  C   UNL     1      -1.437  -3.390  -0.009  0.00  0.00    +0.104 C 
ATOM     14  C   UNL     1      -1.518  -3.946  -1.432  0.00  0.00    +0.033 C 
BRANCH  13  18
ATOM     15  C   UNL     1      -0.018   1.503   0.010  0.00  0.00    +0.086 C 
ATOM     16  C   UNL     1       0.002  -0.004   0.002  0.00  0.00    +0.103 A 
ATOM     17  C   UNL     1      -1.078  -0.805   0.003  0.00  0.00    +0.050 A 
ATOM     18  C   UNL     1      -0.601  -2.136  -0.007  0.00  0.00    +0.013 A 
ATOM     19  C   UNL     1       0.742  -2.069  -0.013  0.00  0.00    +0.107 A 
ATOM     20  O   UNL     1       1.102  -0.775  -0.013  0.00  0.00    -0.465 OA
ATOM     21  C   UNL     1       1.684  -3.245  -0.023  0.00  0.00    +0.086 C 
ENDBRANCH  13  18
ENDBRANCH   1  13
TORSDOF 3
