REMARK  Name = ZINC36922773
REMARK  5 active torsions:
REMARK  status: ('A' for Active; 'I' for Inactive)
REMARK    1  A    between atoms: C_1  and  C_2
REMARK    2  A    between atoms: C_5  and  N_12
REMARK    3  A    between atoms: N_12  and  C_13
REMARK    4  A    between atoms: C_13  and  C_15
REMARK    5  A    between atoms: C_13  and  C_16
REMARK                            x       y       z     vdW  Elec       q    Type
REMARK                         _______ _______ _______ _____ _____    ______ ____
ROOT
ATOM      1  C   UNL     1       4.585  -1.157   1.876  0.00  0.00    +0.046 C 
ATOM      2  C   UNL     1       3.405  -1.928   1.343  0.00  0.00    -0.023 A 
ATOM      3  C   UNL     1       2.777  -1.512   0.208  0.00  0.00    +0.027 A 
ATOM      4  C   UNL     1       1.685  -2.204  -0.306  0.00  0.00    +0.063 A 
ATOM      5  C   UNL     1       1.209  -3.335   0.327  0.00  0.00    +0.056 A 
ATOM      6  C   UNL     1       1.841  -3.786   1.504  0.00  0.00    +0.023 A 
ATOM      7  C   UNL     1       2.956  -3.077   2.015  0.00  0.00    +0.076 A 
ATOM      8  N   UNL     1       3.562  -3.505   3.128  0.00  0.00    -0.255 NA
ATOM      9  C   UNL     1       3.148  -4.577   3.760  0.00  0.00    +0.111 A 
ATOM     10  C   UNL     1       2.063  -5.321   3.307  0.00  0.00    +0.020 A 
ATOM     11  C   UNL     1       1.391  -4.932   2.182  0.00  0.00    +0.013 A 
ATOM     12 CL   UNL     1       0.915  -1.640  -1.756  0.00  0.00    -0.082 Cl
ENDROOT
BRANCH   5  13
ATOM     13  N   UNL     1       0.115  -4.023  -0.193  0.00  0.00    -0.333 N 
ATOM     14  H   UNL     1      -0.757  -3.932   0.223  0.00  0.00    +0.147 HD
BRANCH  13  15
ATOM     15  C   UNL     1       0.281  -4.885  -1.366  0.00  0.00    +0.133 C 
ATOM     16  C   UNL     1      -1.024  -4.915  -2.165  0.00  0.00    +0.036 C 
BRANCH  15  17
ATOM     17  C   UNL     1       0.627  -6.282  -0.918  0.00  0.00    +0.125 A 
ATOM     18  C   UNL     1       1.526  -7.094  -1.501  0.00  0.00    +0.046 A 
ATOM     19  C   UNL     1       1.532  -8.298  -0.760  0.00  0.00    +0.041 A 
ATOM     20  C   UNL     1       0.635  -8.149   0.232  0.00  0.00    +0.195 A 
ATOM     21  O   UNL     1       0.095  -6.924   0.135  0.00  0.00    -0.466 OA
ENDBRANCH  15  17
ENDBRANCH  13  15
ENDBRANCH   5  13
TORSDOF 3
