REMARK  Name = ZINC54227715
REMARK  8 active torsions:
REMARK  status: ('A' for Active; 'I' for Inactive)
REMARK    1  A    between atoms: C_1  and  C_2
REMARK    2  A    between atoms: C_7  and  N_8
REMARK    3  A    between atoms: C_9  and  C_11
REMARK    4  A    between atoms: C_11  and  N_12
REMARK    5  A    between atoms: C_15  and  C_19
REMARK    6  A    between atoms: C_15  and  C_20
REMARK    7  A    between atoms: C_20  and  C_21
REMARK    8  A    between atoms: C_20  and  C_22
REMARK                            x       y       z     vdW  Elec       q    Type
REMARK                         _______ _______ _______ _____ _____    ______ ____
ROOT
ATOM      1  C   UNL     1      -0.167   0.054   4.882  0.00  0.00    +0.214 C 
ENDROOT
BRANCH   1   2
ATOM      2  N   UNL     1      -0.240  -0.903   5.989  0.00  0.00    -0.215 N 
ATOM      3  C   UNL     1      -1.390  -1.416   6.471  0.00  0.00    +0.247 C 
ATOM      4  O   UNL     1      -2.515  -1.182   6.085  0.00  0.00    -0.273 OA
ATOM      5  C   UNL     1      -0.983  -2.349   7.595  0.00  0.00    +0.112 C 
ATOM      6  N   UNL     1       0.486  -2.243   7.618  0.00  0.00    -0.285 N 
ATOM      7  C   UNL     1       0.825  -1.381   6.642  0.00  0.00    +0.310 C 
ATOM      8  O   UNL     1       1.971  -1.068   6.385  0.00  0.00    -0.252 OA
ATOM      9  C   UNL     1      -1.577  -1.880   8.925  0.00  0.00    +0.042 C 
ATOM     10  H   UNL     1       1.092  -2.706   8.217  0.00  0.00    +0.151 HD
BRANCH   5  11
ATOM     11  C   UNL     1      -1.414  -3.784   7.287  0.00  0.00    +0.015 C 
ATOM     12  C   UNL     1      -1.104  -4.679   8.488  0.00  0.00    +0.010 C 
ATOM     13  C   UNL     1      -2.917  -3.815   7.003  0.00  0.00    +0.010 C 
ENDBRANCH   5  11
ENDBRANCH   1   2
BRANCH   1  15
ATOM     14  N   UNL     1       0.026  -0.014   2.417  0.00  0.00    -0.284 N 
ATOM     15  C   UNL     1      -0.056  -0.694   3.578  0.00  0.00    +0.235 C 
ATOM     16  O   UNL     1      -0.040  -1.906   3.574  0.00  0.00    -0.274 OA
ATOM     17  H   UNL     1       0.079   0.955   2.425  0.00  0.00    +0.155 HD
BRANCH  14  24
ATOM     18  C   UNL     1      -1.265   1.183   0.182  0.00  0.00    +0.046 C 
ATOM     19  C   UNL     1      -0.584  -0.158   0.085  0.00  0.00    -0.028 A 
ATOM     20  C   UNL     1      -0.570  -0.840  -1.116  0.00  0.00    +0.020 A 
ATOM     21  C   UNL     1       0.055  -2.071  -1.206  0.00  0.00    +0.018 A 
ATOM     22  C   UNL     1       0.666  -2.623  -0.094  0.00  0.00    +0.017 A 
ATOM     23  C   UNL     1       0.655  -1.945   1.109  0.00  0.00    +0.024 A 
ATOM     24  C   UNL     1       0.034  -0.706   1.201  0.00  0.00    +0.036 A 
ATOM     25 BR   UNL     1       0.072  -3.002  -2.852  0.00  0.00    -0.050 Br
ENDBRANCH  14  24
ENDBRANCH   1  15
TORSDOF 4
