REMARK  Name = ZINC12570165
REMARK  9 active torsions:
REMARK  status: ('A' for Active; 'I' for Inactive)
REMARK    1  A    between atoms: C_1  and  C_2
REMARK    2  A    between atoms: C_2  and  C_4
REMARK    3  A    between atoms: C_2  and  O_24
REMARK    4  A    between atoms: N_6  and  C_7
REMARK    5  A    between atoms: C_7  and  N_9
REMARK    6  A    between atoms: N_9  and  N_10
REMARK    7  A    between atoms: C_11  and  C_13
REMARK    8  A    between atoms: C_13  and  C_14
REMARK    9  A    between atoms: O_24  and  C_25
REMARK                            x       y       z     vdW  Elec       q    Type
REMARK                         _______ _______ _______ _____ _____    ______ ____
ROOT
ATOM      1  C   UNL     1       3.576   1.919   0.485  0.00  0.00    +0.153 C 
ATOM      2  S   UNL     1       5.079   1.129   0.703  0.00  0.00    -0.017 S 
ENDROOT
BRANCH   1   5
ATOM      3  C   UNL     1       4.686   3.957   0.222  0.00  0.00    +0.259 C 
ATOM      4  O   UNL     1       5.750   3.397   0.377  0.00  0.00    -0.271 OA
ATOM      5  N   UNL     1       3.539   3.249   0.267  0.00  0.00    -0.264 N 
ATOM      6  H   UNL     1       2.688   3.697   0.144  0.00  0.00    +0.157 HD
BRANCH   3   8
ATOM      7  C   UNL     1       3.945   6.133   1.152  0.00  0.00    +0.062 C 
ATOM      8  C   UNL     1       4.644   5.443  -0.021  0.00  0.00    +0.256 C 
BRANCH   8   9
ATOM      9  O   UNL     1       5.978   5.943  -0.141  0.00  0.00    -0.478 OA
BRANCH   9  10
ATOM     10  C   UNL     1       6.145   7.091  -0.850  0.00  0.00    +0.140 A 
ATOM     11  C   UNL     1       5.040   7.782  -1.323  0.00  0.00    +0.048 A 
ATOM     12  C   UNL     1       5.211   8.951  -2.040  0.00  0.00    +0.023 A 
ATOM     13  C   UNL     1       6.485   9.427  -2.295  0.00  0.00    +0.043 A 
ATOM     14  C   UNL     1       7.590   8.736  -1.829  0.00  0.00    +0.043 A 
ATOM     15  C   UNL     1       7.422   7.569  -1.107  0.00  0.00    +0.084 A 
ATOM     16 CL   UNL     1       8.808   6.703  -0.522  0.00  0.00    -0.080 Cl
ATOM     17 CL   UNL     1       6.698  10.892  -3.202  0.00  0.00    -0.083 Cl
ENDBRANCH   9  10
ENDBRANCH   8   9
ENDBRANCH   3   8
ENDBRANCH   1   5
BRANCH   1  18
ATOM     18  N   UNL     1       2.430   1.212   0.530  0.00  0.00    -0.246 N 
ATOM     19  H   UNL     1       2.456   0.255   0.686  0.00  0.00    +0.172 HD
BRANCH  18  20
ATOM     20  N   UNL     1       1.200   1.859   0.351  0.00  0.00    -0.235 N 
ATOM     21  C   UNL     1       0.054   1.151   0.397  0.00  0.00    +0.233 C 
ATOM     22  O   UNL     1       0.087  -0.045   0.592  0.00  0.00    -0.274 OA
ATOM     23  H   UNL     1       1.173   2.816   0.195  0.00  0.00    +0.173 HD
BRANCH  21  24
ATOM     24  C   UNL     1      -1.269   1.846   0.198  0.00  0.00    +0.133 C 
BRANCH  24  25
ATOM     25  C   UNL     1      -2.385   0.837   0.288  0.00  0.00    -0.031 A 
ATOM     26  C   UNL     1      -2.885   0.267  -0.842  0.00  0.00    +0.005 A 
ATOM     27  C   UNL     1      -3.916  -0.667  -0.778  0.00  0.00    +0.001 A 
ATOM     28  C   UNL     1      -4.454  -1.038   0.416  0.00  0.00    +0.008 A 
ATOM     29  C   UNL     1      -3.963  -0.471   1.605  0.00  0.00    -0.018 A 
ATOM     30  C   UNL     1      -2.911   0.476   1.540  0.00  0.00    -0.014 A 
ATOM     31  C   UNL     1      -2.423   1.046   2.729  0.00  0.00    +0.009 A 
ATOM     32  C   UNL     1      -2.961   0.677   3.923  0.00  0.00    +0.001 A 
ATOM     33  C   UNL     1      -3.993  -0.258   3.987  0.00  0.00    +0.001 A 
ATOM     34  C   UNL     1      -4.493  -0.828   2.857  0.00  0.00    +0.008 A 
ENDBRANCH  24  25
ENDBRANCH  21  24
ENDBRANCH  18  20
ENDBRANCH   1  18
TORSDOF 8
