REMARK  Name = ZINC39658975
REMARK  7 active torsions:
REMARK  status: ('A' for Active; 'I' for Inactive)
REMARK    1  A    between atoms: C_1  and  C_2
REMARK    2  A    between atoms: C_2  and  C_37
REMARK    3  A    between atoms: C_5  and  C_8
REMARK    4  A    between atoms: C_8  and  N_9
REMARK    5  A    between atoms: C_10  and  C_12
REMARK    6  A    between atoms: C_23  and  C_25
REMARK    7  A    between atoms: C_31  and  C_33
REMARK                            x       y       z     vdW  Elec       q    Type
REMARK                         _______ _______ _______ _____ _____    ______ ____
ROOT
ATOM      1  C   UNL     1       3.741  -1.479   5.261  0.00  0.00    +0.100 C 
ATOM      2  C   UNL     1       4.780  -0.336   5.248  0.00  0.00    +0.121 C 
ATOM      3  N   UNL     1       5.551  -0.515   6.500  0.00  0.00    -0.299 N 
ATOM      4  C   UNL     1       5.708  -1.984   6.629  0.00  0.00    +0.115 C 
ATOM      5  C   UNL     1       4.354  -2.559   6.168  0.00  0.00    -0.004 C 
ATOM      6  C   UNL     1       4.570  -3.849   5.383  0.00  0.00    -0.010 C 
ATOM      7  C   UNL     1       5.126  -4.925   6.319  0.00  0.00    -0.082 C 
ATOM      8  N   UNL     1       4.183  -5.152   7.422  0.00  0.00    +0.379 N 
ATOM      9  C   UNL     1       4.053  -3.932   8.228  0.00  0.00    -0.082 C 
ATOM     10  C   UNL     1       3.452  -2.814   7.372  0.00  0.00    -0.010 C 
ATOM     11  C   UNL     1       6.006   0.441   7.335  0.00  0.00    +0.236 C 
ATOM     12  O   UNL     1       6.628   0.132   8.329  0.00  0.00    -0.274 OA
ATOM     13  H   UNL     1       3.281  -5.402   7.045  0.00  0.00    -0.086 HD
ATOM     14  H   UNL     1       4.522  -5.903   8.003  0.00  0.00    -0.086 HD
ENDROOT
BRANCH  11  15
ATOM     15  C   UNL     1       5.742   1.893   7.032  0.00  0.00    +0.162 C 
ATOM     16  C   UNL     1       6.752   2.402   5.981  0.00  0.00    +0.033 C 
ATOM     17  C   UNL     1       7.067   3.840   6.470  0.00  0.00    +0.021 C 
ATOM     18  C   UNL     1       7.024   3.662   8.008  0.00  0.00    +0.109 C 
ATOM     19  N   UNL     1       5.929   2.699   8.247  0.00  0.00    -0.283 N 
ATOM     20  C   UNL     1       5.220   2.578   9.386  0.00  0.00    +0.320 C 
ATOM     21  O   UNL     1       4.340   1.748   9.468  0.00  0.00    -0.266 OA
BRANCH  20  22
ATOM     22  C   UNL     1       5.520   3.475  10.560  0.00  0.00    +0.470 C 
ATOM     23  F   UNL     1       4.659   3.163  11.617  0.00  0.00    -0.162 F 
ATOM     24  F   UNL     1       6.845   3.285  10.965  0.00  0.00    -0.162 F 
ATOM     25  F   UNL     1       5.334   4.811  10.185  0.00  0.00    -0.162 F 
ENDBRANCH  20  22
ENDBRANCH  11  15
BRANCH   1  27
ATOM     26  N   UNL     1       2.351  -2.562   3.526  0.00  0.00    -0.312 N 
ATOM     27  C   UNL     1       3.535  -2.018   3.869  0.00  0.00    +0.218 C 
ATOM     28  O   UNL     1       4.435  -1.962   3.058  0.00  0.00    -0.275 OA
ATOM     29  H   UNL     1       1.632  -2.607   4.174  0.00  0.00    +0.149 HD
BRANCH  26  30
ATOM     30  C   UNL     1       2.151  -3.086   2.172  0.00  0.00    +0.138 C 
BRANCH  30  35
ATOM     31  C   UNL     1      -1.827  -5.240   2.895  0.00  0.00    +0.074 C 
ATOM     32  C   UNL     1      -0.490  -5.567   2.227  0.00  0.00    +0.165 C 
ATOM     33  O   UNL     1      -0.541  -5.200   0.842  0.00  0.00    -0.347 OA
ATOM     34  C   UNL     1       0.483  -4.208   0.624  0.00  0.00    +0.196 C 
ATOM     35  C   UNL     1       0.732  -3.643   2.045  0.00  0.00    +0.164 C 
ATOM     36  O   UNL     1       0.564  -4.825   2.865  0.00  0.00    -0.342 OA
ATOM     37  C   UNL     1      -0.208  -7.066   2.348  0.00  0.00    +0.074 C 
ENDBRANCH  30  35
ENDBRANCH  26  30
ENDBRANCH   1  27
TORSDOF 5
