REMARK  Name = ZINC12954980
REMARK  11 active torsions:
REMARK  status: ('A' for Active; 'I' for Inactive)
REMARK    1  A    between atoms: C_1  and  C_2
REMARK    2  A    between atoms: C_5  and  S_8
REMARK    3  A    between atoms: S_8  and  N_11
REMARK    4  A    between atoms: N_14  and  C_15
REMARK    5  A    between atoms: C_15  and  C_16
REMARK    6  A    between atoms: C_17  and  O_23
REMARK    7  A    between atoms: O_23  and  C_24
REMARK    8  A    between atoms: C_27  and  C_33
REMARK    9  A    between atoms: C_30  and  C_32
REMARK   10  A    between atoms: C_33  and  C_34
REMARK   11  A    between atoms: C_33  and  C_35
REMARK                            x       y       z     vdW  Elec       q    Type
REMARK                         _______ _______ _______ _____ _____    ______ ____
ROOT
ATOM      1  C   UNL     1       2.556  -2.870  -0.051  0.00  0.00    +0.030 A 
ATOM      2  C   UNL     1       3.186  -3.072  -1.271  0.00  0.00    +0.127 A 
ATOM      3  C   UNL     1       4.401  -3.738  -1.320  0.00  0.00    +0.046 A 
ATOM      4  C   UNL     1       4.978  -4.209  -0.155  0.00  0.00    +0.005 A 
ATOM      5  C   UNL     1       4.347  -4.011   1.058  0.00  0.00    +0.020 A 
ATOM      6  C   UNL     1       3.136  -3.342   1.111  0.00  0.00    +0.049 A 
ATOM      7 CL   UNL     1       2.346  -3.096   2.637  0.00  0.00    -0.083 Cl
ENDROOT
BRANCH   1   8
ATOM      8  C   UNL     1       1.239  -2.140   0.005  0.00  0.00    +0.146 C 
BRANCH   8  12
ATOM      9  N   UNL     1       0.665   1.468   0.412  0.00  0.00    -0.169 N 
ATOM     10  C   UNL     1       0.442   0.149   0.255  0.00  0.00    +0.319 C 
ATOM     11  O   UNL     1      -0.697  -0.271   0.182  0.00  0.00    -0.251 OA
ATOM     12  N   UNL     1       1.481  -0.706   0.177  0.00  0.00    -0.294 N 
ATOM     13  H   UNL     1       1.574   1.803   0.470  0.00  0.00    +0.178 HD
ATOM     14  H   UNL     1       2.390  -0.371   0.235  0.00  0.00    +0.151 HD
BRANCH   9  15
ATOM     15  S   UNL     1      -0.611   2.519   0.501  0.00  0.00    +0.076 S 
ATOM     16  O   UNL     1      -0.059   3.815   0.692  0.00  0.00    -0.150 OA
ATOM     17  O   UNL     1      -1.468   2.210  -0.590  0.00  0.00    -0.150 OA
BRANCH  15  22
ATOM     18  C   UNL     1      -3.671   1.191   5.529  0.00  0.00    +0.044 C 
ATOM     19  C   UNL     1      -2.907   1.524   4.273  0.00  0.00    -0.050 A 
ATOM     20  C   UNL     1      -1.879   2.447   4.313  0.00  0.00    +0.005 A 
ATOM     21  C   UNL     1      -1.178   2.751   3.161  0.00  0.00    +0.029 A 
ATOM     22  C   UNL     1      -1.505   2.132   1.969  0.00  0.00    +0.109 A 
ATOM     23  C   UNL     1      -2.537   1.212   1.928  0.00  0.00    +0.029 A 
ATOM     24  C   UNL     1      -3.235   0.905   3.081  0.00  0.00    +0.005 A 
ENDBRANCH  15  22
ENDBRANCH   9  15
ENDBRANCH   8  12
ENDBRANCH   1   8
BRANCH   2  25
ATOM     25  O   UNL     1       2.615  -2.614  -2.416  0.00  0.00    -0.486 OA
BRANCH  25  26
ATOM     26  C   UNL     1       3.373  -2.751  -3.619  0.00  0.00    +0.208 C 
ATOM     27  C   UNL     1       3.181  -4.161  -4.232  0.00  0.00    +0.082 C 
ATOM     28  C   UNL     1       2.539  -3.851  -5.618  0.00  0.00    +0.076 C 
ATOM     29  C   UNL     1       3.696  -3.272  -6.487  0.00  0.00    +0.038 C 
ATOM     30  C   UNL     1       3.905  -1.860  -5.882  0.00  0.00    +0.041 C 
ATOM     31  C   UNL     1       2.817  -1.812  -4.732  0.00  0.00    +0.104 C 
ATOM     32  O   UNL     1       1.761  -2.648  -5.309  0.00  0.00    -0.363 OA
ATOM     33  C   UNL     1       2.397  -0.417  -4.265  0.00  0.00    +0.045 C 
BRANCH  28  34
ATOM     34  C   UNL     1       1.757  -5.003  -6.251  0.00  0.00    +0.015 C 
ATOM     35  C   UNL     1       1.294  -4.596  -7.652  0.00  0.00    +0.010 C 
ATOM     36  C   UNL     1       2.656  -6.237  -6.349  0.00  0.00    +0.010 C 
ENDBRANCH  28  34
ENDBRANCH  25  26
ENDBRANCH   2  25
TORSDOF 7
