REMARK  Name = ZINC36597699
REMARK  14 active torsions:
REMARK  status: ('A' for Active; 'I' for Inactive)
REMARK    1  A    between atoms: C_1  and  C_2
REMARK    2  A    between atoms: C_7  and  C_8
REMARK    3  A    between atoms: C_8  and  C_10
REMARK    4  A    between atoms: C_8  and  N_17
REMARK    5  A    between atoms: N_12  and  C_13
REMARK    6  A    between atoms: C_13  and  C_14
REMARK    7  A    between atoms: C_13  and  C_15
REMARK    8  A    between atoms: C_13  and  C_16
REMARK    9  A    between atoms: N_17  and  C_18
REMARK   10  A    between atoms: C_18  and  C_19
REMARK   11  A    between atoms: C_22  and  C_24
REMARK   12  A    between atoms: C_25  and  C_27
REMARK   13  A    between atoms: C_31  and  O_34
REMARK   14  A    between atoms: C_32  and  O_33
REMARK                            x       y       z     vdW  Elec       q    Type
REMARK                         _______ _______ _______ _____ _____    ______ ____
ROOT
ATOM      1  N   UNL     1       0.304   0.330   3.367  0.00  0.00    -0.275 N 
ATOM      2  C   UNL     1      -0.208   0.867   4.493  0.00  0.00    +0.252 C 
ATOM      3  O   UNL     1      -1.364   1.243   4.516  0.00  0.00    -0.270 OA
ENDROOT
BRANCH   2   4
ATOM      4  C   UNL     1       0.635   0.997   5.697  0.00  0.00    +0.082 A 
ATOM      5  C   UNL     1       1.346  -0.105   6.180  0.00  0.00    +0.017 A 
ATOM      6  C   UNL     1       2.132   0.021   7.304  0.00  0.00    +0.005 A 
ATOM      7  C   UNL     1       2.223   1.237   7.961  0.00  0.00    +0.049 A 
ATOM      8  C   UNL     1       1.525   2.338   7.495  0.00  0.00    +0.159 A 
ATOM      9  C   UNL     1       0.732   2.227   6.357  0.00  0.00    +0.171 A 
BRANCH   9  10
ATOM     10  O   UNL     1       0.050   3.306   5.894  0.00  0.00    -0.503 OA
ATOM     11  H   UNL     1      -0.837   3.401   6.266  0.00  0.00    +0.292 HD
ENDBRANCH   9  10
BRANCH   8  12
ATOM     12  O   UNL     1       1.620   3.528   8.146  0.00  0.00    -0.503 OA
ATOM     13  H   UNL     1       2.336   4.095   7.828  0.00  0.00    +0.292 HD
ENDBRANCH   8  12
ENDBRANCH   2   4
BRANCH   1  14
ATOM     14  C   UNL     1      -0.482   0.334   2.131  0.00  0.00    +0.193 C 
BRANCH  14  21
ATOM     15  C   UNL     1      -2.187  -1.582   3.462  0.00  0.00    +0.044 C 
ATOM     16  C   UNL     1      -1.408  -1.989   2.238  0.00  0.00    -0.045 A 
ATOM     17  C   UNL     1      -1.513  -3.278   1.748  0.00  0.00    +0.004 A 
ATOM     18  C   UNL     1      -0.799  -3.651   0.625  0.00  0.00    +0.000 A 
ATOM     19  C   UNL     1       0.021  -2.736  -0.009  0.00  0.00    +0.000 A 
ATOM     20  C   UNL     1       0.126  -1.447   0.480  0.00  0.00    +0.006 A 
ATOM     21  C   UNL     1      -0.592  -1.073   1.601  0.00  0.00    -0.015 A 
ENDBRANCH  14  21
BRANCH  14  22
ATOM     22  C   UNL     1       0.198   1.205   1.106  0.00  0.00    +0.239 C 
ATOM     23  O   UNL     1       1.297   1.665   1.334  0.00  0.00    -0.273 OA
ATOM     24  N   UNL     1      -0.415   1.473  -0.064  0.00  0.00    -0.309 N 
ATOM     25  H   UNL     1      -1.322   1.165  -0.218  0.00  0.00    +0.149 HD
BRANCH  24  26
ATOM     26  C   UNL     1       0.288   2.230  -1.103  0.00  0.00    +0.026 C 
ATOM     27  C   UNL     1       1.554   1.477  -1.513  0.00  0.00    +0.031 C 
ATOM     28  C   UNL     1      -0.625   2.395  -2.319  0.00  0.00    +0.031 C 
ATOM     29  C   UNL     1       0.668   3.609  -0.560  0.00  0.00    +0.031 C 
ENDBRANCH  24  26
ENDBRANCH  14  22
ENDBRANCH   1  14
BRANCH   1  30
ATOM     30  C   UNL     1       1.646  -0.258   3.380  0.00  0.00    +0.183 C 
BRANCH  30  31
ATOM     31  C   UNL     1       1.536  -1.760   3.426  0.00  0.00    +0.122 A 
ATOM     32  C   UNL     1       1.646  -2.590   2.373  0.00  0.00    +0.046 A 
ATOM     33  C   UNL     1       1.478  -3.904   2.867  0.00  0.00    +0.045 A 
ATOM     34  C   UNL     1       1.276  -3.799   4.192  0.00  0.00    +0.102 A 
ATOM     35  O   UNL     1       1.317  -2.498   4.527  0.00  0.00    -0.463 OA
ATOM     36  C   UNL     1       1.046  -4.946   5.143  0.00  0.00    +0.086 C 
ENDBRANCH  30  31
ENDBRANCH   1  30
TORSDOF 9
