REMARK  Name = ZINC38779410
REMARK  9 active torsions:
REMARK  status: ('A' for Active; 'I' for Inactive)
REMARK    1  A    between atoms: C_1  and  C_2
REMARK    2  A    between atoms: C_2  and  C_3
REMARK    3  A    between atoms: N_10  and  N_11
REMARK    4  A    between atoms: N_11  and  C_12
REMARK    5  A    between atoms: C_22  and  C_25
REMARK    6  A    between atoms: C_28  and  O_33
REMARK    7  A    between atoms: C_29  and  O_31
REMARK    8  A    between atoms: O_31  and  C_32
REMARK    9  A    between atoms: O_33  and  C_34
REMARK                            x       y       z     vdW  Elec       q    Type
REMARK                         _______ _______ _______ _____ _____    ______ ____
ROOT
ATOM      1  C   UNL     1      -1.412  -0.526   0.013  0.00  0.00    -0.047 A 
ATOM      2  C   UNL     1      -2.050  -0.766   1.217  0.00  0.00    +0.007 A 
ATOM      3  C   UNL     1      -3.347  -1.243   1.243  0.00  0.00    +0.046 A 
ATOM      4  C   UNL     1      -4.023  -1.486   0.057  0.00  0.00    +0.130 A 
ATOM      5  C   UNL     1      -3.374  -1.245  -1.161  0.00  0.00    +0.040 A 
ATOM      6  C   UNL     1      -2.070  -0.758  -1.179  0.00  0.00    +0.017 A 
ATOM      7  C   UNL     1      -4.096  -1.518  -2.424  0.00  0.00    +0.073 C 
ATOM      8  N   UNL     1      -3.486  -1.537  -3.569  0.00  0.00    -0.188 NA
ATOM      9  C   UNL     1      -5.588  -1.774  -2.309  0.00  0.00    +0.107 C 
ATOM     10  C   UNL     1      -5.804  -2.637  -1.057  0.00  0.00    +0.210 C 
ATOM     11  O   UNL     1      -5.297  -1.948   0.086  0.00  0.00    -0.483 OA
ENDROOT
BRANCH  10  12
ATOM     12  C   UNL     1      -7.277  -2.899  -0.874  0.00  0.00    -0.003 A 
ATOM     13  C   UNL     1      -8.085  -1.929  -0.310  0.00  0.00    +0.011 A 
ATOM     14  C   UNL     1      -9.437  -2.164  -0.140  0.00  0.00    +0.050 A 
ATOM     15  C   UNL     1      -9.984  -3.374  -0.536  0.00  0.00    +0.162 A 
ATOM     16  C   UNL     1      -9.171  -4.350  -1.105  0.00  0.00    +0.162 A 
ATOM     17  C   UNL     1      -7.818  -4.106  -1.276  0.00  0.00    +0.056 A 
BRANCH  16  18
ATOM     18  O   UNL     1      -9.704  -5.539  -1.495  0.00  0.00    -0.491 OA
ATOM     19  C   UNL     1      -8.809  -6.493  -2.071  0.00  0.00    +0.277 C 
ENDBRANCH  16  18
BRANCH  15  20
ATOM     20  O   UNL     1     -11.314  -3.607  -0.370  0.00  0.00    -0.491 OA
ATOM     21  C   UNL     1     -12.087  -2.561   0.221  0.00  0.00    +0.277 C 
ENDBRANCH  15  20
ENDBRANCH  10  12
BRANCH   1  23
ATOM     22  C   UNL     1      -0.019   1.526   0.010  0.00  0.00    +0.009 C 
ATOM     23  C   UNL     1       0.002  -0.004   0.002  0.00  0.00    +0.032 C 
ENDBRANCH   1  23
BRANCH   8  24
ATOM     24  N   UNL     1      -4.206  -1.798  -4.742  0.00  0.00    -0.229 N 
ATOM     25  H   UNL     1      -5.161  -1.965  -4.698  0.00  0.00    +0.172 HD
BRANCH  24  26
ATOM     26  C   UNL     1      -3.518  -1.820  -6.035  0.00  0.00    +0.283 C 
ATOM     27  N   UNL     1      -3.587  -0.495  -6.665  0.00  0.00    -0.347 N 
ATOM     28  C   UNL     1      -4.217  -0.633  -7.796  0.00  0.00    +0.061 A 
ATOM     29  C   UNL     1      -4.590   0.316  -8.854  0.00  0.00    +0.027 A 
ATOM     30  C   UNL     1      -5.257  -0.125  -9.939  0.00  0.00    +0.002 A 
ATOM     31  C   UNL     1      -5.620  -1.473 -10.109  0.00  0.00    +0.002 A 
ATOM     32  C   UNL     1      -5.327  -2.425  -9.200  0.00  0.00    +0.027 A 
ATOM     33  C   UNL     1      -4.601  -2.060  -7.976  0.00  0.00    +0.061 A 
ATOM     34  N   UNL     1      -4.192  -2.749  -6.950  0.00  0.00    -0.347 N 
ATOM     35  H   UNL     1      -3.229   0.331  -6.305  0.00  0.00    +0.163 HD
ATOM     36  H   UNL     1      -4.312  -3.702  -6.815  0.00  0.00    +0.163 HD
ENDBRANCH  24  26
ENDBRANCH   8  24
TORSDOF 6
