REMARK  Name = ZINC01056206
REMARK  3 active torsions:
REMARK  status: ('A' for Active; 'I' for Inactive)
REMARK    1  A    between atoms: C_4  and  C_7
REMARK    2  A    between atoms: C_10  and  C_24
REMARK    3  A    between atoms: C_14  and  N_16
REMARK                            x       y       z     vdW  Elec       q    Type
REMARK                         _______ _______ _______ _____ _____    ______ ____
ROOT
ATOM      1  C   UNL     1       2.840   6.386   0.737  0.00  0.00    +0.056 C 
ATOM      2  C   UNL     1       2.259   5.046   1.195  0.00  0.00    +0.047 C 
ATOM      3  C   UNL     1       2.088   4.141   0.004  0.00  0.00    -0.030 C 
ATOM      4  C   UNL     1       2.910   4.236  -1.073  0.00  0.00    +0.053 C 
ATOM      5  C   UNL     1       3.936   5.185  -1.129  0.00  0.00    +0.181 C 
ATOM      6  O   UNL     1       4.649   5.243  -2.112  0.00  0.00    -0.290 OA
ATOM      7  C   UNL     1       4.169   6.132   0.019  0.00  0.00    +0.187 C 
ENDROOT
BRANCH   7   8
ATOM      8  N   UNL     1       5.126   5.538   0.957  0.00  0.00    -0.239 N 
ATOM      9  C   UNL     1       5.250   4.236   1.264  0.00  0.00    +0.222 A 
ATOM     10  N   UNL     1       6.216   4.115   2.138  0.00  0.00    -0.195 NA
ATOM     11  C   UNL     1       6.730   5.314   2.412  0.00  0.00    +0.328 A 
ATOM     12  N   UNL     1       6.099   6.217   1.708  0.00  0.00    -0.125 NA
ATOM     13  N   UNL     1       7.839   5.579   3.355  0.00  0.00    +0.096 N 
ATOM     14  O   UNL     1       8.361   4.657   3.957  0.00  0.00    -0.123 OA
ATOM     15  O   UNL     1       8.231   6.719   3.530  0.00  0.00    -0.123 OA
ENDBRANCH   7   8
BRANCH   1  19
ATOM     16  C   UNL     1       3.505   8.891   4.133  0.00  0.00    +0.000 A 
ATOM     17  C   UNL     1       2.647   9.300   3.130  0.00  0.00    +0.000 A 
ATOM     18  C   UNL     1       2.432   8.490   2.031  0.00  0.00    +0.004 A 
ATOM     19  C   UNL     1       3.075   7.270   1.935  0.00  0.00    -0.042 A 
ATOM     20  C   UNL     1       3.929   6.858   2.941  0.00  0.00    +0.004 A 
ATOM     21  C   UNL     1       4.147   7.671   4.038  0.00  0.00    +0.000 A 
ENDBRANCH   1  19
BRANCH   3  22
ATOM     22  C   UNL     1       1.059   3.173   0.009  0.00  0.00    +0.015 A 
ATOM     23  C   UNL     1       1.161   1.785   0.001  0.00  0.00    +0.016 A 
ATOM     24  C   UNL     1      -0.013   1.076   0.008  0.00  0.00    +0.008 A 
ATOM     25  C   UNL     1      -1.196   1.748   0.017  0.00  0.00    +0.046 A 
ATOM     26  S   UNL     1      -0.709   3.411   0.026  0.00  0.00    -0.097 S 
ENDBRANCH   3  22
TORSDOF 3
