REMARK  Name = ZINC09124847
REMARK  9 active torsions:
REMARK  status: ('A' for Active; 'I' for Inactive)
REMARK    1  A    between atoms: C_1  and  C_2
REMARK    2  A    between atoms: C_2  and  N_51
REMARK    3  A    between atoms: C_3  and  C_4
REMARK    4  A    between atoms: C_3  and  N_51
REMARK    5  A    between atoms: C_16  and  C_17
REMARK    6  A    between atoms: C_16  and  N_51
REMARK    7  A    between atoms: N_19  and  C_20
REMARK    8  A    between atoms: C_20  and  C_22
REMARK    9  A    between atoms: C_20  and  C_23
REMARK                            x       y       z     vdW  Elec       q    Type
REMARK                         _______ _______ _______ _____ _____    ______ ____
ROOT
ATOM      1  N   UNL     1       3.055   1.766  -0.080  0.00  0.00    +0.390 N 
ATOM      2  H   UNL     1       2.754   2.418   0.653  0.00  0.00    -0.081 HD
ENDROOT
BRANCH   1   4
ATOM      3  C   UNL     1       4.255   3.729  -0.908  0.00  0.00    -0.017 C 
ATOM      4  C   UNL     1       3.385   2.533  -1.300  0.00  0.00    -0.081 C 
ENDBRANCH   1   4
BRANCH   1   5
ATOM      5  C   UNL     1       4.247   1.030   0.391  0.00  0.00    -0.003 C 
BRANCH   5   6
ATOM      6  C   UNL     1       4.040   0.649   1.835  0.00  0.00    +0.094 A 
ATOM      7  N   UNL     1       4.982  -0.120   2.440  0.00  0.00    -0.312 N 
ATOM      8  H   UNL     1       5.761  -0.408   1.939  0.00  0.00    +0.170 HD
ATOM      9  C   UNL     1       4.842  -0.489   3.734  0.00  0.00    +0.259 A 
ATOM     10  O   UNL     1       5.679  -1.178   4.289  0.00  0.00    -0.267 OA
ATOM     11  C   UNL     1       3.641  -0.026   4.445  0.00  0.00    +0.065 A 
ATOM     12  C   UNL     1       3.403  -0.349   5.779  0.00  0.00    +0.015 A 
ATOM     13  C   UNL     1       2.261   0.113   6.396  0.00  0.00    +0.001 A 
ATOM     14  C   UNL     1       1.350   0.896   5.700  0.00  0.00    +0.002 A 
ATOM     15  C   UNL     1       1.567   1.227   4.381  0.00  0.00    +0.028 A 
ATOM     16  C   UNL     1       2.716   0.770   3.734  0.00  0.00    +0.078 A 
ATOM     17  N   UNL     1       2.972   1.077   2.437  0.00  0.00    -0.236 NA
ENDBRANCH   5   6
ENDBRANCH   1   5
BRANCH   1  18
ATOM     18  C   UNL     1       1.955   0.819  -0.361  0.00  0.00    +0.019 C 
BRANCH  18  19
ATOM     19  C   UNL     1       0.695   1.602  -0.625  0.00  0.00    +0.197 C 
ATOM     20  O   UNL     1       0.718   2.815  -0.598  0.00  0.00    -0.278 OA
ATOM     21  N   UNL     1      -0.457   0.956  -0.890  0.00  0.00    -0.310 N 
ATOM     22  H   UNL     1      -0.476  -0.014  -0.911  0.00  0.00    +0.149 HD
BRANCH  21  23
ATOM     23  C   UNL     1      -1.681   1.717  -1.152  0.00  0.00    +0.100 C 
ATOM     24  C   UNL     1      -2.360   2.065   0.174  0.00  0.00    +0.033 C 
BRANCH  23  25
ATOM     25  C   UNL     1      -2.618   0.888  -1.993  0.00  0.00    -0.027 A 
ATOM     26  C   UNL     1      -2.749  -0.466  -1.751  0.00  0.00    +0.006 A 
ATOM     27  C   UNL     1      -3.611  -1.226  -2.519  0.00  0.00    +0.015 A 
ATOM     28  C   UNL     1      -4.336  -0.632  -3.537  0.00  0.00    +0.018 A 
ATOM     29  C   UNL     1      -4.200   0.723  -3.783  0.00  0.00    +0.015 A 
ATOM     30  C   UNL     1      -3.341   1.482  -3.010  0.00  0.00    +0.006 A 
ATOM     31 BR   UNL     1      -5.510  -1.672  -4.593  0.00  0.00    -0.050 Br
ENDBRANCH  23  25
ENDBRANCH  21  23
ENDBRANCH  18  19
ENDBRANCH   1  18
TORSDOF 7
