REMARK  Name = ZINC37929495
REMARK  6 active torsions:
REMARK  status: ('A' for Active; 'I' for Inactive)
REMARK    1  A    between atoms: C_1  and  O_2
REMARK    2  A    between atoms: O_2  and  C_3
REMARK    3  A    between atoms: C_3  and  C_5
REMARK    4  A    between atoms: N_10  and  S_11
REMARK    5  A    between atoms: S_11  and  C_14
REMARK    6  A    between atoms: C_19  and  N_20
REMARK                            x       y       z     vdW  Elec       q    Type
REMARK                         _______ _______ _______ _____ _____    ______ ____
ROOT
ATOM      1  S   UNL     1       0.530  -2.326  -3.367  0.00  0.00    +0.063 S 
ATOM      2  O   UNL     1      -0.344  -1.218  -3.203  0.00  0.00    -0.153 OA
ATOM      3  O   UNL     1       1.832  -2.194  -3.921  0.00  0.00    -0.153 OA
ENDROOT
BRANCH   1   4
ATOM      4  C   UNL     1      -0.325  -3.499  -4.365  0.00  0.00    +0.127 A 
ATOM      5  C   UNL     1      -1.609  -3.232  -4.800  0.00  0.00    +0.045 A 
ATOM      6  C   UNL     1      -2.281  -4.152  -5.583  0.00  0.00    +0.020 A 
ATOM      7  C   UNL     1      -1.671  -5.344  -5.934  0.00  0.00    +0.017 A 
ATOM      8  C   UNL     1      -0.388  -5.617  -5.502  0.00  0.00    +0.026 A 
ATOM      9  C   UNL     1       0.292  -4.691  -4.720  0.00  0.00    +0.051 A 
ATOM     10 BR   UNL     1      -4.039  -3.783  -6.175  0.00  0.00    -0.050 Br
BRANCH   9  11
ATOM     11  N   UNL     1       1.593  -4.962  -4.287  0.00  0.00    -0.356 N 
ATOM     12  H   UNL     1       2.117  -4.266  -3.861  0.00  0.00    +0.142 HD
ATOM     13  H   UNL     1       1.972  -5.846  -4.413  0.00  0.00    +0.142 HD
ENDBRANCH   9  11
ENDBRANCH   1   4
BRANCH   1  18
ATOM     14  C   UNL     1      -0.190  -2.831  -0.728  0.00  0.00    +0.188 C 
ATOM     15  C   UNL     1       0.371  -3.668   0.442  0.00  0.00    +0.033 C 
ATOM     16  C   UNL     1       1.262  -4.716  -0.276  0.00  0.00    +0.019 C 
ATOM     17  C   UNL     1       1.832  -3.885  -1.453  0.00  0.00    +0.110 C 
ATOM     18  N   UNL     1       0.721  -3.005  -1.869  0.00  0.00    -0.163 NA
BRANCH  14  19
ATOM     19  C   UNL     1      -0.249  -1.377  -0.335  0.00  0.00    +0.326 C 
ATOM     20  O   UNL     1       0.694  -0.654  -0.552  0.00  0.00    -0.249 OA
BRANCH  19  22
ATOM     21  C   UNL     1      -1.359   0.513   0.549  0.00  0.00    +0.280 C 
ATOM     22  O   UNL     1      -1.350  -0.885   0.255  0.00  0.00    -0.467 OA
ENDBRANCH  19  22
ENDBRANCH  14  19
ENDBRANCH   1  18
TORSDOF 5
