REMARK  Name = ZINC13249924
REMARK  6 active torsions:
REMARK  status: ('A' for Active; 'I' for Inactive)
REMARK    1  A    between atoms: C_3  and  S_20
REMARK    2  A    between atoms: C_6  and  N_7
REMARK    3  A    between atoms: C_8  and  C_10
REMARK    4  A    between atoms: C_10  and  C_11
REMARK    5  A    between atoms: C_11  and  C_18
REMARK    6  A    between atoms: S_20  and  N_23
REMARK                            x       y       z     vdW  Elec       q    Type
REMARK                         _______ _______ _______ _____ _____    ______ ____
ROOT
ATOM      1  C   UNL     1      -1.588   2.462   4.246  0.00  0.00    +0.025 A 
ATOM      2  C   UNL     1      -1.705   3.228   5.389  0.00  0.00    +0.031 A 
ATOM      3  C   UNL     1      -0.573   3.630   6.074  0.00  0.00    +0.113 A 
ATOM      4  C   UNL     1       0.680   3.261   5.619  0.00  0.00    +0.031 A 
ATOM      5  C   UNL     1       0.804   2.490   4.480  0.00  0.00    +0.025 A 
ATOM      6  C   UNL     1      -0.331   2.085   3.790  0.00  0.00    +0.033 A 
ENDROOT
BRANCH   6   7
ATOM      7  N   UNL     1      -0.209   1.305   2.636  0.00  0.00    -0.285 N 
ATOM      8  C   UNL     1       0.760   0.372   2.552  0.00  0.00    +0.218 C 
ATOM      9  O   UNL     1       1.596   0.286   3.428  0.00  0.00    -0.275 OA
ATOM     10  H   UNL     1      -0.822   1.435   1.895  0.00  0.00    +0.155 HD
BRANCH   8  11
ATOM     11  C   UNL     1       0.807  -0.563   1.372  0.00  0.00    +0.114 C 
BRANCH  11  12
ATOM     12  C   UNL     1       2.219  -1.133   1.228  0.00  0.00    +0.080 C 
ATOM     13  C   UNL     1       2.557  -1.285  -0.231  0.00  0.00    +0.019 C 
ATOM     14  C   UNL     1       1.304  -1.453  -1.112  0.00  0.00    +0.001 C 
ATOM     15  C   UNL     1       0.252  -2.387  -0.483  0.00  0.00    +0.000 C 
ATOM     16  C   UNL     1       0.869  -3.603   0.153  0.00  0.00    +0.000 C 
ATOM     17  C   UNL     1       1.090  -3.313   1.652  0.00  0.00    +0.001 C 
ATOM     18  C   UNL     1       2.288  -2.523   1.894  0.00  0.00    +0.019 C 
BRANCH  12  19
ATOM     19  C   UNL     1       3.209  -0.207   1.886  0.00  0.00    +0.362 C 
ATOM     20  O   UNL     1       3.945  -0.624   2.748  0.00  0.00    -0.246 OA
ATOM     21  O   UNL     1       3.272   1.082   1.515  0.00  0.00    -0.246 OA
ENDBRANCH  12  19
ENDBRANCH  11  12
ENDBRANCH   8  11
ENDBRANCH   6   7
BRANCH   3  22
ATOM     22  S   UNL     1      -0.727   4.612   7.528  0.00  0.00    +0.100 S 
ATOM     23  O   UNL     1      -2.025   4.365   8.050  0.00  0.00    -0.146 OA
ATOM     24  O   UNL     1       0.454   4.399   8.289  0.00  0.00    -0.146 OA
BRANCH  22  25
ATOM     25  N   UNL     1      -0.703   6.198   7.052  0.00  0.00    -0.118 NA
ATOM     26  C   UNL     1      -0.801   7.140   7.933  0.00  0.00    +0.117 C 
ATOM     27  C   UNL     1      -0.933   6.835   9.343  0.00  0.00    +0.073 C 
ATOM     28  C   UNL     1      -2.147   7.522   9.987  0.00  0.00    +0.008 C 
ATOM     29  C   UNL     1      -1.750   8.951  10.227  0.00  0.00    +0.002 C 
ATOM     30  C   UNL     1      -2.198   9.903   9.089  0.00  0.00    +0.019 C 
ATOM     31  C   UNL     1      -1.999   9.233   7.720  0.00  0.00    +0.102 C 
ATOM     32  N   UNL     1      -0.777   8.492   7.558  0.00  0.00    -0.331 N 
ATOM     33  H   UNL     1       0.027   8.905   7.206  0.00  0.00    +0.147 HD
ENDBRANCH  22  25
ENDBRANCH   3  22
TORSDOF 6
