REMARK  Name = ZINC58314002
REMARK  7 active torsions:
REMARK  status: ('A' for Active; 'I' for Inactive)
REMARK    1  A    between atoms: C_1  and  C_2
REMARK    2  A    between atoms: C_5  and  N_8
REMARK    3  A    between atoms: N_8  and  S_9
REMARK    4  A    between atoms: S_9  and  C_12
REMARK    5  A    between atoms: C_15  and  C_18
REMARK    6  A    between atoms: C_24  and  C_26
REMARK    7  A    between atoms: N_34  and  C_35
REMARK                            x       y       z     vdW  Elec       q    Type
REMARK                         _______ _______ _______ _____ _____    ______ ____
ROOT
ATOM      1  C   UNL     1       0.475  -4.474   2.674  0.00  0.00    +0.109 A 
ATOM      2  C   UNL     1       1.242  -3.670   3.499  0.00  0.00    +0.029 A 
ATOM      3  C   UNL     1       0.791  -3.343   4.761  0.00  0.00    +0.015 A 
ATOM      4  C   UNL     1      -0.442  -3.824   5.204  0.00  0.00    +0.037 A 
ATOM      5  C   UNL     1      -1.211  -4.634   4.367  0.00  0.00    +0.015 A 
ATOM      6  C   UNL     1      -0.750  -4.949   3.105  0.00  0.00    +0.029 A 
ENDROOT
BRANCH   4   7
ATOM      7  C   UNL     1      -0.932  -3.477   6.555  0.00  0.00    +0.247 C 
ATOM      8  O   UNL     1      -0.526  -2.474   7.110  0.00  0.00    -0.270 OA
ATOM      9  N   UNL     1      -1.828  -4.273   7.172  0.00  0.00    -0.287 N 
ATOM     10  C   UNL     1      -2.310  -5.573   6.672  0.00  0.00    +0.109 C 
ATOM     11  C   UNL     1      -2.782  -6.334   7.936  0.00  0.00    +0.021 C 
ATOM     12  C   UNL     1      -3.403  -5.187   8.776  0.00  0.00    +0.032 C 
ATOM     13  C   UNL     1      -2.482  -3.991   8.458  0.00  0.00    +0.142 C 
BRANCH  13  14
ATOM     14  C   UNL     1      -3.302  -2.731   8.351  0.00  0.00    +0.131 A 
ATOM     15  N   UNL     1      -4.101  -2.443   7.366  0.00  0.00    -0.230 NA
ATOM     16  C   UNL     1      -4.681  -1.235   7.586  0.00  0.00    +0.089 A 
ATOM     17  C   UNL     1      -5.598  -0.462   6.870  0.00  0.00    +0.030 A 
ATOM     18  C   UNL     1      -6.003   0.746   7.364  0.00  0.00    +0.002 A 
ATOM     19  C   UNL     1      -5.513   1.215   8.575  0.00  0.00    +0.002 A 
ATOM     20  C   UNL     1      -4.607   0.469   9.299  0.00  0.00    +0.028 A 
ATOM     21  C   UNL     1      -4.185  -0.760   8.812  0.00  0.00    +0.069 A 
ATOM     22  N   UNL     1      -3.319  -1.731   9.274  0.00  0.00    -0.329 N 
ATOM     23  C   UNL     1      -2.557  -1.691  10.525  0.00  0.00    +0.150 C 
ENDBRANCH  13  14
ENDBRANCH   4   7
BRANCH   1  24
ATOM     24  S   UNL     1       1.060  -4.887   1.064  0.00  0.00    +0.072 S 
ATOM     25  O   UNL     1       0.319  -6.024   0.642  0.00  0.00    -0.150 OA
ATOM     26  O   UNL     1       2.479  -4.886   1.134  0.00  0.00    -0.150 OA
BRANCH  24  27
ATOM     27  N   UNL     1       0.634  -3.645   0.054  0.00  0.00    -0.216 N 
ATOM     28  H   UNL     1       1.321  -3.139  -0.407  0.00  0.00    +0.174 HD
BRANCH  27  33
ATOM     29  C   UNL     1      -4.835  -2.351  -0.703  0.00  0.00    +0.044 C 
ATOM     30  C   UNL     1      -3.381  -2.695  -0.501  0.00  0.00    -0.050 A 
ATOM     31  C   UNL     1      -2.460  -1.689  -0.271  0.00  0.00    +0.005 A 
ATOM     32  C   UNL     1      -1.127  -2.001  -0.086  0.00  0.00    +0.025 A 
ATOM     33  C   UNL     1      -0.713  -3.326  -0.132  0.00  0.00    +0.048 A 
ATOM     34  C   UNL     1      -1.641  -4.333  -0.363  0.00  0.00    +0.025 A 
ATOM     35  C   UNL     1      -2.973  -4.015  -0.542  0.00  0.00    +0.005 A 
ENDBRANCH  27  33
ENDBRANCH  24  27
ENDBRANCH   1  24
TORSDOF 5
