REMARK  Name = ZINC36684876
REMARK  7 active torsions:
REMARK  status: ('A' for Active; 'I' for Inactive)
REMARK    1  A    between atoms: C_1  and  C_2
REMARK    2  A    between atoms: N_11  and  C_15
REMARK    3  A    between atoms: C_15  and  C_16
REMARK    4  A    between atoms: N_18  and  C_19
REMARK    5  A    between atoms: C_19  and  C_20
REMARK    6  A    between atoms: C_20  and  C_22
REMARK    7  A    between atoms: C_20  and  N_27
REMARK                            x       y       z     vdW  Elec       q    Type
REMARK                         _______ _______ _______ _____ _____    ______ ____
ROOT
ATOM      1  C   UNL     1       3.252   2.954   2.511  0.00  0.00    +0.231 C 
ATOM      2  O   UNL     1       2.243   3.319   1.947  0.00  0.00    -0.274 OA
ATOM      3  N   UNL     1       4.258   3.826   2.726  0.00  0.00    -0.315 N 
ATOM      4  H   UNL     1       5.065   3.533   3.177  0.00  0.00    +0.149 HD
ENDROOT
BRANCH   1   5
ATOM      5  C   UNL     1       3.383   1.525   2.972  0.00  0.00    +0.213 C 
BRANCH   5  15
ATOM      6  C   UNL     1      -0.316   1.609   0.528  0.00  0.00    +0.010 C 
ATOM      7  C   UNL     1      -0.290   0.082   0.442  0.00  0.00    +0.018 C 
ATOM      8  C   UNL     1       0.258  -0.343  -0.923  0.00  0.00    +0.006 C 
ATOM      9  C   UNL     1       0.303  -1.871  -1.000  0.00  0.00    +0.000 C 
ATOM     10  C   UNL     1       1.222  -2.411   0.098  0.00  0.00    +0.003 C 
ATOM     11  C   UNL     1       0.677  -1.995   1.467  0.00  0.00    +0.035 C 
ATOM     12  C   UNL     1       0.603  -0.474   1.546  0.00  0.00    +0.115 C 
ATOM     13  C   UNL     1       1.986   0.128   1.460  0.00  0.00    +0.247 C 
ATOM     14  O   UNL     1       2.769   0.039   0.538  0.00  0.00    -0.273 OA
ATOM     15  N   UNL     1       2.166   0.787   2.623  0.00  0.00    -0.215 N 
ATOM     16  C   UNL     1       1.096   0.681   3.420  0.00  0.00    +0.310 C 
ATOM     17  O   UNL     1       1.020   1.189   4.522  0.00  0.00    -0.252 OA
ATOM     18  N   UNL     1       0.112  -0.052   2.865  0.00  0.00    -0.285 N 
ATOM     19  H   UNL     1      -0.750  -0.259   3.257  0.00  0.00    +0.151 HD
ENDBRANCH   5  15
ENDBRANCH   1   5
BRANCH   3  20
ATOM     20  C   UNL     1       4.131   5.215   2.278  0.00  0.00    +0.094 C 
BRANCH  20  21
ATOM     21  C   UNL     1       5.354   6.012   2.735  0.00  0.00    -0.013 C 
BRANCH  21  22
ATOM     22  N   UNL     1       5.167   7.430   2.402  0.00  0.00    +0.386 N 
ATOM     23  C   UNL     1       3.996   7.978   3.133  0.00  0.00    -0.078 C 
ATOM     24  C   UNL     1       4.264   9.504   3.140  0.00  0.00    -0.020 C 
ATOM     25  C   UNL     1       5.796   9.584   3.329  0.00  0.00    -0.020 C 
ATOM     26  C   UNL     1       6.332   8.219   2.858  0.00  0.00    -0.078 C 
ATOM     27  H   UNL     1       5.040   7.540   1.407  0.00  0.00    -0.081 HD
ENDBRANCH  21  22
BRANCH  21  28
ATOM     28  C   UNL     1       6.584   5.489   2.037  0.00  0.00    -0.022 A 
ATOM     29  C   UNL     1       7.531   4.637   2.500  0.00  0.00    +0.009 A 
ATOM     30  C   UNL     1       8.583   4.292   1.673  0.00  0.00    +0.008 A 
ATOM     31  C   UNL     1       8.637   4.816   0.424  0.00  0.00    +0.045 A 
ATOM     32  S   UNL     1       7.166   5.827   0.384  0.00  0.00    -0.103 S 
ENDBRANCH  21  28
ENDBRANCH  20  21
ENDBRANCH   3  20
TORSDOF 6
