REMARK  Name = ZINC64151252
REMARK  3 active torsions:
REMARK  status: ('A' for Active; 'I' for Inactive)
REMARK    1  A    between atoms: C_3  and  S_8
REMARK    2  A    between atoms: S_8  and  N_11
REMARK    3  A    between atoms: C_17  and  C_19
REMARK                            x       y       z     vdW  Elec       q    Type
REMARK                         _______ _______ _______ _____ _____    ______ ____
ROOT
ATOM      1  N   UNL     1       4.241   2.560   1.558  0.00  0.00    -0.174 NA
ATOM      2  C   UNL     1       3.762   3.737   2.297  0.00  0.00    +0.128 C 
ATOM      3  C   UNL     1       3.084   3.262   3.588  0.00  0.00    +0.125 C 
ATOM      4  N   UNL     1       3.979   2.315   4.268  0.00  0.00    -0.295 N 
ATOM      5  C   UNL     1       4.458   1.139   3.529  0.00  0.00    +0.125 C 
ATOM      6  C   UNL     1       5.132   1.611   2.240  0.00  0.00    +0.128 C 
ATOM      7  C   UNL     1       4.354   2.522   5.546  0.00  0.00    +0.245 C 
ATOM      8  O   UNL     1       4.999   1.676   6.135  0.00  0.00    -0.270 OA
ENDROOT
BRANCH   7   9
ATOM      9  C   UNL     1       3.985   3.768   6.225  0.00  0.00    +0.043 C 
ATOM     10  C   UNL     1       4.353   4.166   7.492  0.00  0.00    +0.009 A 
ATOM     11  C   UNL     1       5.149   3.563   8.497  0.00  0.00    +0.025 A 
ATOM     12  C   UNL     1       5.349   4.194   9.676  0.00  0.00    +0.019 A 
ATOM     13  C   UNL     1       4.791   5.451   9.963  0.00  0.00    +0.017 A 
ATOM     14  C   UNL     1       4.017   6.109   9.074  0.00  0.00    +0.027 A 
ATOM     15  C   UNL     1       3.750   5.494   7.764  0.00  0.00    +0.043 A 
ATOM     16  N   UNL     1       3.053   5.897   6.739  0.00  0.00    -0.380 N 
ATOM     17  C   UNL     1       3.125   4.887   5.679  0.00  0.00    +0.154 C 
ATOM     18 BR   UNL     1       6.419   3.352  10.988  0.00  0.00    -0.050 Br
ATOM     19  H   UNL     1       2.568   6.735   6.685  0.00  0.00    +0.160 HD
ENDBRANCH   7   9
BRANCH   1  20
ATOM     20  S   UNL     1       3.781   2.306  -0.012  0.00  0.00    +0.061 S 
ATOM     21  O   UNL     1       4.777   1.480  -0.599  0.00  0.00    -0.153 OA
ATOM     22  O   UNL     1       3.434   3.577  -0.545  0.00  0.00    -0.153 OA
BRANCH  20  25
ATOM     23  C   UNL     1      -0.092   1.244   0.101  0.00  0.00    +0.040 A 
ATOM     24  C   UNL     1       1.071   1.989   0.069  0.00  0.00    +0.031 A 
ATOM     25  C   UNL     1       2.298   1.354   0.028  0.00  0.00    +0.106 A 
ATOM     26  C   UNL     1       2.363  -0.026   0.017  0.00  0.00    +0.031 A 
ATOM     27  C   UNL     1       1.201  -0.774   0.048  0.00  0.00    +0.040 A 
ATOM     28  C   UNL     1      -0.029  -0.139   0.090  0.00  0.00    +0.124 A 
ATOM     29  F   UNL     1      -1.165  -0.868   0.120  0.00  0.00    -0.205 F 
ENDBRANCH  20  25
ENDBRANCH   1  20
TORSDOF 3
