REMARK  Name = ZINC00673693
REMARK  6 active torsions:
REMARK  status: ('A' for Active; 'I' for Inactive)
REMARK    1  A    between atoms: C_1  and  C_2
REMARK    2  A    between atoms: C_6  and  C_7
REMARK    3  A    between atoms: N_8  and  N_9
REMARK    4  A    between atoms: C_10  and  C_12
REMARK    5  A    between atoms: C_12  and  O_13
REMARK    6  A    between atoms: O_13  and  C_14
REMARK                            x       y       z     vdW  Elec       q    Type
REMARK                         _______ _______ _______ _____ _____    ______ ____
ROOT
ATOM      1  N   UNL     1       3.909  -2.193  -0.047  0.00  0.00    -0.204 N 
ATOM      2  C   UNL     1       3.713  -0.860  -0.038  0.00  0.00    +0.270 C 
ATOM      3  O   UNL     1       4.664  -0.106  -0.043  0.00  0.00    -0.270 OA
ATOM      4  H   UNL     1       3.149  -2.795  -0.043  0.00  0.00    +0.177 HD
ENDROOT
BRANCH   1   6
ATOM      5  C   UNL     1       5.401  -3.996  -0.071  0.00  0.00    +0.145 C 
ATOM      6  N   UNL     1       5.212  -2.709  -0.062  0.00  0.00    -0.187 NA
BRANCH   5  12
ATOM      7  C   UNL     1       6.177  -6.981  -0.082  0.00  0.00    +0.045 C 
ATOM      8  C   UNL     1       7.179  -5.857  -0.092  0.00  0.00    -0.035 A 
ATOM      9  C   UNL     1       8.530  -6.117  -0.112  0.00  0.00    +0.011 A 
ATOM     10  C   UNL     1       9.407  -5.080  -0.114  0.00  0.00    +0.046 A 
ATOM     11  S   UNL     1       8.321  -3.663  -0.096  0.00  0.00    -0.095 S 
ATOM     12  C   UNL     1       6.764  -4.536  -0.087  0.00  0.00    +0.035 A 
ENDBRANCH   5  12
ENDBRANCH   1   6
BRANCH   2  13
ATOM     13  C   UNL     1       2.312  -0.304  -0.022  0.00  0.00    +0.326 C 
BRANCH  13  14
ATOM     14  O   UNL     1       2.366   1.124  -0.015  0.00  0.00    -0.482 OA
BRANCH  14  15
ATOM     15  C   UNL     1       1.179   1.786   0.000  0.00  0.00    +0.135 A 
ATOM     16  C   UNL     1      -0.013   1.076   0.008  0.00  0.00    +0.048 A 
ATOM     17  C   UNL     1      -1.218   1.751   0.017  0.00  0.00    +0.019 A 
ATOM     18  C   UNL     1      -1.238   3.134   0.030  0.00  0.00    +0.019 A 
ATOM     19  C   UNL     1      -0.051   3.845   0.022  0.00  0.00    +0.034 A 
ATOM     20  C   UNL     1       1.157   3.174   0.008  0.00  0.00    +0.061 A 
ATOM     21 BR   UNL     1       2.779   4.146  -0.003  0.00  0.00    -0.046 Br
ATOM     22 BR   UNL     1      -2.889   4.054   0.050  0.00  0.00    -0.050 Br
ENDBRANCH  14  15
ENDBRANCH  13  14
ENDBRANCH   2  13
TORSDOF 5
