REMARK  Name = ZINC12002589
REMARK  6 active torsions:
REMARK  status: ('A' for Active; 'I' for Inactive)
REMARK    1  A    between atoms: C_1  and  O_2
REMARK    2  A    between atoms: O_2  and  C_3
REMARK    3  A    between atoms: C_6  and  C_10
REMARK    4  A    between atoms: C_10  and  N_53
REMARK    5  A    between atoms: C_16  and  C_18
REMARK    6  A    between atoms: C_18  and  C_19
REMARK                            x       y       z     vdW  Elec       q    Type
REMARK                         _______ _______ _______ _____ _____    ______ ____
ROOT
ATOM      1  C   UNL     1       0.900  -0.300  -0.529  0.00  0.00    -0.058 C 
ATOM      2  C   UNL     1       2.286   0.055   0.011  0.00  0.00    +0.085 C 
ATOM      3  N   UNL     1       2.336   1.469   0.372  0.00  0.00    -0.318 N 
ATOM      4  C   UNL     1       1.239   2.207   0.572  0.00  0.00    +0.200 C 
ATOM      5  O   UNL     1       1.371   3.367   0.900  0.00  0.00    -0.278 OA
ATOM      6  C   UNL     1      -0.150   1.659   0.406  0.00  0.00    +0.028 C 
ATOM      7  H   UNL     1       3.203   1.891   0.473  0.00  0.00    +0.149 HD
ATOM      8  N   UNL     1      -0.106   0.186   0.437  0.00  0.00    +0.391 N 
ATOM      9  H   UNL     1       0.160  -0.122   1.380  0.00  0.00    -0.080 HD
ENDROOT
BRANCH   8  10
ATOM     10  C   UNL     1      -1.438  -0.369   0.107  0.00  0.00    -0.039 C 
BRANCH  10  14
ATOM     11  C   UNL     1      -1.538  -4.492   1.230  0.00  0.00    +0.123 A 
ATOM     12  C   UNL     1      -2.004  -3.521   2.105  0.00  0.00    +0.046 A 
ATOM     13  C   UNL     1      -1.971  -2.189   1.739  0.00  0.00    +0.008 A 
ATOM     14  C   UNL     1      -1.474  -1.823   0.503  0.00  0.00    -0.028 A 
ATOM     15  C   UNL     1      -1.013  -2.790  -0.375  0.00  0.00    +0.128 A 
ATOM     16  C   UNL     1      -1.040  -4.124  -0.010  0.00  0.00    +0.084 A 
ATOM     17  F   UNL     1      -0.533  -2.430  -1.585  0.00  0.00    -0.205 F 
BRANCH  11  19
ATOM     18  C   UNL     1      -1.075  -6.748   0.639  0.00  0.00    +0.277 C 
ATOM     19  O   UNL     1      -1.571  -5.803   1.589  0.00  0.00    -0.495 OA
ENDBRANCH  11  19
ENDBRANCH  10  14
ENDBRANCH   8  10
BRANCH   6  20
ATOM     20  C   UNL     1      -1.032   2.155   1.555  0.00  0.00    +0.090 C 
BRANCH  20  21
ATOM     21  C   UNL     1      -0.490   1.638   2.862  0.00  0.00    +0.215 C 
ATOM     22  O   UNL     1       0.444   0.864   2.869  0.00  0.00    -0.276 OA
ATOM     23  N   UNL     1      -1.044   2.035   4.025  0.00  0.00    -0.297 N 
ATOM     24  C   UNL     1      -0.528   1.532   5.307  0.00  0.00    +0.113 C 
ATOM     25  C   UNL     1       0.062   2.725   6.085  0.00  0.00    +0.061 C 
ATOM     26  C   UNL     1      -0.872   3.885   5.962  0.00  0.00    -0.004 A 
ATOM     27  C   UNL     1      -1.883   4.053   5.067  0.00  0.00    -0.020 A 
ATOM     28  C   UNL     1      -2.609   5.239   5.160  0.00  0.00    +0.013 A 
ATOM     29  C   UNL     1      -2.295   6.153   6.107  0.00  0.00    +0.046 A 
ATOM     30  S   UNL     1      -0.924   5.365   6.938  0.00  0.00    -0.101 S 
ATOM     31  C   UNL     1      -2.176   2.971   4.030  0.00  0.00    +0.143 C 
ENDBRANCH  20  21
ENDBRANCH   6  20
TORSDOF 5
