REMARK  Name = ZINC13618037
REMARK  9 active torsions:
REMARK  status: ('A' for Active; 'I' for Inactive)
REMARK    1  A    between atoms: C_1  and  C_2
REMARK    2  A    between atoms: C_2  and  C_3
REMARK    3  A    between atoms: C_2  and  C_4
REMARK    4  A    between atoms: C_2  and  C_5
REMARK    5  A    between atoms: C_8  and  C_11
REMARK    6  A    between atoms: C_13  and  C_25
REMARK    7  A    between atoms: C_15  and  C_20
REMARK    8  A    between atoms: C_15  and  O_24
REMARK    9  A    between atoms: C_25  and  C_27
REMARK                            x       y       z     vdW  Elec       q    Type
REMARK                         _______ _______ _______ _____ _____    ______ ____
ROOT
ATOM      1  C   UNL     1       0.011   0.823  -0.013  0.00  0.00    +0.120 C 
ATOM      2  C   UNL     1       1.430   1.393  -0.117  0.00  0.00    +0.144 C 
ATOM      3  C   UNL     1       2.098   1.291   1.258  0.00  0.00    +0.243 C 
ATOM      4  N   UNL     1       1.262   1.969   2.250  0.00  0.00    -0.264 N 
ATOM      5  C   UNL     1      -0.070   2.046   2.104  0.00  0.00    +0.302 C 
ATOM      6  O   UNL     1      -0.719   2.611   2.962  0.00  0.00    -0.253 OA
ATOM      7  N   UNL     1      -0.712   1.526   1.048  0.00  0.00    -0.292 N 
ATOM      8  H   UNL     1       1.678   2.369   3.029  0.00  0.00    +0.153 HD
ATOM      9  H   UNL     1      -1.676   1.617   0.986  0.00  0.00    +0.151 HD
ENDROOT
BRANCH   1  13
ATOM     10  C   UNL     1      -2.021   1.363  -3.732  0.00  0.00    -0.042 A 
ATOM     11  C   UNL     1      -1.380   0.168  -3.461  0.00  0.00    +0.004 A 
ATOM     12  C   UNL     1      -0.722  -0.006  -2.258  0.00  0.00    +0.006 A 
ATOM     13  C   UNL     1      -0.705   1.013  -1.325  0.00  0.00    -0.026 A 
ATOM     14  C   UNL     1      -1.351   2.206  -1.593  0.00  0.00    +0.006 A 
ATOM     15  C   UNL     1      -2.004   2.383  -2.799  0.00  0.00    +0.004 A 
BRANCH  10  17
ATOM     16  C   UNL     1      -3.842   0.503  -5.178  0.00  0.00    +0.015 C 
ATOM     17  C   UNL     1      -2.738   1.553  -5.043  0.00  0.00    -0.013 C 
ATOM     18  C   UNL     1      -3.357   2.952  -5.088  0.00  0.00    +0.015 C 
ATOM     19  C   UNL     1      -1.744   1.398  -6.196  0.00  0.00    +0.015 C 
ENDBRANCH  10  17
ENDBRANCH   1  13
BRANCH   3  20
ATOM     20  C   UNL     1       3.474   1.959   1.209  0.00  0.00    +0.436 C 
ATOM     21  F   UNL     1       3.319   3.333   0.996  0.00  0.00    -0.166 F 
ATOM     22  F   UNL     1       4.139   1.746   2.421  0.00  0.00    -0.166 F 
ATOM     23  F   UNL     1       4.223   1.407   0.163  0.00  0.00    -0.166 F 
ENDBRANCH   3  20
BRANCH   3  24
ATOM     24  O   UNL     1       2.246  -0.084   1.617  0.00  0.00    -0.364 OA
ATOM     25  H   UNL     1       2.663  -0.223   2.479  0.00  0.00    +0.212 HD
ENDBRANCH   3  24
BRANCH   2  26
ATOM     26  C   UNL     1       1.365   2.837  -0.543  0.00  0.00    +0.173 C 
ATOM     27  O   UNL     1       0.855   3.662   0.185  0.00  0.00    -0.292 OA
BRANCH  26  28
ATOM     28  C   UNL     1       1.921   3.246  -1.841  0.00  0.00    +0.018 A 
ATOM     29  C   UNL     1       2.391   2.281  -2.740  0.00  0.00    +0.014 A 
ATOM     30  C   UNL     1       2.905   2.671  -3.957  0.00  0.00    +0.039 A 
ATOM     31  C   UNL     1       2.969   4.017  -4.287  0.00  0.00    +0.123 A 
ATOM     32  C   UNL     1       2.511   4.978  -3.399  0.00  0.00    +0.039 A 
ATOM     33  C   UNL     1       1.988   4.602  -2.181  0.00  0.00    +0.014 A 
ATOM     34  F   UNL     1       3.480   4.393  -5.480  0.00  0.00    -0.205 F 
ENDBRANCH  26  28
ENDBRANCH   2  26
TORSDOF 6
