REMARK  Name = ZINC35871117
REMARK  3 active torsions:
REMARK  status: ('A' for Active; 'I' for Inactive)
REMARK    1  A    between atoms: C_6  and  C_7
REMARK    2  A    between atoms: C_12  and  C_26
REMARK    3  A    between atoms: N_19  and  C_21
REMARK                            x       y       z     vdW  Elec       q    Type
REMARK                         _______ _______ _______ _____ _____    ______ ____
ROOT
ATOM      1  C   UNL     1      -0.017   1.378   0.010  0.00  0.00    +0.014 A 
ATOM      2  C   UNL     1       1.169   2.085   0.002  0.00  0.00    +0.024 A 
ATOM      3  C   UNL     1       2.383   1.407  -0.012  0.00  0.00    +0.033 A 
ATOM      4  C   UNL     1       2.399   0.020  -0.017  0.00  0.00    -0.025 A 
ATOM      5  C   UNL     1       1.207  -0.681  -0.011  0.00  0.00    +0.017 A 
ATOM      6  C   UNL     1       0.002  -0.004   0.002  0.00  0.00    +0.055 A 
ATOM      7  C   UNL     1       3.702  -0.725  -0.024  0.00  0.00    +0.053 C 
ATOM      8  C   UNL     1       4.802   0.058  -0.707  0.00  0.00    +0.125 C 
ATOM      9  C   UNL     1       4.863   1.513  -0.329  0.00  0.00    +0.071 C 
ATOM     10  N   UNL     1       3.575   2.120  -0.024  0.00  0.00    -0.329 N 
ATOM     11  C   UNL     1       3.576   3.554   0.330  0.00  0.00    +0.087 C 
ATOM     12  C   UNL     1       4.573   3.735   1.483  0.00  0.00    -0.059 C 
ATOM     13  N   UNL     1       5.888   3.216   1.088  0.00  0.00    +0.384 N 
ATOM     14  C   UNL     1       5.818   1.769   0.838  0.00  0.00    -0.055 C 
ATOM     15  H   UNL     1       6.192   3.685   0.248  0.00  0.00    -0.081 HD
ENDROOT
BRANCH  13  16
ATOM     16  C   UNL     1       6.854   3.476   2.163  0.00  0.00    -0.068 C 
ATOM     17  C   UNL     1       8.280   3.059   1.724  0.00  0.00    -0.015 C 
ATOM     18  C   UNL     1       9.185   3.919   2.640  0.00  0.00    -0.002 C 
ATOM     19  C   UNL     1       8.452   5.272   2.734  0.00  0.00    -0.002 C 
ATOM     20  C   UNL     1       6.970   4.991   2.431  0.00  0.00    -0.015 C 
ENDBRANCH  13  16
BRANCH   6  21
ATOM     21  C   UNL     1      -1.293  -0.774   0.008  0.00  0.00    +0.417 C 
ATOM     22  F   UNL     1      -2.368   0.122   0.022  0.00  0.00    -0.166 F 
ATOM     23  F   UNL     1      -1.367  -1.573  -1.138  0.00  0.00    -0.166 F 
ATOM     24  F   UNL     1      -1.348  -1.585   1.147  0.00  0.00    -0.166 F 
ENDBRANCH   6  21
BRANCH   8  25
ATOM     25  C   UNL     1       4.600  -0.036  -2.197  0.00  0.00    +0.361 C 
ATOM     26  O   UNL     1       3.662  -0.672  -2.646  0.00  0.00    -0.246 OA
ATOM     27  O   UNL     1       5.375   0.524  -2.954  0.00  0.00    -0.246 OA
ENDBRANCH   8  25
TORSDOF 3
