REMARK  Name = ZINC38799093
REMARK  9 active torsions:
REMARK  status: ('A' for Active; 'I' for Inactive)
REMARK    1  A    between atoms: C_1  and  C_2
REMARK    2  A    between atoms: C_2  and  C_3
REMARK    3  A    between atoms: C_3  and  C_4
REMARK    4  A    between atoms: C_3  and  C_6
REMARK    5  A    between atoms: C_4  and  C_5
REMARK    6  A    between atoms: C_6  and  C_7
REMARK    7  A    between atoms: C_10  and  C_34
REMARK    8  A    between atoms: C_13  and  C_15
REMARK    9  A    between atoms: C_17  and  C_28
REMARK                            x       y       z     vdW  Elec       q    Type
REMARK                         _______ _______ _______ _____ _____    ______ ____
ROOT
ATOM      1  C   UNL     1       1.317  -7.166   1.320  0.00  0.00    +0.152 C 
ATOM      2  C   UNL     1       0.535  -6.860   0.056  0.00  0.00    -0.014 C 
ATOM      3  C   UNL     1       1.108  -7.255  -1.156  0.00  0.00    +0.002 A 
ATOM      4  C   UNL     1       0.449  -7.009  -2.378  0.00  0.00    +0.030 A 
ATOM      5  C   UNL     1       1.030  -7.404  -3.545  0.00  0.00    +0.042 A 
ATOM      6  C   UNL     1       2.266  -8.048  -3.557  0.00  0.00    +0.022 A 
ATOM      7  C   UNL     1       2.949  -8.312  -2.409  0.00  0.00    +0.025 A 
ATOM      8  C   UNL     1       2.410  -7.932  -1.167  0.00  0.00    +0.041 A 
ATOM      9  N   UNL     1       3.083  -8.192  -0.041  0.00  0.00    -0.284 N 
ATOM     10  C   UNL     1       2.646  -7.869   1.160  0.00  0.00    +0.230 C 
ATOM     11  O   UNL     1       3.314  -8.137   2.141  0.00  0.00    -0.274 OA
ATOM     12 CL   UNL     1       0.214  -7.099  -5.047  0.00  0.00    -0.084 Cl
ATOM     13  H   UNL     1       3.939  -8.643  -0.112  0.00  0.00    +0.155 HD
ENDROOT
BRANCH   1  19
ATOM     14  C   UNL     1       1.474  -2.347   2.143  0.00  0.00    +0.235 C 
ATOM     15  O   UNL     1       1.877  -1.509   2.921  0.00  0.00    -0.274 OA
ATOM     16  N   UNL     1       1.639  -3.657   2.416  0.00  0.00    -0.186 N 
ATOM     17  C   UNL     1       2.185  -4.210   3.666  0.00  0.00    +0.147 C 
ATOM     18  C   UNL     1       2.144  -5.733   3.427  0.00  0.00    +0.082 C 
ATOM     19  C   UNL     1       1.566  -5.864   2.036  0.00  0.00    +0.055 C 
ATOM     20  N   UNL     1       1.317  -4.711   1.564  0.00  0.00    -0.185 NA
BRANCH  17  21
ATOM     21  C   UNL     1       3.622  -3.733   3.886  0.00  0.00    +0.199 C 
ATOM     22  C   UNL     1       4.552  -4.235   2.754  0.00  0.00    +0.076 C 
ATOM     23  C   UNL     1       5.824  -4.556   3.520  0.00  0.00    +0.014 C 
ATOM     24  C   UNL     1       5.513  -4.598   4.798  0.00  0.00    +0.183 C 
ATOM     25  O   UNL     1       4.203  -4.362   5.045  0.00  0.00    -0.494 OA
ENDBRANCH  17  21
BRANCH  14  26
ATOM     26  C   UNL     1       0.787  -1.924   0.869  0.00  0.00    +0.101 C 
BRANCH  26  27
ATOM     27  C   UNL     1       0.877  -0.404   0.722  0.00  0.00    -0.003 C 
BRANCH  27  29
ATOM     28  C   UNL     1       2.442   1.528   0.478  0.00  0.00    +0.004 C 
ATOM     29  C   UNL     1       2.336   0.002   0.501  0.00  0.00    +0.000 C 
ENDBRANCH  27  29
BRANCH  27  30
ATOM     30  C   UNL     1       0.036   0.043  -0.475  0.00  0.00    +0.000 C 
ATOM     31  C   UNL     1      -1.443  -0.228  -0.189  0.00  0.00    +0.004 C 
ENDBRANCH  27  30
ENDBRANCH  26  27
ENDBRANCH  14  26
ENDBRANCH   1  19
BRANCH   2  32
ATOM     32  C   UNL     1      -0.721  -6.204   0.103  0.00  0.00    -0.020 A 
ATOM     33  C   UNL     1      -0.880  -4.939  -0.485  0.00  0.00    +0.008 A 
ATOM     34  C   UNL     1      -2.104  -4.310  -0.434  0.00  0.00    +0.001 A 
ATOM     35  C   UNL     1      -3.176  -4.922   0.195  0.00  0.00    +0.000 A 
ATOM     36  C   UNL     1      -3.030  -6.170   0.777  0.00  0.00    +0.001 A 
ATOM     37  C   UNL     1      -1.816  -6.818   0.732  0.00  0.00    +0.008 A 
ENDBRANCH   2  32
TORSDOF 7
