REMARK  Name = ZINC30883419
REMARK  10 active torsions:
REMARK  status: ('A' for Active; 'I' for Inactive)
REMARK    1  A    between atoms: C_1  and  C_2
REMARK    2  A    between atoms: C_4  and  C_27
REMARK    3  A    between atoms: C_6  and  C_24
REMARK    4  A    between atoms: C_9  and  C_11
REMARK    5  A    between atoms: C_11  and  C_12
REMARK    6  A    between atoms: C_15  and  C_17
REMARK    7  A    between atoms: C_24  and  C_25
REMARK    8  A    between atoms: C_24  and  C_26
REMARK    9  A    between atoms: C_27  and  N_28
REMARK   10  A    between atoms: C_31  and  O_34
REMARK                            x       y       z     vdW  Elec       q    Type
REMARK                         _______ _______ _______ _____ _____    ______ ____
ROOT
ATOM      1  C   UNL     1       3.796   2.092  -1.327  0.00  0.00    +0.039 C 
ATOM      2  C   UNL     1       2.494   1.433  -0.950  0.00  0.00    -0.073 C 
ATOM      3  C   UNL     1       2.183   0.323  -1.539  0.00  0.00    -0.026 C 
ATOM      4  C   UNL     1       0.919  -0.442  -1.277  0.00  0.00    -0.002 C 
ATOM      5  C   UNL     1       0.287   0.019   0.038  0.00  0.00    -0.003 C 
ATOM      6  C   UNL     1       0.214   1.551   0.031  0.00  0.00    +0.012 C 
ATOM      7  C   UNL     1       1.640   2.103   0.085  0.00  0.00    +0.024 C 
ENDROOT
BRANCH   5   8
ATOM      8  C   UNL     1      -1.123  -0.562   0.163  0.00  0.00    -0.014 C 
ATOM      9  C   UNL     1      -1.709  -0.190   1.526  0.00  0.00    +0.007 C 
ATOM     10  C   UNL     1      -2.010   0.007  -0.946  0.00  0.00    +0.007 C 
ENDBRANCH   5   8
BRANCH   7  11
ATOM     11  C   UNL     1       2.230   1.847   1.474  0.00  0.00    +0.105 C 
BRANCH  11  12
ATOM     12  C   UNL     1       1.467   2.646   2.499  0.00  0.00    +0.218 A 
ATOM     13  N   UNL     1       0.473   2.216   3.225  0.00  0.00    -0.112 NA
ATOM     14  N   UNL     1       0.062   3.161   3.995  0.00  0.00    -0.107 NA
ATOM     15  C   UNL     1       0.781   4.238   3.779  0.00  0.00    +0.251 A 
ATOM     16  O   UNL     1       1.685   3.931   2.826  0.00  0.00    -0.420 OA
BRANCH  15  17
ATOM     17  C   UNL     1       0.627   5.544   4.453  0.00  0.00    +0.074 A 
ATOM     18  C   UNL     1      -0.358   5.720   5.426  0.00  0.00    +0.016 A 
ATOM     19  C   UNL     1      -0.496   6.941   6.051  0.00  0.00    +0.001 A 
ATOM     20  C   UNL     1       0.339   7.993   5.717  0.00  0.00    +0.003 A 
ATOM     21  C   UNL     1       1.317   7.829   4.754  0.00  0.00    +0.039 A 
ATOM     22  C   UNL     1       1.472   6.608   4.123  0.00  0.00    +0.136 A 
ATOM     23  F   UNL     1       2.432   6.446   3.187  0.00  0.00    -0.205 F 
ENDBRANCH  15  17
ENDBRANCH  11  12
ENDBRANCH   7  11
BRANCH   4  24
ATOM     24  C   UNL     1       1.242  -1.935  -1.189  0.00  0.00    -0.071 C 
BRANCH  24  25
ATOM     25  N   UNL     1       1.782  -2.396  -2.475  0.00  0.00    +0.380 N 
ATOM     26  C   UNL     1       0.765  -2.316  -3.531  0.00  0.00    -0.076 C 
ATOM     27  C   UNL     1       1.400  -2.663  -4.880  0.00  0.00    +0.013 C 
ATOM     28  C   UNL     1       1.984  -4.077  -4.814  0.00  0.00    +0.111 C 
ATOM     29  C   UNL     1       3.004  -4.147  -3.674  0.00  0.00    +0.013 C 
ATOM     30  C   UNL     1       2.323  -3.757  -2.361  0.00  0.00    -0.076 C 
ATOM     31  H   UNL     1       2.610  -1.728  -2.755  0.00  0.00    -0.082 HD
BRANCH  28  32
ATOM     32  O   UNL     1       2.628  -4.386  -6.051  0.00  0.00    -0.392 OA
ATOM     33  H   UNL     1       3.108  -5.366  -6.192  0.00  0.00    +0.210 HD
ENDBRANCH  28  32
ENDBRANCH  24  25
ENDBRANCH   4  24
TORSDOF 7
