REMARK  Name = ZINC50370106
REMARK  4 active torsions:
REMARK  status: ('A' for Active; 'I' for Inactive)
REMARK    1  A    between atoms: C_1  and  O_2
REMARK    2  A    between atoms: O_2  and  C_3
REMARK    3  A    between atoms: C_8  and  N_10
REMARK    4  A    between atoms: N_10  and  C_11
REMARK                            x       y       z     vdW  Elec       q    Type
REMARK                         _______ _______ _______ _____ _____    ______ ____
ROOT
ATOM      1  C   UNL     1       0.131  -3.437   2.028  0.00  0.00    +0.049 C 
ATOM      2  C   UNL     1      -0.639  -3.161   3.299  0.00  0.00    -0.030 A 
ATOM      3  C   UNL     1      -1.952  -2.824   3.544  0.00  0.00    +0.019 A 
ATOM      4  C   UNL     1      -2.383  -2.628   4.845  0.00  0.00    +0.018 A 
ATOM      5  C   UNL     1      -1.492  -2.771   5.894  0.00  0.00    +0.017 A 
ATOM      6  C   UNL     1      -0.177  -3.108   5.650  0.00  0.00    +0.024 A 
ATOM      7  C   UNL     1       0.264  -3.308   4.343  0.00  0.00    +0.035 A 
ATOM      8  N   UNL     1       1.524  -3.649   3.847  0.00  0.00    -0.286 N 
ATOM      9  C   UNL     1       1.534  -3.747   2.504  0.00  0.00    +0.208 C 
ATOM     10  O   UNL     1       2.486  -4.028   1.807  0.00  0.00    -0.277 OA
ATOM     11 BR   UNL     1      -4.184  -2.164   5.188  0.00  0.00    -0.050 Br
ATOM     12  H   UNL     1       2.302  -3.799   4.406  0.00  0.00    +0.155 HD
ENDROOT
BRANCH   1  13
ATOM     13  N   UNL     1       0.132  -2.252   1.159  0.00  0.00    +0.393 N 
ATOM     14  H   UNL     1       0.803  -2.380   0.417  0.00  0.00    -0.084 HD
ATOM     15  H   UNL     1       0.381  -1.438   1.701  0.00  0.00    -0.084 HD
BRANCH  13  20
ATOM     16  C   UNL     1      -1.247  -0.773  -0.249  0.00  0.00    +0.104 C 
ATOM     17  C   UNL     1      -1.595  -1.188  -1.694  0.00  0.00    +0.030 C 
ATOM     18  C   UNL     1      -2.321  -2.547  -1.534  0.00  0.00    +0.001 C 
ATOM     19  C   UNL     1      -1.531  -3.223  -0.386  0.00  0.00    -0.013 C 
ATOM     20  C   UNL     1      -1.207  -2.066   0.583  0.00  0.00    -0.041 C 
BRANCH  16  22
ATOM     21  C   UNL     1      -0.032   1.291  -0.352  0.00  0.00    +0.194 C 
ATOM     22  O   UNL     1       0.029  -0.131  -0.219  0.00  0.00    -0.381 OA
ENDBRANCH  16  22
ENDBRANCH  13  20
ENDBRANCH   1  13
TORSDOF 3
