REMARK  Name = ZINC01834202
REMARK  5 active torsions:
REMARK  status: ('A' for Active; 'I' for Inactive)
REMARK    1  A    between atoms: C_4  and  O_7
REMARK    2  A    between atoms: O_7  and  C_8
REMARK    3  A    between atoms: C_8  and  C_9
REMARK    4  A    between atoms: C_9  and  S_10
REMARK    5  A    between atoms: S_10  and  C_11
REMARK                            x       y       z     vdW  Elec       q    Type
REMARK                         _______ _______ _______ _____ _____    ______ ____
ROOT
ATOM      1  C   UNL     1      -0.918   1.599   3.999  0.00  0.00    +0.115 A 
ATOM      2  C   UNL     1      -0.615   1.405   5.340  0.00  0.00    +0.072 A 
ATOM      3  C   UNL     1      -1.374   2.015   6.346  0.00  0.00    +0.092 A 
ATOM      4  C   UNL     1      -0.951   1.738   7.731  0.00  0.00    +0.035 A 
ATOM      5  C   UNL     1      -1.546   2.222   8.926  0.00  0.00    -0.029 A 
ATOM      6  C   UNL     1      -1.024   1.858  10.124  0.00  0.00    -0.005 A 
ATOM      7  C   UNL     1       0.098   1.019  10.169  0.00  0.00    +0.103 A 
ATOM      8  C   UNL     1       0.167   0.901   7.876  0.00  0.00    +0.089 A 
ATOM      9  S   UNL     1       0.634   0.498   6.210  0.00  0.00    -0.066 S 
ATOM     10  N   UNL     1       0.634   0.654  11.397  0.00  0.00    -0.312 N 
ATOM     11  C   UNL     1       2.019   1.128  11.529  0.00  0.00    +0.134 C 
ATOM     12  C   UNL     1       2.550   0.757  12.917  0.00  0.00    +0.178 C 
ATOM     13  O   UNL     1       2.442  -0.657  13.100  0.00  0.00    -0.377 OA
ATOM     14  C   UNL     1       1.106  -1.153  12.978  0.00  0.00    +0.178 C 
ATOM     15  C   UNL     1       0.561  -0.801  11.591  0.00  0.00    +0.134 C 
ATOM     16  C   UNL     1      -1.609   2.315  11.435  0.00  0.00    +0.039 C 
ATOM     17  C   UNL     1      -2.509   3.532  11.226  0.00  0.00    +0.005 C 
ATOM     18  C   UNL     1      -3.505   3.211  10.106  0.00  0.00    +0.005 C 
ATOM     19  C   UNL     1      -2.736   3.131   8.788  0.00  0.00    +0.036 C 
ATOM     20  N   UNL     1      -2.407   2.782   5.927  0.00  0.00    -0.234 NA
ATOM     21  C   UNL     1      -2.667   2.939   4.654  0.00  0.00    +0.223 A 
ATOM     22  N   UNL     1      -1.958   2.375   3.693  0.00  0.00    -0.228 NA
ATOM     23  N   UNL     1       0.713   0.527   9.059  0.00  0.00    -0.337 N 
ATOM     24  H   UNL     1       1.534  -0.086   9.114  0.00  0.00    +0.168 HD
ENDROOT
BRANCH   1  25
ATOM     25  S   UNL     1       0.044   0.836   2.735  0.00  0.00    -0.101 S 
BRANCH  25  26
ATOM     26  C   UNL     1      -0.824   1.446   1.269  0.00  0.00    +0.117 C 
BRANCH  26  27
ATOM     27  C   UNL     1      -0.148   0.897   0.011  0.00  0.00    +0.240 C 
BRANCH  27  28
ATOM     28  O   UNL     1      -0.833   1.379  -1.147  0.00  0.00    -0.491 OA
BRANCH  28  32
ATOM     29  C   UNL     1       0.616   0.174  -4.817  0.00  0.00    +0.000 A 
ATOM     30  C   UNL     1      -0.486   1.007  -4.749  0.00  0.00    +0.004 A 
ATOM     31  C   UNL     1      -0.973   1.412  -3.522  0.00  0.00    +0.045 A 
ATOM     32  C   UNL     1      -0.356   0.982  -2.356  0.00  0.00    +0.121 A 
ATOM     33  C   UNL     1       0.753   0.151  -2.426  0.00  0.00    +0.045 A 
ATOM     34  C   UNL     1       1.232  -0.257  -3.656  0.00  0.00    +0.004 A 
ENDBRANCH  28  32
ENDBRANCH  27  28
ENDBRANCH  26  27
ENDBRANCH  25  26
ENDBRANCH   1  25
TORSDOF 5
