REMARK  Name = ZINC04649090
REMARK  9 active torsions:
REMARK  status: ('A' for Active; 'I' for Inactive)
REMARK    1  A    between atoms: C_1  and  C_2
REMARK    2  A    between atoms: C_2  and  C_3
REMARK    3  A    between atoms: C_2  and  C_4
REMARK    4  A    between atoms: C_2  and  C_5
REMARK    5  A    between atoms: C_12  and  N_16
REMARK    6  A    between atoms: C_13  and  C_14
REMARK    7  A    between atoms: C_17  and  C_19
REMARK    8  A    between atoms: C_19  and  S_20
REMARK    9  A    between atoms: S_20  and  C_21
REMARK                            x       y       z     vdW  Elec       q    Type
REMARK                         _______ _______ _______ _____ _____    ______ ____
ROOT
ATOM      1  C   UNL     1       0.195   4.257  -0.357  0.00  0.00    -0.000 C 
ATOM      2  C   UNL     1      -0.953   3.697   0.488  0.00  0.00    +0.009 C 
ATOM      3  C   UNL     1      -1.295   2.279   0.033  0.00  0.00    +0.037 C 
ATOM      4  C   UNL     1      -0.018   1.448   0.010  0.00  0.00    -0.018 A 
ATOM      5  C   UNL     1       1.197   2.040   0.002  0.00  0.00    -0.004 A 
ATOM      6  S   UNL     1       2.353   0.699  -0.016  0.00  0.00    -0.077 S 
ATOM      7  C   UNL     1       1.240  -0.629  -0.013  0.00  0.00    +0.090 A 
ATOM      8  C   UNL     1       0.002  -0.004   0.002  0.00  0.00    +0.084 A 
ATOM      9  C   UNL     1       1.486   3.509   0.005  0.00  0.00    +0.047 C 
ENDROOT
BRANCH   1  11
ATOM     10  C   UNL     1       1.525   6.302  -0.898  0.00  0.00    +0.011 C 
ATOM     11  C   UNL     1       0.367   5.749  -0.065  0.00  0.00    -0.035 C 
ATOM     12  C   UNL     1      -0.921   6.491  -0.427  0.00  0.00    +0.011 C 
ATOM     13  C   UNL     1       0.668   5.946   1.422  0.00  0.00    +0.011 C 
ENDBRANCH   1  11
BRANCH   7  14
ATOM     14  N   UNL     1       1.520  -1.989  -0.022  0.00  0.00    -0.278 N 
ATOM     15  C   UNL     1       2.799  -2.413  -0.036  0.00  0.00    +0.228 C 
ATOM     16  O   UNL     1       3.705  -1.608  -0.040  0.00  0.00    -0.275 OA
ATOM     17  H   UNL     1       0.794  -2.633  -0.018  0.00  0.00    +0.155 HD
BRANCH  15  18
ATOM     18  C   UNL     1       3.102  -3.889  -0.046  0.00  0.00    +0.172 C 
BRANCH  18  19
ATOM     19  S   UNL     1       4.899  -4.137  -0.064  0.00  0.00    -0.088 S 
BRANCH  19  20
ATOM     20  C   UNL     1       5.088  -5.889  -0.074  0.00  0.00    +0.160 A 
ATOM     21  N   UNL     1       4.163  -6.830  -0.064  0.00  0.00    -0.133 NA
ATOM     22  N   UNL     1       4.534  -8.154  -0.080  0.00  0.00    -0.125 NA
ATOM     23  C   UNL     1       5.812  -8.478  -0.093  0.00  0.00    +0.180 A 
ATOM     24  S   UNL     1       6.583  -6.866  -0.093  0.00  0.00    -0.025 S 
ATOM     25  N   UNL     1       6.402  -9.736  -0.105  0.00  0.00    -0.336 N 
ATOM     26  H   UNL     1       7.368  -9.819  -0.114  0.00  0.00    +0.144 HD
ATOM     27  H   UNL     1       5.847 -10.532  -0.103  0.00  0.00    +0.144 HD
ENDBRANCH  19  20
ENDBRANCH  18  19
ENDBRANCH  15  18
ENDBRANCH   7  14
BRANCH   8  28
ATOM     28  C   UNL     1      -1.212  -0.763   0.008  0.00  0.00    +0.102 C 
ATOM     29  N   UNL     1      -2.176  -1.365   0.013  0.00  0.00    -0.191 NA
ENDBRANCH   8  28
TORSDOF 6
