REMARK  Name = ZINC35885238
REMARK  5 active torsions:
REMARK  status: ('A' for Active; 'I' for Inactive)
REMARK    1  A    between atoms: C_4  and  C_7
REMARK    2  A    between atoms: C_12  and  C_14
REMARK    3  A    between atoms: C_14  and  N_15
REMARK    4  A    between atoms: C_20  and  C_22
REMARK    5  A    between atoms: C_22  and  C_23
REMARK                            x       y       z     vdW  Elec       q    Type
REMARK                         _______ _______ _______ _____ _____    ______ ____
ROOT
ATOM      1  C   UNL     1       3.783  -0.591  -0.149  0.00  0.00    +0.039 C 
ATOM      2  C   UNL     1       3.890  -1.321   1.208  0.00  0.00    +0.116 C 
ATOM      3  N   UNL     1       4.486  -2.636   0.878  0.00  0.00    -0.300 N 
ATOM      4  C   UNL     1       3.834  -3.026  -0.394  0.00  0.00    +0.110 C 
ATOM      5  C   UNL     1       3.747  -1.714  -1.206  0.00  0.00    -0.001 C 
ATOM      6  C   UNL     1       5.412  -3.322   1.577  0.00  0.00    +0.220 C 
ATOM      7  O   UNL     1       5.804  -4.396   1.173  0.00  0.00    -0.275 OA
ENDROOT
BRANCH   1  11
ATOM      8  C   UNL     1       0.193   1.719  -0.311  0.00  0.00    +0.000 A 
ATOM      9  C   UNL     1       0.158   0.420   0.160  0.00  0.00    +0.000 A 
ATOM     10  C   UNL     1       1.320  -0.328   0.212  0.00  0.00    +0.004 A 
ATOM     11  C   UNL     1       2.516   0.224  -0.207  0.00  0.00    -0.043 A 
ATOM     12  C   UNL     1       2.551   1.523  -0.679  0.00  0.00    +0.004 A 
ATOM     13  C   UNL     1       1.390   2.271  -0.730  0.00  0.00    +0.000 A 
ENDBRANCH   1  11
BRANCH   5  14
ATOM     14  C   UNL     1       2.437  -1.661  -1.994  0.00  0.00    -0.073 C 
BRANCH  14  15
ATOM     15  N   UNL     1       2.492  -2.625  -3.101  0.00  0.00    +0.380 N 
ATOM     16  C   UNL     1       2.478  -4.013  -2.572  0.00  0.00    -0.079 C 
ATOM     17  C   UNL     1       1.978  -4.847  -3.778  0.00  0.00    -0.020 C 
ATOM     18  C   UNL     1       0.922  -3.921  -4.425  0.00  0.00    -0.020 C 
ATOM     19  C   UNL     1       1.283  -2.503  -3.945  0.00  0.00    -0.079 C 
ATOM     20  H   UNL     1       3.320  -2.472  -3.656  0.00  0.00    -0.082 HD
ENDBRANCH  14  15
ENDBRANCH   5  14
BRANCH   6  21
ATOM     21  C   UNL     1       5.960  -2.755   2.861  0.00  0.00    +0.138 C 
BRANCH  21  22
ATOM     22  C   UNL     1       6.972  -3.710   3.441  0.00  0.00    -0.001 A 
ATOM     23  C   UNL     1       8.310  -3.765   3.233  0.00  0.00    +0.011 A 
ATOM     24  C   UNL     1       9.049  -4.738   3.880  0.00  0.00    +0.008 A 
ATOM     25  C   UNL     1       8.413  -5.608   4.702  0.00  0.00    +0.045 A 
ATOM     26  S   UNL     1       6.719  -5.057   4.585  0.00  0.00    -0.101 S 
ENDBRANCH  21  22
ENDBRANCH   6  21
TORSDOF 5
