REMARK  Name = ZINC24848303
REMARK  13 active torsions:
REMARK  status: ('A' for Active; 'I' for Inactive)
REMARK    1  A    between atoms: C_1  and  C_2
REMARK    2  A    between atoms: C_2  and  C_3
REMARK    3  A    between atoms: C_2  and  C_4
REMARK    4  A    between atoms: C_4  and  C_5
REMARK    5  A    between atoms: C_5  and  N_6
REMARK    6  A    between atoms: C_7  and  C_28
REMARK    7  A    between atoms: C_10  and  S_11
REMARK    8  A    between atoms: S_11  and  C_12
REMARK    9  A    between atoms: C_12  and  C_13
REMARK   10  A    between atoms: C_15  and  O_16
REMARK   11  A    between atoms: C_25  and  C_27
REMARK   12  A    between atoms: C_28  and  O_29
REMARK   13  A    between atoms: O_29  and  C_30
REMARK                            x       y       z     vdW  Elec       q    Type
REMARK                         _______ _______ _______ _____ _____    ______ ____
ROOT
ATOM      1  S   UNL     1       1.071  -7.396  -1.236  0.00  0.00    -0.081 S 
ENDROOT
BRANCH   1   6
ATOM      2  N   UNL     1       3.484  -8.722  -1.732  0.00  0.00    -0.303 N 
ATOM      3  C   UNL     1       4.501  -9.235  -0.975  0.00  0.00    +0.172 A 
ATOM      4  N   UNL     1       4.199  -9.024   0.275  0.00  0.00    -0.130 NA
ATOM      5  N   UNL     1       3.071  -8.413   0.358  0.00  0.00    -0.122 NA
ATOM      6  C   UNL     1       2.589  -8.199  -0.844  0.00  0.00    +0.192 A 
BRANCH   2   7
ATOM      7  C   UNL     1       3.379  -8.729  -3.193  0.00  0.00    +0.126 C 
BRANCH   7   8
ATOM      8  C   UNL     1       4.028  -7.464  -3.758  0.00  0.00    +0.024 C 
BRANCH   8  10
ATOM      9  C   UNL     1       4.455  -6.151  -5.840  0.00  0.00    +0.007 C 
ATOM     10  C   UNL     1       3.918  -7.471  -5.284  0.00  0.00    -0.016 C 
ATOM     11  C   UNL     1       4.738  -8.633  -5.848  0.00  0.00    +0.007 C 
ENDBRANCH   8  10
ENDBRANCH   7   8
ENDBRANCH   2   7
BRANCH   3  12
ATOM     12  C   UNL     1       5.740  -9.921  -1.490  0.00  0.00    +0.305 C 
BRANCH  12  13
ATOM     13  O   UNL     1       5.493 -11.324  -1.608  0.00  0.00    -0.484 OA
BRANCH  13  14
ATOM     14  C   UNL     1       6.516 -12.095  -2.063  0.00  0.00    +0.121 A 
ATOM     15  C   UNL     1       7.730 -11.512  -2.395  0.00  0.00    +0.045 A 
ATOM     16  C   UNL     1       8.770 -12.299  -2.851  0.00  0.00    +0.004 A 
ATOM     17  C   UNL     1       8.598 -13.664  -2.989  0.00  0.00    +0.000 A 
ATOM     18  C   UNL     1       7.386 -14.246  -2.664  0.00  0.00    +0.004 A 
ATOM     19  C   UNL     1       6.345 -13.465  -2.201  0.00  0.00    +0.045 A 
ENDBRANCH  13  14
ENDBRANCH  12  13
ENDBRANCH   3  12
ENDBRANCH   1   6
BRANCH   1  20
ATOM     20  C   UNL     1       0.478  -7.013   0.430  0.00  0.00    +0.113 C 
BRANCH  20  21
ATOM     21  C   UNL     1      -0.848  -6.301   0.341  0.00  0.00    -0.020 A 
ATOM     22  C   UNL     1      -2.014  -6.998   0.339  0.00  0.00    +0.092 A 
ATOM     23  C   UNL     1      -3.242  -6.309   0.254  0.00  0.00    +0.285 A 
ATOM     24  O   UNL     1      -3.295  -4.970   0.176  0.00  0.00    -0.425 OA
ATOM     25  C   UNL     1      -2.173  -4.219   0.173  0.00  0.00    +0.141 A 
ATOM     26  C   UNL     1      -0.913  -4.841   0.254  0.00  0.00    +0.022 A 
ATOM     27  C   UNL     1       0.252  -4.067   0.252  0.00  0.00    +0.013 A 
ATOM     28  C   UNL     1       0.164  -2.708   0.166  0.00  0.00    +0.024 A 
ATOM     29  C   UNL     1      -1.081  -2.085   0.091  0.00  0.00    +0.037 A 
ATOM     30  C   UNL     1      -2.247  -2.837   0.092  0.00  0.00    +0.070 A 
ATOM     31  N   UNL     1      -1.156  -0.694   0.009  0.00  0.00    -0.286 N 
ATOM     32  C   UNL     1      -2.168  -0.037   0.609  0.00  0.00    +0.214 C 
ATOM     33  O   UNL     1      -3.058  -0.658   1.150  0.00  0.00    -0.276 OA
ATOM     34  C   UNL     1      -2.193   1.470   0.609  0.00  0.00    +0.109 C 
ATOM     35  H   UNL     1      -0.388  -0.134  -0.545  0.00  0.00    +0.155 HD
BRANCH  23  36
ATOM     36  O   UNL     1      -4.280  -6.946   0.253  0.00  0.00    -0.480 OA
ATOM     37  H   UNL     1      -5.246  -6.423   0.188  0.00  0.00    +0.295 HD
ENDBRANCH  23  36
ENDBRANCH  20  21
ENDBRANCH   1  20
TORSDOF 10
