REMARK  Name = ZINC39794097
REMARK  6 active torsions:
REMARK  status: ('A' for Active; 'I' for Inactive)
REMARK    1  A    between atoms: C_1  and  N_2
REMARK    2  A    between atoms: C_12  and  S_15
REMARK    3  A    between atoms: S_15  and  C_16
REMARK    4  A    between atoms: C_16  and  C_17
REMARK    5  A    between atoms: C_23  and  C_25
REMARK    6  A    between atoms: C_25  and  C_26
REMARK                            x       y       z     vdW  Elec       q    Type
REMARK                         _______ _______ _______ _____ _____    ______ ____
ROOT
ATOM      1  C   UNL     1       0.113  -2.645   7.305  0.00  0.00    +0.229 C 
ATOM      2  O   UNL     1       0.103  -1.536   7.795  0.00  0.00    -0.275 OA
ATOM      3  N   UNL     1       0.136  -3.733   8.100  0.00  0.00    -0.264 N 
ATOM      4  C   UNL     1       0.148  -3.584   9.482  0.00  0.00    +0.165 A 
ATOM      5  N   UNL     1       0.134  -2.472  10.184  0.00  0.00    -0.233 NA
ATOM      6  C   UNL     1       0.149  -2.498  11.504  0.00  0.00    +0.124 A 
ATOM      7  C   UNL     1       0.179  -3.718  12.095  0.00  0.00    +0.015 A 
ATOM      8  S   UNL     1       0.177  -4.783  10.662  0.00  0.00    -0.057 S 
ATOM      9  H   UNL     1       0.144  -4.620   7.707  0.00  0.00    +0.157 HD
ENDROOT
BRANCH   1  10
ATOM     10  C   UNL     1       0.100  -2.806   5.807  0.00  0.00    +0.173 C 
BRANCH  10  11
ATOM     11  S   UNL     1       0.069  -1.171   5.022  0.00  0.00    -0.075 S 
BRANCH  11  23
ATOM     12  C   UNL     1      -0.018   1.461   0.010  0.00  0.00    +0.151 C 
ATOM     13  N   UNL     1       0.002  -0.004   0.002  0.00  0.00    -0.327 N 
ATOM     14  C   UNL     1       0.007  -0.788  -1.140  0.00  0.00    +0.053 A 
ATOM     15  C   UNL     1      -0.003  -0.470  -2.494  0.00  0.00    +0.026 A 
ATOM     16  C   UNL     1       0.007  -1.474  -3.439  0.00  0.00    +0.002 A 
ATOM     17  C   UNL     1       0.027  -2.805  -3.054  0.00  0.00    +0.001 A 
ATOM     18  C   UNL     1       0.037  -3.141  -1.717  0.00  0.00    +0.012 A 
ATOM     19  C   UNL     1       0.028  -2.137  -0.752  0.00  0.00    +0.029 A 
ATOM     20  C   UNL     1       0.035  -2.145   0.721  0.00  0.00    +0.138 A 
ATOM     21  C   UNL     1       0.024  -0.793   1.125  0.00  0.00    +0.165 A 
ATOM     22  N   UNL     1       0.034  -0.524   2.427  0.00  0.00    -0.201 NA
ATOM     23  C   UNL     1       0.056  -1.526   3.297  0.00  0.00    +0.212 A 
ATOM     24  N   UNL     1       0.070  -2.791   2.892  0.00  0.00    -0.122 NA
ATOM     25  N   UNL     1       0.052  -3.099   1.640  0.00  0.00    -0.143 NA
ENDBRANCH  11  23
ENDBRANCH  10  11
ENDBRANCH   1  10
BRANCH   7  26
ATOM     26  C   UNL     1       0.203  -4.076  13.559  0.00  0.00    +0.079 C 
BRANCH  26  27
ATOM     27  C   UNL     1      -1.210  -4.222  14.063  0.00  0.00    -0.042 A 
ATOM     28  C   UNL     1      -1.879  -3.125  14.574  0.00  0.00    +0.005 A 
ATOM     29  C   UNL     1      -3.174  -3.259  15.037  0.00  0.00    +0.020 A 
ATOM     30  C   UNL     1      -3.802  -4.491  14.988  0.00  0.00    +0.041 A 
ATOM     31  C   UNL     1      -3.132  -5.588  14.477  0.00  0.00    +0.020 A 
ATOM     32  C   UNL     1      -1.839  -5.452  14.010  0.00  0.00    +0.005 A 
ATOM     33 CL   UNL     1      -5.429  -4.660  15.570  0.00  0.00    -0.084 Cl
ENDBRANCH  26  27
ENDBRANCH   7  26
TORSDOF 5
