REMARK  Name = ZINC55226379
REMARK  5 active torsions:
REMARK  status: ('A' for Active; 'I' for Inactive)
REMARK    1  A    between atoms: C_4  and  C_7
REMARK    2  A    between atoms: C_7  and  C_8
REMARK    3  A    between atoms: C_8  and  C_10
REMARK    4  A    between atoms: C_8  and  O_30
REMARK    5  A    between atoms: C_21  and  C_24
REMARK                            x       y       z     vdW  Elec       q    Type
REMARK                         _______ _______ _______ _____ _____    ______ ____
ROOT
ATOM      1  C   UNL     1       5.565  -1.599   1.378  0.00  0.00    +0.021 C 
ATOM      2  C   UNL     1       5.516  -2.923   0.612  0.00  0.00    +0.025 C 
ATOM      3  C   UNL     1       6.919  -3.537   0.573  0.00  0.00    +0.109 C 
ATOM      4  N   UNL     1       7.423  -3.654   1.948  0.00  0.00    -0.285 N 
ATOM      5  C   UNL     1       7.428  -2.458   2.802  0.00  0.00    +0.109 C 
ATOM      6  C   UNL     1       6.020  -1.856   2.817  0.00  0.00    +0.025 C 
ATOM      7  C   UNL     1       7.871  -4.835   2.417  0.00  0.00    +0.308 C 
ATOM      8  O   UNL     1       7.773  -5.837   1.735  0.00  0.00    -0.252 OA
ATOM      9  N   UNL     1       8.428  -4.906   3.643  0.00  0.00    -0.247 N 
ATOM     10  C   UNL     1       8.983  -6.098   4.084  0.00  0.00    +0.186 A 
ATOM     11  N   UNL     1       9.562  -6.359   5.242  0.00  0.00    -0.204 NA
ATOM     12  C   UNL     1      10.021  -7.583   5.436  0.00  0.00    +0.170 A 
ATOM     13  N   UNL     1       9.870  -8.459   4.464  0.00  0.00    -0.187 NA
ATOM     14  S   UNL     1       9.081  -7.571   3.282  0.00  0.00    +0.050 S 
ATOM     15  H   UNL     1       8.440  -4.123   4.216  0.00  0.00    +0.158 HD
ENDROOT
BRANCH  12  16
ATOM     16  C   UNL     1      10.685  -7.959   6.709  0.00  0.00    +0.020 A 
ATOM     17  C   UNL     1      10.829  -7.018   7.727  0.00  0.00    +0.011 A 
ATOM     18  C   UNL     1      11.448  -7.373   8.908  0.00  0.00    +0.001 A 
ATOM     19  C   UNL     1      11.924  -8.659   9.084  0.00  0.00    +0.000 A 
ATOM     20  C   UNL     1      11.784  -9.597   8.077  0.00  0.00    +0.001 A 
ATOM     21  C   UNL     1      11.162  -9.255   6.893  0.00  0.00    +0.011 A 
ENDBRANCH  12  16
BRANCH   1  22
ATOM     22  C   UNL     1       4.172  -0.965   1.390  0.00  0.00    +0.122 C 
BRANCH  22  23
ATOM     23  O   UNL     1       3.251  -1.851   2.030  0.00  0.00    -0.391 OA
ATOM     24  H   UNL     1       3.169  -2.712   1.598  0.00  0.00    +0.210 HD
ENDBRANCH  22  23
BRANCH  22  25
ATOM     25  C   UNL     1       3.717  -0.708  -0.048  0.00  0.00    +0.066 C 
BRANCH  25  29
ATOM     26  C   UNL     1      -0.013   1.375  -0.011  0.00  0.00    +0.000 A 
ATOM     27  C   UNL     1       1.174   2.083  -0.014  0.00  0.00    +0.000 A 
ATOM     28  C   UNL     1       2.381   1.409  -0.025  0.00  0.00    +0.004 A 
ATOM     29  C   UNL     1       2.401   0.027  -0.034  0.00  0.00    -0.045 A 
ATOM     30  C   UNL     1       1.214  -0.681  -0.030  0.00  0.00    +0.004 A 
ATOM     31  C   UNL     1       0.007  -0.007  -0.020  0.00  0.00    +0.000 A 
ENDBRANCH  25  29
ENDBRANCH  22  25
ENDBRANCH   1  22
TORSDOF 5
