REMARK  Name = ZINC09516799
REMARK  12 active torsions:
REMARK  status: ('A' for Active; 'I' for Inactive)
REMARK    1  A    between atoms: C_1  and  C_2
REMARK    2  A    between atoms: C_2  and  C_4
REMARK    3  A    between atoms: C_2  and  S_18
REMARK    4  A    between atoms: N_6  and  C_7
REMARK    5  A    between atoms: C_8  and  C_15
REMARK    6  A    between atoms: S_18  and  C_19
REMARK    7  A    between atoms: C_22  and  C_25
REMARK    8  A    between atoms: N_23  and  C_24
REMARK    9  A    between atoms: C_25  and  O_26
REMARK   10  A    between atoms: O_26  and  C_27
REMARK   11  A    between atoms: C_30  and  O_33
REMARK   12  A    between atoms: O_33  and  C_34
REMARK                            x       y       z     vdW  Elec       q    Type
REMARK                         _______ _______ _______ _____ _____    ______ ____
ROOT
ATOM      1  C   UNL     1       0.246  -0.503  -1.424  0.00  0.00    +0.029 C 
ATOM      2  C   UNL     1       0.002  -0.004   0.002  0.00  0.00    +0.137 C 
ENDROOT
BRANCH   2   3
ATOM      3  C   UNL     1      -0.018   1.503   0.010  0.00  0.00    +0.231 C 
ATOM      4  O   UNL     1      -1.077   2.095   0.018  0.00  0.00    -0.274 OA
ATOM      5  N   UNL     1       1.139   2.192   0.003  0.00  0.00    -0.278 N 
ATOM      6  H   UNL     1       1.986   1.719  -0.008  0.00  0.00    +0.155 HD
BRANCH   5   7
ATOM      7  C   UNL     1       1.121   3.579   0.011  0.00  0.00    +0.084 A 
ATOM      8  C   UNL     1       2.193   4.454   0.011  0.00  0.00    +0.068 A 
ATOM      9  C   UNL     1       1.899   5.886   0.016  0.00  0.00    -0.023 A 
ATOM     10  C   UNL     1       0.591   6.200   0.030  0.00  0.00    -0.004 A 
ATOM     11  S   UNL     1      -0.250   4.636   0.030  0.00  0.00    -0.077 S 
ATOM     12  C   UNL     1       0.368   7.689   0.037  0.00  0.00    +0.043 C 
ATOM     13  C   UNL     1       1.720   8.287  -0.411  0.00  0.00    +0.010 C 
ATOM     14  C   UNL     1       2.709   7.184   0.017  0.00  0.00    +0.037 C 
BRANCH   8  15
ATOM     15  C   UNL     1       3.575   3.962   0.002  0.00  0.00    +0.244 C 
ATOM     16  O   UNL     1       4.144   3.764  -1.056  0.00  0.00    -0.270 OA
ATOM     17  N   UNL     1       4.215   3.729   1.165  0.00  0.00    -0.325 N 
ATOM     18  H   UNL     1       3.761   3.887   2.008  0.00  0.00    +0.145 HD
ATOM     19  H   UNL     1       5.128   3.404   1.159  0.00  0.00    +0.145 HD
ENDBRANCH   8  15
ENDBRANCH   5   7
ENDBRANCH   2   3
BRANCH   2  20
ATOM     20  S   UNL     1      -1.587  -0.632   0.598  0.00  0.00    -0.074 S 
BRANCH  20  21
ATOM     21  C   UNL     1      -1.242  -2.360   0.629  0.00  0.00    +0.192 A 
ATOM     22  N   UNL     1      -0.112  -2.936   0.288  0.00  0.00    -0.122 NA
ATOM     23  N   UNL     1      -0.210  -4.209   0.435  0.00  0.00    -0.130 NA
ATOM     24  C   UNL     1      -1.399  -4.519   0.868  0.00  0.00    +0.172 A 
ATOM     25  N   UNL     1      -2.099  -3.353   1.006  0.00  0.00    -0.306 N 
ATOM     26  C   UNL     1      -3.482  -3.200   1.465  0.00  0.00    +0.153 C 
BRANCH  24  27
ATOM     27  C   UNL     1      -1.909  -5.907   1.161  0.00  0.00    +0.305 C 
BRANCH  27  28
ATOM     28  O   UNL     1      -2.503  -6.455  -0.018  0.00  0.00    -0.484 OA
BRANCH  28  29
ATOM     29  C   UNL     1      -3.017  -7.710   0.076  0.00  0.00    +0.121 A 
ATOM     30  C   UNL     1      -2.943  -8.402   1.276  0.00  0.00    +0.049 A 
ATOM     31  C   UNL     1      -3.469  -9.675   1.373  0.00  0.00    +0.049 A 
ATOM     32  C   UNL     1      -4.061 -10.267   0.267  0.00  0.00    +0.120 A 
ATOM     33  C   UNL     1      -4.130  -9.578  -0.935  0.00  0.00    +0.049 A 
ATOM     34  C   UNL     1      -3.608  -8.302  -1.030  0.00  0.00    +0.049 A 
BRANCH  32  35
ATOM     35  O   UNL     1      -4.574 -11.523   0.361  0.00  0.00    -0.495 OA
ATOM     36  C   UNL     1      -4.469 -12.174   1.629  0.00  0.00    +0.277 C 
ENDBRANCH  32  35
ENDBRANCH  28  29
ENDBRANCH  27  28
ENDBRANCH  24  27
ENDBRANCH  20  21
ENDBRANCH   2  20
TORSDOF 9
