REMARK  Name = ZINC58535490
REMARK  8 active torsions:
REMARK  status: ('A' for Active; 'I' for Inactive)
REMARK    1  A    between atoms: C_1  and  C_2
REMARK    2  A    between atoms: N_5  and  C_8
REMARK    3  A    between atoms: C_8  and  C_9
REMARK    4  A    between atoms: C_14  and  C_15
REMARK    5  A    between atoms: C_15  and  N_16
REMARK    6  A    between atoms: N_19  and  C_20
REMARK    7  A    between atoms: C_23  and  C_26
REMARK    8  A    between atoms: C_26  and  C_27
REMARK                            x       y       z     vdW  Elec       q    Type
REMARK                         _______ _______ _______ _____ _____    ______ ____
ROOT
ATOM      1  C   UNL     1      -2.307  -3.805   3.844  0.00  0.00    +0.141 C 
ENDROOT
BRANCH   1   7
ATOM      2  C   UNL     1      -0.146  -4.369   2.713  0.00  0.00    -0.059 A 
ATOM      3  C   UNL     1       1.159  -4.824   2.745  0.00  0.00    +0.002 A 
ATOM      4  C   UNL     1       1.722  -5.222   3.943  0.00  0.00    +0.000 A 
ATOM      5  C   UNL     1       0.980  -5.165   5.108  0.00  0.00    +0.000 A 
ATOM      6  C   UNL     1      -0.324  -4.710   5.076  0.00  0.00    +0.005 A 
ATOM      7  C   UNL     1      -0.886  -4.307   3.879  0.00  0.00    -0.029 A 
BRANCH   2   8
ATOM      8  C   UNL     1      -0.760  -3.934   1.407  0.00  0.00    -0.043 C 
BRANCH   8  13
ATOM      9  C   UNL     1      -0.047   1.553   0.026  0.00  0.00    +0.007 C 
ATOM     10  C   UNL     1      -0.023   0.023   0.009  0.00  0.00    -0.018 C 
ATOM     11  C   UNL     1      -1.458  -0.512   0.033  0.00  0.00    -0.016 C 
ATOM     12  C   UNL     1      -1.425  -2.041   0.096  0.00  0.00    -0.078 C 
ATOM     13  N   UNL     1      -0.721  -2.469   1.311  0.00  0.00    +0.382 N 
ATOM     14  C   UNL     1       0.676  -2.021   1.261  0.00  0.00    -0.078 C 
ATOM     15  C   UNL     1       0.724  -0.491   1.243  0.00  0.00    -0.016 C 
ATOM     16  H   UNL     1      -1.173  -2.069   2.119  0.00  0.00    -0.081 HD
ENDBRANCH   8  13
ENDBRANCH   2   8
ENDBRANCH   1   7
BRANCH   1  17
ATOM     17  N   UNL     1      -3.192  -4.877   3.382  0.00  0.00    -0.295 N 
ATOM     18  C   UNL     1      -4.517  -4.656   3.272  0.00  0.00    +0.304 C 
ATOM     19  O   UNL     1      -4.977  -3.566   3.555  0.00  0.00    -0.252 OA
ATOM     20  N   UNL     1      -5.332  -5.642   2.847  0.00  0.00    -0.269 N 
ATOM     21  H   UNL     1      -2.825  -5.746   3.156  0.00  0.00    +0.151 HD
ATOM     22  H   UNL     1      -4.958  -6.489   2.557  0.00  0.00    +0.156 HD
BRANCH  20  23
ATOM     23  C   UNL     1      -6.717  -5.444   2.824  0.00  0.00    +0.035 A 
ATOM     24  C   UNL     1      -7.575  -6.496   3.115  0.00  0.00    +0.023 A 
ATOM     25  C   UNL     1      -8.941  -6.297   3.092  0.00  0.00    +0.006 A 
ATOM     26  C   UNL     1      -9.455  -5.052   2.779  0.00  0.00    -0.034 A 
ATOM     27  C   UNL     1      -8.604  -4.002   2.488  0.00  0.00    +0.006 A 
ATOM     28  C   UNL     1      -7.236  -4.193   2.515  0.00  0.00    +0.023 A 
BRANCH  26  29
ATOM     29  C   UNL     1     -10.947  -4.839   2.755  0.00  0.00    +0.153 C 
BRANCH  29  30
ATOM     30  C   UNL     1     -11.405  -4.420   4.090  0.00  0.00    +0.067 C 
ATOM     31  N   UNL     1     -11.758  -4.097   5.120  0.00  0.00    -0.196 NA
ENDBRANCH  29  30
ENDBRANCH  26  29
ENDBRANCH  20  23
ENDBRANCH   1  17
TORSDOF 7
