REMARK  Name = ZINC14161299
REMARK  9 active torsions:
REMARK  status: ('A' for Active; 'I' for Inactive)
REMARK    1  A    between atoms: C_1  and  C_2
REMARK    2  A    between atoms: C_5  and  N_9
REMARK    3  A    between atoms: C_6  and  C_8
REMARK    4  A    between atoms: N_9  and  C_10
REMARK    5  A    between atoms: C_10  and  N_12
REMARK    6  A    between atoms: N_14  and  C_15
REMARK    7  A    between atoms: C_17  and  C_22
REMARK    8  A    between atoms: C_19  and  C_21
REMARK    9  A    between atoms: N_26  and  C_29
REMARK                            x       y       z     vdW  Elec       q    Type
REMARK                         _______ _______ _______ _____ _____    ______ ____
ROOT
ATOM      1  N   UNL     1      -2.533  -5.963  -3.173  0.00  0.00    -0.269 N 
ATOM      2  C   UNL     1      -1.409  -6.753  -3.214  0.00  0.00    +0.192 C 
ATOM      3  N   UNL     1      -0.239  -6.219  -3.493  0.00  0.00    -0.181 NA
ATOM      4  N   UNL     1      -1.506  -8.095  -2.964  0.00  0.00    -0.300 N 
ATOM      5  C   UNL     1      -2.818  -8.725  -2.758  0.00  0.00    +0.126 C 
ATOM      6  C   UNL     1      -2.969  -9.881  -3.754  0.00  0.00    +0.124 C 
ATOM      7  N   UNL     1      -1.763 -10.719  -3.687  0.00  0.00    -0.327 N 
ATOM      8  C   UNL     1      -0.451 -10.089  -3.893  0.00  0.00    +0.124 C 
ATOM      9  C   UNL     1      -0.301  -8.934  -2.903  0.00  0.00    +0.126 C 
ATOM     10  H   UNL     1      -2.939  -5.742  -2.321  0.00  0.00    +0.156 HD
ENDROOT
BRANCH   3  11
ATOM     11  C   UNL     1      -0.097  -4.866  -3.513  0.00  0.00    +0.253 A 
ATOM     12  N   UNL     1       0.089  -4.213  -2.368  0.00  0.00    -0.216 NA
ATOM     13  C   UNL     1       0.231  -2.900  -2.356  0.00  0.00    +0.044 A 
ATOM     14  C   UNL     1       0.184  -2.201  -3.553  0.00  0.00    +0.046 A 
ATOM     15  C   UNL     1      -0.011  -2.910  -4.729  0.00  0.00    +0.044 A 
ATOM     16  N   UNL     1      -0.141  -4.224  -4.678  0.00  0.00    -0.216 NA
ATOM     17  C   UNL     1      -0.070  -2.190  -6.052  0.00  0.00    +0.066 C 
ATOM     18  C   UNL     1       0.441  -2.168  -1.055  0.00  0.00    +0.066 C 
ENDBRANCH   3  11
BRANCH   7  19
ATOM     19  C   UNL     1      -1.863 -12.089  -3.432  0.00  0.00    +0.030 A 
ATOM     20  C   UNL     1      -3.111 -12.690  -3.336  0.00  0.00    +0.024 A 
ATOM     21  C   UNL     1      -3.206 -14.045  -3.085  0.00  0.00    +0.022 A 
ATOM     22  C   UNL     1      -2.059 -14.803  -2.927  0.00  0.00    +0.041 A 
ATOM     23  C   UNL     1      -0.814 -14.207  -3.022  0.00  0.00    +0.022 A 
ATOM     24  C   UNL     1      -0.713 -12.853  -3.280  0.00  0.00    +0.024 A 
ATOM     25 CL   UNL     1      -2.183 -16.505  -2.610  0.00  0.00    -0.084 Cl
ENDBRANCH   7  19
BRANCH   1  26
ATOM     26  C   UNL     1      -3.070  -5.497  -4.318  0.00  0.00    +0.141 C 
ATOM     27  S   UNL     1      -2.367  -5.908  -5.824  0.00  0.00    -0.018 S 
BRANCH  26  28
ATOM     28  N   UNL     1      -4.162  -4.707  -4.277  0.00  0.00    -0.296 N 
ATOM     29  H   UNL     1      -4.477  -4.359  -3.429  0.00  0.00    +0.154 HD
BRANCH  28  34
ATOM     30  C   UNL     1      -6.915  -3.423  -9.067  0.00  0.00    +0.044 C 
ATOM     31  C   UNL     1      -6.184  -3.764  -7.795  0.00  0.00    -0.050 A 
ATOM     32  C   UNL     1      -5.881  -5.082  -7.505  0.00  0.00    +0.005 A 
ATOM     33  C   UNL     1      -5.211  -5.398  -6.340  0.00  0.00    +0.024 A 
ATOM     34  C   UNL     1      -4.840  -4.391  -5.458  0.00  0.00    +0.036 A 
ATOM     35  C   UNL     1      -5.145  -3.068  -5.753  0.00  0.00    -0.029 A 
ATOM     36  C   UNL     1      -5.811  -2.758  -6.923  0.00  0.00    +0.008 A 
ATOM     37  C   UNL     1      -4.744  -1.972  -4.800  0.00  0.00    +0.045 C 
ENDBRANCH  28  34
ENDBRANCH  26  28
ENDBRANCH   1  26
TORSDOF 5
