REMARK  Name = ZINC39677947
REMARK  6 active torsions:
REMARK  status: ('A' for Active; 'I' for Inactive)
REMARK    1  A    between atoms: C_4  and  C_7
REMARK    2  A    between atoms: C_7  and  N_8
REMARK    3  A    between atoms: C_12  and  C_15
REMARK    4  A    between atoms: C_15  and  N_16
REMARK    5  A    between atoms: C_17  and  C_19
REMARK    6  A    between atoms: C_30  and  C_32
REMARK                            x       y       z     vdW  Elec       q    Type
REMARK                         _______ _______ _______ _____ _____    ______ ____
ROOT
ATOM      1  C   UNL     1       9.444  -3.115   5.967  0.00  0.00    +0.100 C 
ATOM      2  C   UNL     1       9.643  -1.745   6.651  0.00  0.00    +0.121 C 
ATOM      3  N   UNL     1      10.816  -1.935   7.536  0.00  0.00    -0.297 N 
ATOM      4  C   UNL     1      11.741  -2.781   6.744  0.00  0.00    +0.115 C 
ATOM      5  C   UNL     1      10.823  -3.792   6.029  0.00  0.00    -0.004 C 
ATOM      6  C   UNL     1      11.340  -4.069   4.620  0.00  0.00    -0.010 C 
ATOM      7  C   UNL     1      12.685  -4.795   4.709  0.00  0.00    -0.082 C 
ATOM      8  N   UNL     1      12.518  -6.053   5.446  0.00  0.00    +0.379 N 
ATOM      9  C   UNL     1      12.110  -5.773   6.828  0.00  0.00    -0.082 C 
ATOM     10  C   UNL     1      10.740  -5.089   6.829  0.00  0.00    -0.010 C 
ATOM     11  C   UNL     1      11.001  -1.449   8.779  0.00  0.00    +0.260 C 
ATOM     12  O   UNL     1      12.026  -1.695   9.380  0.00  0.00    -0.271 OA
ATOM     13  H   UNL     1      11.810  -6.614   4.995  0.00  0.00    -0.086 HD
ATOM     14  H   UNL     1      13.391  -6.558   5.450  0.00  0.00    -0.086 HD
ENDROOT
BRANCH  11  15
ATOM     15  C   UNL     1       9.935  -0.600   9.423  0.00  0.00    +0.296 C 
ATOM     16  C   UNL     1       9.786   0.717   8.650  0.00  0.00    +0.283 C 
ATOM     17  O   UNL     1       8.777   1.503   9.294  0.00  0.00    -0.484 OA
ATOM     18  C   UNL     1       8.851   1.600  10.650  0.00  0.00    +0.162 A 
ATOM     19  C   UNL     1       8.155   2.608  11.299  0.00  0.00    +0.049 A 
ATOM     20  C   UNL     1       8.217   2.717  12.675  0.00  0.00    +0.004 A 
ATOM     21  C   UNL     1       8.974   1.822  13.409  0.00  0.00    +0.004 A 
ATOM     22  C   UNL     1       9.671   0.815  12.768  0.00  0.00    +0.049 A 
ATOM     23  C   UNL     1       9.613   0.701  11.387  0.00  0.00    +0.163 A 
ATOM     24  O   UNL     1      10.311  -0.291  10.769  0.00  0.00    -0.473 OA
ENDBRANCH  11  15
BRANCH   1  26
ATOM     25  N   UNL     1       8.256  -3.865   3.930  0.00  0.00    -0.313 N 
ATOM     26  C   UNL     1       9.015  -2.929   4.534  0.00  0.00    +0.218 C 
ATOM     27  O   UNL     1       9.352  -1.937   3.924  0.00  0.00    -0.275 OA
ATOM     28  H   UNL     1       7.986  -4.659   4.418  0.00  0.00    +0.149 HD
BRANCH  25  29
ATOM     29  C   UNL     1       7.839  -3.684   2.538  0.00  0.00    +0.137 C 
BRANCH  29  34
ATOM     30  N   UNL     1       5.814  -5.884   0.203  0.00  0.00    -0.293 NA
ATOM     31  C   UNL     1       6.638  -7.095   0.334  0.00  0.00    +0.113 C 
ATOM     32  C   UNL     1       7.070  -7.256   1.794  0.00  0.00    +0.175 C 
ATOM     33  O   UNL     1       7.766  -6.079   2.212  0.00  0.00    -0.372 OA
ATOM     34  C   UNL     1       6.994  -4.881   2.099  0.00  0.00    +0.149 C 
ATOM     35  C   UNL     1       6.561  -4.696   0.642  0.00  0.00    +0.118 C 
BRANCH  30  36
ATOM     36  C   UNL     1       5.331  -5.723  -1.175  0.00  0.00    +0.119 C 
BRANCH  36  40
ATOM     37  C   UNL     1       2.613  -8.882  -2.112  0.00  0.00    +0.000 A 
ATOM     38  C   UNL     1       2.142  -7.705  -1.562  0.00  0.00    +0.000 A 
ATOM     39  C   UNL     1       3.021  -6.683  -1.259  0.00  0.00    +0.005 A 
ATOM     40  C   UNL     1       4.373  -6.837  -1.505  0.00  0.00    -0.033 A 
ATOM     41  C   UNL     1       4.845  -8.015  -2.054  0.00  0.00    +0.005 A 
ATOM     42  C   UNL     1       3.965  -9.037  -2.359  0.00  0.00    +0.000 A 
ENDBRANCH  36  40
ENDBRANCH  30  36
ENDBRANCH  29  34
ENDBRANCH  25  29
ENDBRANCH   1  26
TORSDOF 6
