REMARK  Name = ZINC05340498
REMARK  9 active torsions:
REMARK  status: ('A' for Active; 'I' for Inactive)
REMARK    1  A    between atoms: C_1  and  C_2
REMARK    2  A    between atoms: C_2  and  C_3
REMARK    3  A    between atoms: C_6  and  C_9
REMARK    4  A    between atoms: C_12  and  C_23
REMARK    5  A    between atoms: N_19  and  C_20
REMARK    6  A    between atoms: C_20  and  C_21
REMARK    7  A    between atoms: C_21  and  O_22
REMARK    8  A    between atoms: C_26  and  C_30
REMARK    9  A    between atoms: C_28  and  O_29
REMARK                            x       y       z     vdW  Elec       q    Type
REMARK                         _______ _______ _______ _____ _____    ______ ____
ROOT
ATOM      1  C   UNL     1       2.782  -1.574  -4.339  0.00  0.00    +0.141 C 
ATOM      2  C   UNL     1       3.326  -0.579  -5.327  0.00  0.00    +0.035 A 
ATOM      3  C   UNL     1       3.066   0.497  -6.182  0.00  0.00    +0.102 A 
ATOM      4  N   UNL     1       4.205   0.830  -6.755  0.00  0.00    -0.173 NA
ATOM      5  N   UNL     1       5.159   0.071  -6.347  0.00  0.00    -0.272 N 
ATOM      6  H   UNL     1       6.083   0.134  -6.635  0.00  0.00    +0.189 HD
ATOM      7  C   UNL     1       4.678  -0.838  -5.448  0.00  0.00    +0.126 A 
ATOM      8  C   UNL     1       5.018  -1.964  -4.571  0.00  0.00    +0.266 C 
ATOM      9  O   UNL     1       6.132  -2.437  -4.449  0.00  0.00    -0.268 OA
ATOM     10  N   UNL     1       3.922  -2.400  -3.922  0.00  0.00    -0.283 N 
ENDROOT
BRANCH   3  11
ATOM     11  C   UNL     1       1.749   1.144  -6.404  0.00  0.00    +0.045 A 
ATOM     12  C   UNL     1       0.601   0.610  -5.824  0.00  0.00    +0.034 A 
ATOM     13  C   UNL     1      -0.623   1.216  -6.033  0.00  0.00    +0.045 A 
ATOM     14  C   UNL     1      -0.712   2.354  -6.818  0.00  0.00    -0.029 A 
ATOM     15  C   UNL     1       0.422   2.891  -7.398  0.00  0.00    +0.050 A 
ATOM     16  C   UNL     1       1.656   2.296  -7.190  0.00  0.00    +0.126 A 
ATOM     17  C   UNL     1      -2.050   3.009  -7.041  0.00  0.00    +0.045 C 
ATOM     18 CL   UNL     1      -2.054   0.550  -5.311  0.00  0.00    -0.083 Cl
BRANCH  16  19
ATOM     19  O   UNL     1       2.772   2.827  -7.755  0.00  0.00    -0.506 OA
ATOM     20  H   UNL     1       2.970   2.480  -8.636  0.00  0.00    +0.292 HD
ENDBRANCH  16  19
ENDBRANCH   3  11
BRANCH   1  24
ATOM     21  C   UNL     1       1.127   0.461  -0.967  0.00  0.00    -0.048 A 
ATOM     22  C   UNL     1       2.492   0.477  -1.183  0.00  0.00    +0.004 A 
ATOM     23  C   UNL     1       3.028  -0.182  -2.273  0.00  0.00    +0.006 A 
ATOM     24  C   UNL     1       2.198  -0.857  -3.149  0.00  0.00    -0.022 A 
ATOM     25  C   UNL     1       0.833  -0.874  -2.933  0.00  0.00    +0.006 A 
ATOM     26  C   UNL     1       0.298  -0.219  -1.840  0.00  0.00    +0.004 A 
BRANCH  21  28
ATOM     27  C   UNL     1       0.491   0.226   1.418  0.00  0.00    +0.009 C 
ATOM     28  C   UNL     1       0.543   1.179   0.222  0.00  0.00    +0.032 C 
ENDBRANCH  21  28
ENDBRANCH   1  24
BRANCH  10  29
ATOM     29  C   UNL     1       3.874  -3.508  -2.963  0.00  0.00    +0.137 C 
BRANCH  29  30
ATOM     30  C   UNL     1       3.585  -4.813  -3.707  0.00  0.00    +0.175 C 
BRANCH  30  31
ATOM     31  O   UNL     1       4.675  -5.116  -4.580  0.00  0.00    -0.393 OA
ATOM     32  H   UNL     1       4.559  -5.933  -5.085  0.00  0.00    +0.209 HD
ENDBRANCH  30  31
ENDBRANCH  29  30
ENDBRANCH  10  29
TORSDOF 7
