REMARK  Name = ZINC19941671
REMARK  9 active torsions:
REMARK  status: ('A' for Active; 'I' for Inactive)
REMARK    1  A    between atoms: C_1  and  C_2
REMARK    2  A    between atoms: C_2  and  N_3
REMARK    3  A    between atoms: N_6  and  C_9
REMARK    4  A    between atoms: C_9  and  C_11
REMARK    5  A    between atoms: C_9  and  C_25
REMARK    6  A    between atoms: C_15  and  C_24
REMARK    7  A    between atoms: C_17  and  C_23
REMARK    8  A    between atoms: N_29  and  C_30
REMARK    9  A    between atoms: C_30  and  C_31
REMARK                            x       y       z     vdW  Elec       q    Type
REMARK                         _______ _______ _______ _____ _____    ______ ____
ROOT
ATOM      1  C   UNL     1      -1.821   7.599  -0.182  0.00  0.00    +0.162 C 
ENDROOT
BRANCH   1   2
ATOM      2  C   UNL     1      -2.006   6.115   0.003  0.00  0.00    +0.042 A 
ATOM      3  C   UNL     1      -2.232   5.323  -1.074  0.00  0.00    +0.021 A 
ATOM      4  C   UNL     1      -2.407   3.885  -0.860  0.00  0.00    -0.001 A 
ATOM      5  C   UNL     1      -2.642   3.017  -1.932  0.00  0.00    +0.013 A 
ATOM      6  C   UNL     1      -2.800   1.681  -1.698  0.00  0.00    -0.050 A 
ATOM      7  C   UNL     1      -2.729   1.175  -0.407  0.00  0.00    +0.008 A 
ATOM      8  C   UNL     1      -2.503   2.012   0.664  0.00  0.00    -0.026 A 
ATOM      9  C   UNL     1      -2.334   3.376   0.451  0.00  0.00    +0.052 A 
ATOM     10  N   UNL     1      -2.101   4.236   1.503  0.00  0.00    -0.322 N 
ATOM     11  H   UNL     1      -2.042   3.845   2.530  0.00  0.00    +0.169 HD
ATOM     12  C   UNL     1      -1.942   5.555   1.297  0.00  0.00    +0.254 A 
ATOM     13  O   UNL     1      -1.738   6.285   2.251  0.00  0.00    -0.268 OA
ATOM     14  C   UNL     1      -2.435   1.451   2.061  0.00  0.00    +0.046 C 
ATOM     15  C   UNL     1      -3.054   0.746  -2.853  0.00  0.00    +0.044 C 
ENDBRANCH   1   2
BRANCH   1  19
ATOM     16  N   UNL     1      -4.983  10.080   1.120  0.00  0.00    +0.381 N 
ATOM     17  C   UNL     1      -3.609  10.488   1.444  0.00  0.00    -0.063 C 
ATOM     18  C   UNL     1      -2.633   9.775   0.505  0.00  0.00    +0.067 C 
ATOM     19  N   UNL     1      -2.795   8.321   0.648  0.00  0.00    -0.292 NA
ATOM     20  C   UNL     1      -4.169   7.912   0.324  0.00  0.00    +0.067 C 
ATOM     21  C   UNL     1      -5.145   8.626   1.263  0.00  0.00    -0.063 C 
ATOM     22  H   UNL     1      -5.177  10.342   0.069  0.00  0.00    -0.082 HD
BRANCH  16  24
ATOM     23  C   UNL     1      -7.343  10.180   1.768  0.00  0.00    -0.017 C 
ATOM     24  C   UNL     1      -5.957  10.802   1.950  0.00  0.00    -0.082 C 
ENDBRANCH  16  24
ENDBRANCH   1  19
BRANCH   1  25
ATOM     25  C   UNL     1      -2.035   7.955  -1.631  0.00  0.00    +0.173 A 
ATOM     26  N   UNL     1      -3.175   7.949  -2.278  0.00  0.00    -0.111 NA
ATOM     27  N   UNL     1      -2.945   8.314  -3.492  0.00  0.00    -0.023 NA
ATOM     28  N   UNL     1      -1.687   8.545  -3.638  0.00  0.00    -0.044 NA
ATOM     29  N   UNL     1      -1.092   8.335  -2.513  0.00  0.00    -0.223 N 
BRANCH  29  30
ATOM     30  C   UNL     1       0.341   8.482  -2.245  0.00  0.00    +0.182 C 
BRANCH  30  31
ATOM     31  C   UNL     1       1.053   7.204  -2.606  0.00  0.00    -0.026 A 
ATOM     32  C   UNL     1       1.289   6.247  -1.637  0.00  0.00    +0.008 A 
ATOM     33  C   UNL     1       1.938   5.072  -1.968  0.00  0.00    +0.038 A 
ATOM     34  C   UNL     1       2.361   4.859  -3.269  0.00  0.00    +0.123 A 
ATOM     35  C   UNL     1       2.128   5.820  -4.238  0.00  0.00    +0.038 A 
ATOM     36  C   UNL     1       1.475   6.992  -3.906  0.00  0.00    +0.008 A 
ATOM     37  F   UNL     1       2.999   3.713  -3.593  0.00  0.00    -0.205 F 
ENDBRANCH  30  31
ENDBRANCH  29  30
ENDBRANCH   1  25
TORSDOF 6
