REMARK  Name = ZINC05197740
REMARK  8 active torsions:
REMARK  status: ('A' for Active; 'I' for Inactive)
REMARK    1  A    between atoms: C_1  and  C_2
REMARK    2  A    between atoms: C_5  and  C_26
REMARK    3  A    between atoms: C_6  and  O_8
REMARK    4  A    between atoms: O_8  and  C_9
REMARK    5  A    between atoms: C_9  and  C_10
REMARK    6  A    between atoms: N_12  and  C_13
REMARK    7  A    between atoms: C_26  and  C_27
REMARK    8  A    between atoms: C_26  and  C_28
REMARK                            x       y       z     vdW  Elec       q    Type
REMARK                         _______ _______ _______ _____ _____    ______ ____
ROOT
ATOM      1  C   UNL     1       4.865   4.969   0.087  0.00  0.00    +0.255 C 
ATOM      2  O   UNL     1       5.653   4.047   0.075  0.00  0.00    -0.272 OA
ATOM      3  N   UNL     1       3.542   4.726  -0.004  0.00  0.00    -0.283 N 
ATOM      4  H   UNL     1       2.916   5.465  -0.060  0.00  0.00    +0.155 HD
ENDROOT
BRANCH   3   5
ATOM      5  C   UNL     1       3.072   3.409  -0.017  0.00  0.00    +0.037 A 
ATOM      6  C   UNL     1       1.862   3.100   0.599  0.00  0.00    +0.024 A 
ATOM      7  C   UNL     1       1.393   1.805   0.589  0.00  0.00    +0.014 A 
ATOM      8  C   UNL     1       2.132   0.806  -0.038  0.00  0.00    +0.028 A 
ATOM      9  C   UNL     1       1.934  -0.642  -0.233  0.00  0.00    +0.028 A 
ATOM     10  C   UNL     1       0.938  -1.540   0.136  0.00  0.00    +0.012 A 
ATOM     11  C   UNL     1       1.052  -2.870  -0.211  0.00  0.00    +0.001 A 
ATOM     12  C   UNL     1       2.156  -3.310  -0.924  0.00  0.00    +0.004 A 
ATOM     13  C   UNL     1       3.150  -2.428  -1.295  0.00  0.00    +0.047 A 
ATOM     14  C   UNL     1       3.051  -1.084  -0.955  0.00  0.00    +0.136 A 
ATOM     15  O   UNL     1       3.860  -0.026  -1.186  0.00  0.00    -0.455 OA
ATOM     16  C   UNL     1       3.351   1.110  -0.659  0.00  0.00    +0.138 A 
ATOM     17  C   UNL     1       3.813   2.420  -0.643  0.00  0.00    +0.070 A 
ENDBRANCH   3   5
BRANCH   1  18
ATOM     18  C   UNL     1       5.365   6.385   0.205  0.00  0.00    +0.324 C 
BRANCH  18  19
ATOM     19  O   UNL     1       6.791   6.382   0.287  0.00  0.00    -0.482 OA
BRANCH  19  25
ATOM     20  C   UNL     1       6.459  11.243   0.573  0.00  0.00    +0.044 C 
ATOM     21  C   UNL     1       7.278   9.978   0.541  0.00  0.00    -0.047 A 
ATOM     22  C   UNL     1       8.657  10.046   0.625  0.00  0.00    +0.004 A 
ATOM     23  C   UNL     1       9.411   8.888   0.595  0.00  0.00    +0.008 A 
ATOM     24  C   UNL     1       8.789   7.659   0.482  0.00  0.00    -0.003 A 
ATOM     25  C   UNL     1       7.406   7.589   0.398  0.00  0.00    +0.125 A 
ATOM     26  C   UNL     1       6.652   8.753   0.422  0.00  0.00    +0.049 A 
BRANCH  24  27
ATOM     27  C   UNL     1       9.611   6.397   0.450  0.00  0.00    +0.016 C 
ATOM     28  C   UNL     1      10.564   6.439  -0.746  0.00  0.00    +0.012 C 
ATOM     29  C   UNL     1      10.421   6.284   1.744  0.00  0.00    +0.012 C 
ENDBRANCH  24  27
ENDBRANCH  19  25
ENDBRANCH  18  19
ENDBRANCH   1  18
TORSDOF 5
