REMARK  Name = ZINC02917117
REMARK  10 active torsions:
REMARK  status: ('A' for Active; 'I' for Inactive)
REMARK    1  A    between atoms: C_1  and  C_2
REMARK    2  A    between atoms: C_2  and  C_3
REMARK    3  A    between atoms: C_3  and  C_4
REMARK    4  A    between atoms: C_4  and  S_5
REMARK    5  A    between atoms: S_5  and  C_6
REMARK    6  A    between atoms: C_19  and  C_22
REMARK    7  A    between atoms: C_24  and  O_30
REMARK    8  A    between atoms: C_25  and  O_29
REMARK    9  A    between atoms: O_30  and  C_31
REMARK   10  A    between atoms: C_31  and  C_32
REMARK                            x       y       z     vdW  Elec       q    Type
REMARK                         _______ _______ _______ _____ _____    ______ ____
ROOT
ATOM      1  C   UNL     1       0.561  -3.914   2.057  0.00  0.00    +0.212 A 
ATOM      2  N   UNL     1       0.859  -2.638   1.831  0.00  0.00    -0.184 NA
ATOM      3  C   UNL     1      -0.115  -1.784   1.568  0.00  0.00    +0.248 A 
ATOM      4  C   UNL     1      -1.444  -2.261   1.528  0.00  0.00    +0.156 A 
ATOM      5  N   UNL     1      -1.673  -3.543   1.765  0.00  0.00    -0.141 NA
ATOM      6  N   UNL     1      -0.695  -4.341   2.022  0.00  0.00    -0.122 NA
ATOM      7  C   UNL     1      -2.546  -1.326   1.218  0.00  0.00    +0.028 A 
ATOM      8  C   UNL     1      -3.702  -1.284   1.987  0.00  0.00    +0.012 A 
ATOM      9  C   UNL     1      -4.715  -0.405   1.657  0.00  0.00    +0.001 A 
ATOM     10  C   UNL     1      -4.585   0.434   0.563  0.00  0.00    +0.002 A 
ATOM     11  C   UNL     1      -3.438   0.407  -0.208  0.00  0.00    +0.024 A 
ATOM     12  C   UNL     1      -2.412  -0.463   0.114  0.00  0.00    +0.039 A 
ATOM     13  N   UNL     1      -1.224  -0.493  -0.622  0.00  0.00    -0.305 N 
ATOM     14  C   UNL     1       0.002  -0.004   0.002  0.00  0.00    +0.294 C 
ATOM     15  O   UNL     1       0.138  -0.473   1.339  0.00  0.00    -0.449 OA
ATOM     16  H   UNL     1      -1.214  -0.832  -1.531  0.00  0.00    +0.150 HD
ENDROOT
BRANCH  14  17
ATOM     17  C   UNL     1      -0.018   1.503   0.010  0.00  0.00    +0.016 A 
ATOM     18  C   UNL     1       0.505   2.194   1.088  0.00  0.00    +0.058 A 
ATOM     19  C   UNL     1       0.487   3.579   1.097  0.00  0.00    +0.163 A 
ATOM     20  C   UNL     1      -0.058   4.273   0.021  0.00  0.00    +0.173 A 
ATOM     21  C   UNL     1      -0.581   3.574  -1.056  0.00  0.00    +0.063 A 
ATOM     22  C   UNL     1      -0.555   2.191  -1.062  0.00  0.00    +0.028 A 
ATOM     23 BR   UNL     1      -1.323   4.512  -2.521  0.00  0.00    -0.046 Br
BRANCH  20  24
ATOM     24  O   UNL     1      -0.077   5.633   0.026  0.00  0.00    -0.503 OA
ATOM     25  H   UNL     1       0.708   6.039  -0.365  0.00  0.00    +0.292 HD
ENDBRANCH  20  24
BRANCH  19  26
ATOM     26  O   UNL     1       1.002   4.260   2.156  0.00  0.00    -0.489 OA
BRANCH  26  27
ATOM     27  C   UNL     1       1.544   3.482   3.226  0.00  0.00    +0.226 C 
ATOM     28  C   UNL     1       2.071   4.415   4.318  0.00  0.00    +0.048 C 
ENDBRANCH  26  27
ENDBRANCH  19  26
ENDBRANCH  14  17
BRANCH   1  29
ATOM     29  S   UNL     1       1.855  -5.058   2.408  0.00  0.00    -0.084 S 
BRANCH  29  30
ATOM     30  C   UNL     1       0.888  -6.573   2.617  0.00  0.00    +0.077 C 
BRANCH  30  31
ATOM     31  C   UNL     1       1.827  -7.737   2.938  0.00  0.00    +0.011 C 
BRANCH  31  33
ATOM     32  C   UNL     1       1.948 -10.183   3.436  0.00  0.00    +0.004 C 
ATOM     33  C   UNL     1       1.009  -9.018   3.115  0.00  0.00    -0.003 C 
ENDBRANCH  31  33
ENDBRANCH  30  31
ENDBRANCH  29  30
ENDBRANCH   1  29
TORSDOF 8
