REMARK  Name = ZINC26112447
REMARK  4 active torsions:
REMARK  status: ('A' for Active; 'I' for Inactive)
REMARK    1  A    between atoms: C_1  and  C_2
REMARK    2  A    between atoms: C_8  and  S_12
REMARK    3  A    between atoms: S_12  and  N_15
REMARK    4  A    between atoms: C_19  and  C_21
REMARK                            x       y       z     vdW  Elec       q    Type
REMARK                         _______ _______ _______ _____ _____    ______ ____
ROOT
ATOM      1  S   UNL     1      -0.347   1.284  -2.747  0.00  0.00    +0.063 S 
ATOM      2  O   UNL     1      -0.908   2.340  -3.514  0.00  0.00    -0.153 OA
ATOM      3  O   UNL     1       1.042   0.983  -2.768  0.00  0.00    -0.153 OA
ENDROOT
BRANCH   1  11
ATOM      4  C   UNL     1       0.121  -5.108  -0.773  0.00  0.00    +0.045 C 
ATOM      5  C   UNL     1      -0.259  -3.818  -1.453  0.00  0.00    -0.032 A 
ATOM      6  C   UNL     1      -1.232  -3.812  -2.412  0.00  0.00    +0.015 A 
ATOM      7  C   UNL     1      -1.556  -2.585  -3.021  0.00  0.00    +0.003 A 
ATOM      8  C   UNL     1      -2.545  -2.501  -4.015  0.00  0.00    +0.010 A 
ATOM      9  C   UNL     1      -2.829  -1.295  -4.580  0.00  0.00    +0.003 A 
ATOM     10  C   UNL     1      -2.151  -0.143  -4.186  0.00  0.00    +0.031 A 
ATOM     11  C   UNL     1      -1.188  -0.188  -3.226  0.00  0.00    +0.131 A 
ATOM     12  C   UNL     1      -0.863  -1.415  -2.622  0.00  0.00    +0.097 A 
ATOM     13  N   UNL     1       0.076  -1.490  -1.674  0.00  0.00    -0.253 NA
ATOM     14  C   UNL     1       0.381  -2.631  -1.104  0.00  0.00    +0.114 A 
ENDBRANCH   1  11
BRANCH   1  15
ATOM     15  N   UNL     1      -0.743   1.582  -1.167  0.00  0.00    -0.169 NA
ATOM     16  C   UNL     1      -1.888   2.391  -0.701  0.00  0.00    +0.110 C 
ATOM     17  C   UNL     1      -2.185   1.874   0.728  0.00  0.00    +0.019 C 
ATOM     18  C   UNL     1      -0.756   1.594   1.262  0.00  0.00    +0.027 C 
ATOM     19  C   UNL     1      -0.013   1.086   0.008  0.00  0.00    +0.116 C 
BRANCH  19  20
ATOM     20  C   UNL     1       1.397   1.617  -0.003  0.00  0.00    +0.009 A 
ATOM     21  C   UNL     1       2.549   0.988   0.336  0.00  0.00    +0.013 A 
ATOM     22  C   UNL     1       3.743   1.680   0.244  0.00  0.00    +0.008 A 
ATOM     23  C   UNL     1       3.725   2.970  -0.172  0.00  0.00    +0.045 A 
ATOM     24  S   UNL     1       1.983   3.241  -0.457  0.00  0.00    -0.100 S 
ENDBRANCH  19  20
ENDBRANCH   1  15
TORSDOF 3
