REMARK  Name = ZINC36308816
REMARK  14 active torsions:
REMARK  status: ('A' for Active; 'I' for Inactive)
REMARK    1  A    between atoms: C_1  and  C_2
REMARK    2  A    between atoms: C_6  and  O_8
REMARK    3  A    between atoms: O_8  and  C_9
REMARK    4  A    between atoms: C_10  and  C_21
REMARK    5  A    between atoms: C_11  and  C_15
REMARK    6  A    between atoms: N_13  and  C_14
REMARK    7  A    between atoms: C_21  and  N_22
REMARK    8  A    between atoms: N_22  and  C_23
REMARK    9  A    between atoms: N_22  and  C_30
REMARK   10  A    between atoms: C_23  and  C_24
REMARK   11  A    between atoms: C_30  and  C_31
REMARK   12  A    between atoms: C_31  and  C_32
REMARK   13  A    between atoms: C_31  and  C_33
REMARK   14  A    between atoms: C_31  and  O_35
REMARK                            x       y       z     vdW  Elec       q    Type
REMARK                         _______ _______ _______ _____ _____    ______ ____
ROOT
ATOM      1  C   UNL     1      -1.262  -5.764   1.448  0.00  0.00    +0.221 A 
ATOM      2  C   UNL     1      -0.837  -6.067   2.701  0.00  0.00    +0.025 A 
ATOM      3  C   UNL     1      -0.522  -7.439   2.729  0.00  0.00    +0.098 A 
ATOM      4  N   UNL     1      -0.751  -7.936   1.532  0.00  0.00    -0.168 NA
ATOM      5  N   UNL     1      -1.222  -6.904   0.711  0.00  0.00    -0.235 N 
ATOM      6  C   UNL     1      -1.603  -7.031  -0.698  0.00  0.00    +0.176 C 
ENDROOT
BRANCH   3   7
ATOM      7  C   UNL     1      -0.018  -8.193   3.904  0.00  0.00    +0.002 A 
ATOM      8  C   UNL     1       0.982  -7.649   4.707  0.00  0.00    +0.010 A 
ATOM      9  C   UNL     1       1.447  -8.355   5.799  0.00  0.00    +0.001 A 
ATOM     10  C   UNL     1       0.923  -9.600   6.094  0.00  0.00    +0.000 A 
ATOM     11  C   UNL     1      -0.069 -10.145   5.299  0.00  0.00    +0.001 A 
ATOM     12  C   UNL     1      -0.546  -9.445   4.210  0.00  0.00    +0.010 A 
ENDBRANCH   3   7
BRANCH   1  13
ATOM     13  O   UNL     1      -1.661  -4.542   1.012  0.00  0.00    -0.438 OA
BRANCH  13  19
ATOM     14  C   UNL     1      -0.585  -0.401  -1.337  0.00  0.00    +0.044 C 
ATOM     15  C   UNL     1      -0.170  -1.716  -0.729  0.00  0.00    -0.047 A 
ATOM     16  C   UNL     1       1.155  -2.108  -0.767  0.00  0.00    +0.003 A 
ATOM     17  C   UNL     1       1.539  -3.313  -0.209  0.00  0.00    +0.004 A 
ATOM     18  C   UNL     1       0.598  -4.131   0.387  0.00  0.00    +0.046 A 
ATOM     19  C   UNL     1      -0.733  -3.740   0.426  0.00  0.00    +0.131 A 
ATOM     20  C   UNL     1      -1.114  -2.527  -0.130  0.00  0.00    +0.049 A 
ENDBRANCH  13  19
ENDBRANCH   1  13
BRANCH   2  21
ATOM     21  C   UNL     1      -0.724  -5.106   3.857  0.00  0.00    -0.035 C 
BRANCH  21  22
ATOM     22  N   UNL     1      -2.045  -4.926   4.475  0.00  0.00    +0.386 N 
ATOM     23  H   UNL     1      -2.678  -4.521   3.802  0.00  0.00    -0.081 HD
BRANCH  22  24
ATOM     24  C   UNL     1      -2.562  -6.229   4.914  0.00  0.00    -0.046 C 
BRANCH  24  25
ATOM     25  C   UNL     1      -4.019  -6.076   5.357  0.00  0.00    +0.102 C 
ATOM     26  C   UNL     1      -4.633  -7.463   5.674  0.00  0.00    +0.032 C 
ATOM     27  C   UNL     1      -5.763  -7.065   6.662  0.00  0.00    +0.030 C 
ATOM     28  C   UNL     1      -5.138  -5.870   7.413  0.00  0.00    +0.160 C 
ATOM     29  O   UNL     1      -4.090  -5.341   6.589  0.00  0.00    -0.378 OA
ENDBRANCH  24  25
ENDBRANCH  22  24
BRANCH  22  30
ATOM     30  C   UNL     1      -1.925  -4.031   5.634  0.00  0.00    -0.039 C 
BRANCH  30  31
ATOM     31  C   UNL     1      -1.563  -2.623   5.156  0.00  0.00    +0.067 C 
ATOM     32  C   UNL     1      -2.538  -2.190   4.059  0.00  0.00    +0.044 C 
BRANCH  31  33
ATOM     33  C   UNL     1      -1.649  -1.662   6.313  0.00  0.00    -0.003 C 
ATOM     34  C   UNL     1      -0.624  -0.903   6.612  0.00  0.00    +0.006 C 
ENDBRANCH  31  33
BRANCH  31  35
ATOM     35  O   UNL     1      -0.232  -2.624   4.636  0.00  0.00    -0.387 OA
ATOM     36  H   UNL     1       0.448  -2.818   5.296  0.00  0.00    +0.210 HD
ENDBRANCH  31  35
ENDBRANCH  30  31
ENDBRANCH  22  30
ENDBRANCH  21  22
ENDBRANCH   2  21
TORSDOF 11
