REMARK  Name = ZINC34686429
REMARK  13 active torsions:
REMARK  status: ('A' for Active; 'I' for Inactive)
REMARK    1  A    between atoms: C_1  and  C_2
REMARK    2  A    between atoms: C_2  and  C_3
REMARK    3  A    between atoms: C_3  and  C_5
REMARK    4  A    between atoms: C_3  and  O_15
REMARK    5  A    between atoms: N_7  and  C_8
REMARK    6  A    between atoms: C_8  and  C_9
REMARK    7  A    between atoms: C_9  and  N_10
REMARK    8  A    between atoms: O_15  and  C_16
REMARK    9  A    between atoms: C_22  and  C_33
REMARK   10  A    between atoms: C_27  and  C_29
REMARK   11  A    between atoms: C_29  and  C_30
REMARK   12  A    between atoms: C_30  and  C_31
REMARK   13  A    between atoms: C_30  and  C_32
REMARK                            x       y       z     vdW  Elec       q    Type
REMARK                         _______ _______ _______ _____ _____    ______ ____
ROOT
ATOM      1  C   UNL     1      -2.649   1.098  -1.221  0.00  0.00    +0.122 A 
ATOM      2  C   UNL     1      -2.569   1.941  -0.122  0.00  0.00    +0.046 A 
ATOM      3  C   UNL     1      -3.158   3.186  -0.170  0.00  0.00    +0.007 A 
ATOM      4  C   UNL     1      -3.830   3.608  -1.311  0.00  0.00    -0.040 A 
ATOM      5  C   UNL     1      -3.902   2.776  -2.406  0.00  0.00    -0.016 A 
ATOM      6  C   UNL     1      -3.311   1.521  -2.361  0.00  0.00    +0.051 A 
ATOM      7  C   UNL     1      -4.590   3.183  -3.685  0.00  0.00    +0.137 C 
ATOM      8  N   UNL     1      -5.364   4.408  -3.462  0.00  0.00    -0.290 N 
ATOM      9  C   UNL     1      -4.716   5.488  -2.699  0.00  0.00    +0.113 C 
ATOM     10  C   UNL     1      -4.462   4.976  -1.282  0.00  0.00    +0.054 C 
ATOM     11  C   UNL     1      -6.619   4.540  -3.935  0.00  0.00    +0.217 C 
ATOM     12  O   UNL     1      -7.130   3.635  -4.559  0.00  0.00    -0.276 OA
ENDROOT
BRANCH   7  13
ATOM     13  C   UNL     1      -3.556   3.432  -4.753  0.00  0.00    -0.022 A 
ATOM     14  C   UNL     1      -3.641   2.772  -5.965  0.00  0.00    +0.008 A 
ATOM     15  C   UNL     1      -2.694   3.000  -6.945  0.00  0.00    +0.038 A 
ATOM     16  C   UNL     1      -1.659   3.890  -6.713  0.00  0.00    +0.123 A 
ATOM     17  C   UNL     1      -1.575   4.551  -5.499  0.00  0.00    +0.038 A 
ATOM     18  C   UNL     1      -2.526   4.325  -4.523  0.00  0.00    +0.008 A 
ATOM     19  F   UNL     1      -0.733   4.114  -7.670  0.00  0.00    -0.205 F 
ENDBRANCH   7  13
BRANCH   1  20
ATOM     20  O   UNL     1      -2.075  -0.134  -1.181  0.00  0.00    -0.480 OA
BRANCH  20  21
ATOM     21  C   UNL     1      -2.086  -0.894  -2.391  0.00  0.00    +0.258 C 
BRANCH  21  22
ATOM     22  C   UNL     1      -0.778  -1.629  -2.535  0.00  0.00    +0.254 C 
ATOM     23  O   UNL     1       0.042  -1.586  -1.643  0.00  0.00    -0.272 OA
ATOM     24  N   UNL     1      -0.521  -2.333  -3.654  0.00  0.00    -0.314 N 
ATOM     25  H   UNL     1      -1.177  -2.368  -4.368  0.00  0.00    +0.149 HD
BRANCH  24  26
ATOM     26  C   UNL     1       0.751  -3.047  -3.794  0.00  0.00    +0.086 C 
BRANCH  26  27
ATOM     27  C   UNL     1       0.789  -3.761  -5.147  0.00  0.00    -0.060 C 
BRANCH  27  28
ATOM     28  N   UNL     1       2.064  -4.477  -5.286  0.00  0.00    +0.381 N 
ATOM     29  C   UNL     1       2.119  -5.617  -4.335  0.00  0.00    -0.079 C 
ATOM     30  C   UNL     1       3.179  -6.554  -4.965  0.00  0.00    -0.020 C 
ATOM     31  C   UNL     1       2.905  -6.417  -6.480  0.00  0.00    -0.020 C 
ATOM     32  C   UNL     1       2.169  -5.074  -6.636  0.00  0.00    -0.079 C 
ATOM     33  H   UNL     1       2.836  -3.849  -5.123  0.00  0.00    -0.082 HD
ENDBRANCH  27  28
ENDBRANCH  26  27
ENDBRANCH  24  26
ENDBRANCH  21  22
BRANCH  21  35
ATOM     34  C   UNL     1      -4.570  -1.154  -2.330  0.00  0.00    +0.008 C 
ATOM     35  C   UNL     1      -3.236  -1.902  -2.350  0.00  0.00    +0.051 C 
ENDBRANCH  21  35
ENDBRANCH  20  21
ENDBRANCH   1  20
BRANCH  11  36
ATOM     36  C   UNL     1      -7.388   5.812  -3.687  0.00  0.00    +0.099 C 
BRANCH  36  37
ATOM     37  C   UNL     1      -8.774   5.703  -4.325  0.00  0.00    -0.008 C 
ATOM     38  C   UNL     1      -9.599   6.941  -3.968  0.00  0.00    +0.008 C 
ATOM     39  C   UNL     1      -8.630   5.606  -5.845  0.00  0.00    +0.008 C 
ENDBRANCH  36  37
ENDBRANCH  11  36
TORSDOF 10
