REMARK  Name = ZINC65183084
REMARK  6 active torsions:
REMARK  status: ('A' for Active; 'I' for Inactive)
REMARK    1  A    between atoms: C_1  and  N_2
REMARK    2  A    between atoms: N_2  and  C_3
REMARK    3  A    between atoms: C_3  and  C_4
REMARK    4  A    between atoms: C_4  and  C_5
REMARK    5  A    between atoms: C_8  and  C_11
REMARK    6  A    between atoms: C_22  and  C_24
REMARK                            x       y       z     vdW  Elec       q    Type
REMARK                         _______ _______ _______ _____ _____    ______ ____
ROOT
ATOM      1  C   UNL     1      -0.580  -1.508   3.285  0.00  0.00    +0.139 C 
ATOM      2  N   UNL     1       0.450  -2.207   3.596  0.00  0.00    -0.072 NA
ATOM      3  O   UNL     1       0.275  -2.838   4.851  0.00  0.00    -0.367 OA
ATOM      4  C   UNL     1      -1.026  -2.450   5.320  0.00  0.00    +0.318 C 
ATOM      5  N   UNL     1      -1.547  -1.572   4.261  0.00  0.00    -0.291 N 
ATOM      6  H   UNL     1      -2.408  -1.125   4.251  0.00  0.00    +0.151 HD
ENDROOT
BRANCH   4   7
ATOM      7  C   UNL     1      -0.912  -1.683   6.640  0.00  0.00    +0.165 C 
ATOM      8  C   UNL     1      -2.286  -1.298   7.139  0.00  0.00    +0.012 C 
ATOM      9  C   UNL     1      -2.431  -1.902   8.341  0.00  0.00    -0.002 A 
ATOM     10  C   UNL     1      -3.526  -1.921   9.319  0.00  0.00    +0.029 A 
ATOM     11  C   UNL     1      -3.375  -2.634  10.459  0.00  0.00    +0.042 A 
ATOM     12  C   UNL     1      -2.201  -3.354  10.729  0.00  0.00    +0.022 A 
ATOM     13  C   UNL     1      -1.153  -3.384   9.879  0.00  0.00    +0.027 A 
ATOM     14  C   UNL     1      -1.204  -2.670   8.649  0.00  0.00    +0.043 A 
ATOM     15  N   UNL     1      -0.332  -2.545   7.676  0.00  0.00    -0.373 N 
ATOM     16 CL   UNL     1      -4.667  -2.658  11.618  0.00  0.00    -0.084 Cl
ATOM     17  H   UNL     1       0.547  -2.953   7.646  0.00  0.00    +0.160 HD
ENDBRANCH   4   7
BRANCH   1  18
ATOM     18  C   UNL     1      -0.710  -0.711   2.013  0.00  0.00    +0.094 C 
BRANCH  18  19
ATOM     19  C   UNL     1       0.558  -0.879   1.173  0.00  0.00    +0.115 C 
BRANCH  19  21
ATOM     20  C   UNL     1       0.883   1.289  -0.105  0.00  0.00    +0.132 C 
ATOM     21  N   UNL     1       0.431  -0.104  -0.064  0.00  0.00    -0.300 N 
ATOM     22  C   UNL     1      -0.102  -0.673  -1.163  0.00  0.00    +0.249 C 
ATOM     23  O   UNL     1      -0.564  -1.796  -1.104  0.00  0.00    -0.270 OA
BRANCH  22  24
ATOM     24  C   UNL     1      -0.124   0.068  -2.441  0.00  0.00    +0.075 A 
ATOM     25  C   UNL     1       0.997   0.793  -2.851  0.00  0.00    +0.054 A 
ATOM     26  C   UNL     1       0.969   1.483  -4.047  0.00  0.00    +0.124 A 
ATOM     27  C   UNL     1      -0.168   1.458  -4.839  0.00  0.00    +0.041 A 
ATOM     28  C   UNL     1      -1.281   0.743  -4.440  0.00  0.00    +0.042 A 
ATOM     29  C   UNL     1      -1.266   0.043  -3.248  0.00  0.00    +0.136 A 
ATOM     30  F   UNL     1      -2.352  -0.661  -2.861  0.00  0.00    -0.205 F 
ATOM     31  F   UNL     1       2.053   2.185  -4.445  0.00  0.00    -0.205 F 
ENDBRANCH  22  24
ENDBRANCH  19  21
ENDBRANCH  18  19
ENDBRANCH   1  18
TORSDOF 5
