REMARK  Name = ZINC02773641
REMARK  7 active torsions:
REMARK  status: ('A' for Active; 'I' for Inactive)
REMARK    1  A    between atoms: C_1  and  O_2
REMARK    2  A    between atoms: O_2  and  C_3
REMARK    3  A    between atoms: C_5  and  C_18
REMARK    4  A    between atoms: C_8  and  O_9
REMARK    5  A    between atoms: O_9  and  C_10
REMARK    6  A    between atoms: C_10  and  C_11
REMARK    7  A    between atoms: N_24  and  C_25
REMARK                            x       y       z     vdW  Elec       q    Type
REMARK                         _______ _______ _______ _____ _____    ______ ____
ROOT
ATOM      1  C   UNL     1      -0.563   1.575  -1.120  0.00  0.00    +0.028 C 
ATOM      2  C   UNL     1      -1.467   1.898  -0.160  0.00  0.00    +0.078 C 
ATOM      3  C   UNL     1      -1.497   3.064   0.744  0.00  0.00    +0.256 C 
ATOM      4  O   UNL     1      -0.632   3.920   0.707  0.00  0.00    -0.269 OA
ATOM      5  N   UNL     1      -2.505   3.136   1.596  0.00  0.00    -0.260 N 
ATOM      6  C   UNL     1      -3.474   2.157   1.623  0.00  0.00    +0.166 C 
ATOM      7  N   UNL     1      -4.533   2.075   2.399  0.00  0.00    -0.225 NA
ATOM      8  S   UNL     1      -2.945   1.029   0.344  0.00  0.00    -0.049 S 
ATOM      9  H   UNL     1      -2.564   3.886   2.208  0.00  0.00    +0.157 HD
ENDROOT
BRANCH   7  10
ATOM     10  C   UNL     1      -5.365   1.000   2.305  0.00  0.00    +0.074 A 
ATOM     11  C   UNL     1      -4.861  -0.294   2.356  0.00  0.00    +0.028 A 
ATOM     12  C   UNL     1      -5.711  -1.387   2.264  0.00  0.00    +0.003 A 
ATOM     13  C   UNL     1      -7.056  -1.240   2.114  0.00  0.00    +0.008 A 
ATOM     14  C   UNL     1      -7.635   0.038   2.050  0.00  0.00    -0.016 A 
ATOM     15  C   UNL     1      -6.807   1.183   2.144  0.00  0.00    +0.008 A 
ATOM     16  C   UNL     1      -7.379   2.459   2.080  0.00  0.00    +0.010 A 
ATOM     17  C   UNL     1      -8.728   2.585   1.929  0.00  0.00    +0.001 A 
ATOM     18  C   UNL     1      -9.546   1.461   1.837  0.00  0.00    +0.001 A 
ATOM     19  C   UNL     1      -9.022   0.206   1.895  0.00  0.00    +0.008 A 
ENDBRANCH   7  10
BRANCH   1  22
ATOM     20  C   UNL     1       2.753   3.026  -2.106  0.00  0.00    +0.164 A 
ATOM     21  C   UNL     1       1.784   2.111  -1.740  0.00  0.00    +0.057 A 
ATOM     22  C   UNL     1       0.472   2.542  -1.509  0.00  0.00    -0.019 A 
ATOM     23  C   UNL     1       0.148   3.896  -1.656  0.00  0.00    +0.032 A 
ATOM     24  C   UNL     1       1.122   4.802  -2.018  0.00  0.00    +0.087 A 
ATOM     25  C   UNL     1       2.424   4.373  -2.246  0.00  0.00    +0.181 A 
ATOM     26 CL   UNL     1       0.720   6.481  -2.195  0.00  0.00    -0.080 Cl
BRANCH  20  28
ATOM     27  C   UNL     1       4.295   1.216  -2.170  0.00  0.00    +0.277 C 
ATOM     28  O   UNL     1       4.028   2.611  -2.331  0.00  0.00    -0.491 OA
ENDBRANCH  20  28
BRANCH  25  29
ATOM     29  O   UNL     1       3.379   5.269  -2.607  0.00  0.00    -0.482 OA
BRANCH  29  30
ATOM     30  C   UNL     1       3.555   5.502  -4.006  0.00  0.00    +0.264 C 
BRANCH  30  31
ATOM     31  C   UNL     1       4.648   6.518  -4.213  0.00  0.00    -0.010 A 
ATOM     32  C   UNL     1       4.340   7.864  -4.269  0.00  0.00    +0.007 A 
ATOM     33  C   UNL     1       5.343   8.796  -4.454  0.00  0.00    +0.000 A 
ATOM     34  C   UNL     1       6.655   8.382  -4.593  0.00  0.00    +0.000 A 
ATOM     35  C   UNL     1       6.963   7.035  -4.542  0.00  0.00    +0.000 A 
ATOM     36  C   UNL     1       5.960   6.103  -4.352  0.00  0.00    +0.007 A 
ENDBRANCH  30  31
ENDBRANCH  29  30
ENDBRANCH  25  29
ENDBRANCH   1  22
TORSDOF 6
