REMARK  Name = ZINC40780071
REMARK  2 active torsions:
REMARK  status: ('A' for Active; 'I' for Inactive)
REMARK    1  A    between atoms: C_12  and  N_27
REMARK    2  A    between atoms: C_13  and  N_17
REMARK                            x       y       z     vdW  Elec       q    Type
REMARK                         _______ _______ _______ _____ _____    ______ ____
ROOT
ATOM      1  C   UNL     1      -1.007  -2.284  -1.841  0.00  0.00    +0.000 A 
ATOM      2  C   UNL     1      -1.200  -1.729  -0.589  0.00  0.00    +0.000 A 
ATOM      3  C   UNL     1      -0.114  -1.480   0.223  0.00  0.00    +0.005 A 
ATOM      4  C   UNL     1       1.171  -1.785  -0.205  0.00  0.00    -0.027 A 
ATOM      5  C   UNL     1       1.365  -2.346  -1.447  0.00  0.00    -0.041 A 
ATOM      6  C   UNL     1       0.269  -2.589  -2.267  0.00  0.00    +0.004 A 
ATOM      7  C   UNL     1       2.725  -2.732  -1.966  0.00  0.00    +0.054 C 
ATOM      8  C   UNL     1       3.826  -1.991  -1.210  0.00  0.00    +0.111 C 
ATOM      9  N   UNL     1       3.543  -2.105   0.230  0.00  0.00    -0.309 N 
ATOM     10  C   UNL     1       2.316  -1.474   0.727  0.00  0.00    +0.142 C 
ATOM     11  C   UNL     1       4.404  -2.783   1.084  0.00  0.00    +0.147 A 
ATOM     12  C   UNL     1       5.488  -2.125   1.669  0.00  0.00    +0.104 A 
ATOM     13  C   UNL     1       6.321  -2.853   2.519  0.00  0.00    +0.129 A 
ATOM     14  N   UNL     1       6.053  -4.138   2.739  0.00  0.00    -0.332 N 
ATOM     15  C   UNL     1       5.020  -4.722   2.167  0.00  0.00    +0.200 A 
ATOM     16  N   UNL     1       4.205  -4.069   1.362  0.00  0.00    -0.221 NA
ATOM     17  H   UNL     1       6.627  -4.652   3.328  0.00  0.00    +0.168 HD
ENDROOT
BRANCH  13  18
ATOM     18  N   UNL     1       7.415  -2.246   3.126  0.00  0.00    -0.285 N 
ATOM     19  C   UNL     1       7.294  -1.661   4.469  0.00  0.00    +0.113 C 
ATOM     20  C   UNL     1       7.987  -0.292   4.448  0.00  0.00    +0.024 C 
ATOM     21  C   UNL     1       9.474  -0.496   4.157  0.00  0.00    +0.038 C 
ATOM     22  C   UNL     1       9.659  -1.352   2.933  0.00  0.00    -0.026 A 
ATOM     23  C   UNL     1       8.650  -2.186   2.471  0.00  0.00    +0.038 A 
ATOM     24  C   UNL     1       8.857  -2.972   1.343  0.00  0.00    +0.024 A 
ATOM     25  C   UNL     1      10.068  -2.925   0.681  0.00  0.00    +0.002 A 
ATOM     26  C   UNL     1      11.074  -2.097   1.141  0.00  0.00    +0.000 A 
ATOM     27  C   UNL     1      10.868  -1.306   2.260  0.00  0.00    +0.005 A 
ENDBRANCH  13  18
BRANCH  12  28
ATOM     28  N   UNL     1       5.733  -0.767   1.407  0.00  0.00    -0.353 N 
ATOM     29  H   UNL     1       5.098  -0.251   0.886  0.00  0.00    +0.143 HD
ATOM     30  H   UNL     1       6.537  -0.345   1.748  0.00  0.00    +0.143 HD
ENDBRANCH  12  28
TORSDOF 2
