REMARK  Name = ZINC27906883
REMARK  10 active torsions:
REMARK  status: ('A' for Active; 'I' for Inactive)
REMARK    1  A    between atoms: C_1  and  C_2
REMARK    2  A    between atoms: C_5  and  C_8
REMARK    3  A    between atoms: N_12  and  C_13
REMARK    4  A    between atoms: N_14  and  C_15
REMARK    5  A    between atoms: C_15  and  C_16
REMARK    6  A    between atoms: C_18  and  O_25
REMARK    7  A    between atoms: C_19  and  O_24
REMARK    8  A    between atoms: C_20  and  O_22
REMARK    9  A    between atoms: O_22  and  C_23
REMARK   10  A    between atoms: O_25  and  C_26
REMARK                            x       y       z     vdW  Elec       q    Type
REMARK                         _______ _______ _______ _____ _____    ______ ____
ROOT
ATOM      1  C   UNL     1       1.245  -5.983  -2.695  0.00  0.00    +0.067 A 
ATOM      2  C   UNL     1       1.153  -6.162  -1.352  0.00  0.00    +0.112 A 
ATOM      3  N   UNL     1       1.175  -4.958  -0.766  0.00  0.00    -0.334 N 
ATOM      4  C   UNL     1       1.278  -4.024  -1.684  0.00  0.00    +0.174 A 
ATOM      5  N   UNL     1       1.320  -4.617  -2.908  0.00  0.00    -0.317 N 
ATOM      6  C   UNL     1       1.428  -3.940  -4.202  0.00  0.00    +0.152 C 
ATOM      7  N   UNL     1       1.329  -2.663  -1.446  0.00  0.00    -0.312 N 
ATOM      8  H   UNL     1       1.416  -1.960  -2.288  0.00  0.00    +0.149 HD
ATOM      9  H   UNL     1       1.111  -4.877   0.329  0.00  0.00    +0.168 HD
ENDROOT
BRANCH   1  14
ATOM     10  C   UNL     1       1.298 -10.097  -6.718  0.00  0.00    +0.044 C 
ATOM     11  C   UNL     1       1.283  -9.020  -5.664  0.00  0.00    -0.050 A 
ATOM     12  C   UNL     1       1.765  -7.758  -5.964  0.00  0.00    +0.004 A 
ATOM     13  C   UNL     1       1.755  -6.767  -5.004  0.00  0.00    +0.010 A 
ATOM     14  C   UNL     1       1.258  -7.040  -3.728  0.00  0.00    -0.000 A 
ATOM     15  C   UNL     1       0.779  -8.317  -3.431  0.00  0.00    +0.010 A 
ATOM     16  C   UNL     1       0.789  -9.297  -4.402  0.00  0.00    +0.004 A 
ENDBRANCH   1  14
BRANCH   7  17
ATOM     17  C   UNL     1       1.268  -2.156  -0.073  0.00  0.00    +0.139 C 
BRANCH  17  18
ATOM     18  C   UNL     1       1.343  -0.651  -0.089  0.00  0.00    -0.023 A 
ATOM     19  C   UNL     1       0.182   0.095  -0.171  0.00  0.00    +0.054 A 
ATOM     20  C   UNL     1       0.246   1.480  -0.186  0.00  0.00    +0.165 A 
ATOM     21  C   UNL     1       1.479   2.118  -0.118  0.00  0.00    +0.201 A 
ATOM     22  C   UNL     1       2.643   1.364  -0.035  0.00  0.00    +0.165 A 
ATOM     23  C   UNL     1       2.571  -0.021  -0.022  0.00  0.00    +0.054 A 
BRANCH  22  24
ATOM     24  O   UNL     1       3.852   1.983   0.032  0.00  0.00    -0.491 OA
ATOM     25  C   UNL     1       5.007   1.145   0.116  0.00  0.00    +0.277 C 
ENDBRANCH  22  24
BRANCH  21  26
ATOM     26  O   UNL     1       1.546   3.477  -0.133  0.00  0.00    -0.501 OA
ATOM     27  H   UNL     1       2.522   3.981  -0.080  0.00  0.00    +0.292 HD
ENDBRANCH  21  26
BRANCH  20  28
ATOM     28  O   UNL     1      -0.896   2.214  -0.273  0.00  0.00    -0.491 OA
ATOM     29  C   UNL     1      -2.127   1.492  -0.345  0.00  0.00    +0.277 C 
ENDBRANCH  20  28
ENDBRANCH  17  18
ENDBRANCH   7  17
TORSDOF 6
