REMARK  Name = ZINC45962140
REMARK  9 active torsions:
REMARK  status: ('A' for Active; 'I' for Inactive)
REMARK    1  A    between atoms: C_1  and  C_2
REMARK    2  A    between atoms: C_2  and  C_3
REMARK    3  A    between atoms: C_3  and  N_4
REMARK    4  A    between atoms: N_4  and  C_5
REMARK    5  A    between atoms: C_15  and  N_16
REMARK    6  A    between atoms: N_16  and  S_17
REMARK    7  A    between atoms: S_17  and  C_20
REMARK    8  A    between atoms: C_22  and  C_27
REMARK    9  A    between atoms: C_25  and  C_26
REMARK                            x       y       z     vdW  Elec       q    Type
REMARK                         _______ _______ _______ _____ _____    ______ ____
ROOT
ATOM      1  C   UNL     1       1.245  -2.645  -2.360  0.00  0.00    +0.068 A 
ATOM      2  C   UNL     1       1.218  -4.115  -2.421  0.00  0.00    +0.040 A 
ATOM      3  C   UNL     1       0.597  -4.865  -1.420  0.00  0.00    +0.013 A 
ATOM      4  C   UNL     1       0.589  -6.240  -1.506  0.00  0.00    +0.001 A 
ATOM      5  C   UNL     1       1.193  -6.878  -2.579  0.00  0.00    +0.004 A 
ATOM      6  C   UNL     1       1.809  -6.148  -3.574  0.00  0.00    +0.047 A 
ATOM      7  C   UNL     1       1.829  -4.761  -3.507  0.00  0.00    +0.141 A 
ATOM      8  O   UNL     1       2.429  -4.035  -4.475  0.00  0.00    -0.421 OA
ATOM      9  C   UNL     1       2.465  -2.693  -4.437  0.00  0.00    +0.362 A 
ATOM     10  O   UNL     1       3.020  -2.089  -5.338  0.00  0.00    -0.243 OA
ATOM     11  C   UNL     1       1.872  -1.966  -3.388  0.00  0.00    +0.154 A 
ENDROOT
BRANCH   1  12
ATOM     12  N   UNL     1       0.656  -1.963  -1.309  0.00  0.00    -0.342 N 
ATOM     13  H   UNL     1       0.273  -2.455  -0.566  0.00  0.00    +0.146 HD
BRANCH  12  14
ATOM     14  C   UNL     1       0.611  -0.499  -1.320  0.00  0.00    +0.101 C 
BRANCH  14  16
ATOM     15  C   UNL     1      -0.297   1.522  -0.165  0.00  0.00    +0.005 C 
ATOM     16  C   UNL     1      -0.250  -0.007  -0.154  0.00  0.00    +0.015 C 
ENDBRANCH  14  16
ENDBRANCH  12  14
ENDBRANCH   1  12
BRANCH  11  17
ATOM     17  N   UNL     1       1.922  -0.561  -3.384  0.00  0.00    -0.208 N 
ATOM     18  H   UNL     1       1.614  -0.067  -2.607  0.00  0.00    +0.174 HD
BRANCH  17  19
ATOM     19  S   UNL     1       2.508   0.252  -4.702  0.00  0.00    +0.073 S 
ATOM     20  O   UNL     1       1.905  -0.341  -5.845  0.00  0.00    -0.150 OA
ATOM     21  O   UNL     1       2.389   1.637  -4.412  0.00  0.00    -0.150 OA
BRANCH  19  22
ATOM     22  C   UNL     1       4.232  -0.096  -4.805  0.00  0.00    +0.112 A 
ATOM     23  C   UNL     1       4.749  -0.705  -5.934  0.00  0.00    +0.032 A 
ATOM     24  C   UNL     1       6.101  -0.978  -6.014  0.00  0.00    -0.049 A 
ATOM     25  C   UNL     1       6.938  -0.641  -4.966  0.00  0.00    +0.004 A 
ATOM     26  C   UNL     1       6.422  -0.031  -3.838  0.00  0.00    +0.005 A 
ATOM     27  C   UNL     1       5.069   0.245  -3.760  0.00  0.00    -0.024 A 
ATOM     28  C   UNL     1       4.508   0.915  -2.532  0.00  0.00    +0.046 C 
ATOM     29  C   UNL     1       6.664  -1.642  -7.244  0.00  0.00    +0.044 C 
ENDBRANCH  19  22
ENDBRANCH  17  19
ENDBRANCH  11  17
TORSDOF 6
