REMARK  Name = ZINC39602297
REMARK  5 active torsions:
REMARK  status: ('A' for Active; 'I' for Inactive)
REMARK    1  A    between atoms: C_1  and  C_2
REMARK    2  A    between atoms: C_6  and  C_9
REMARK    3  A    between atoms: C_13  and  C_22
REMARK    4  A    between atoms: N_24  and  C_25
REMARK    5  A    between atoms: C_28  and  C_30
REMARK                            x       y       z     vdW  Elec       q    Type
REMARK                         _______ _______ _______ _____ _____    ______ ____
ROOT
ATOM      1  C   UNL     1      -0.088  -2.610   2.279  0.00  0.00    +0.252 C 
ATOM      2  O   UNL     1       1.017  -2.827   2.737  0.00  0.00    -0.270 OA
ATOM      3  N   UNL     1      -1.185  -3.053   2.926  0.00  0.00    -0.296 N 
ATOM      4  C   UNL     1      -2.602  -2.893   2.525  0.00  0.00    +0.121 C 
ATOM      5  C   UNL     1      -3.264  -4.243   2.883  0.00  0.00    +0.100 C 
ATOM      6  C   UNL     1      -2.369  -4.838   3.984  0.00  0.00    -0.004 C 
ATOM      7  C   UNL     1      -1.245  -3.814   4.197  0.00  0.00    +0.115 C 
ATOM      8  C   UNL     1      -3.168  -5.022   5.271  0.00  0.00    -0.010 C 
ATOM      9  C   UNL     1      -2.273  -5.668   6.333  0.00  0.00    -0.082 C 
ATOM     10  N   UNL     1      -1.789  -6.965   5.844  0.00  0.00    +0.379 N 
ATOM     11  C   UNL     1      -0.945  -6.769   4.659  0.00  0.00    -0.082 C 
ATOM     12  C   UNL     1      -1.783  -6.170   3.526  0.00  0.00    -0.010 C 
ATOM     13  H   UNL     1      -1.250  -7.415   6.569  0.00  0.00    -0.086 HD
ATOM     14  H   UNL     1      -2.576  -7.547   5.603  0.00  0.00    -0.086 HD
ENDROOT
BRANCH   1  20
ATOM     15  C   UNL     1      -0.612   1.725  -0.143  0.00  0.00    +0.047 C 
ATOM     16  C   UNL     1      -0.482   0.223  -0.158  0.00  0.00    -0.014 A 
ATOM     17  C   UNL     1      -0.495  -0.458  -1.362  0.00  0.00    +0.009 A 
ATOM     18  C   UNL     1      -0.376  -1.835  -1.387  0.00  0.00    +0.039 A 
ATOM     19  C   UNL     1      -0.243  -2.544  -0.207  0.00  0.00    +0.138 A 
ATOM     20  C   UNL     1      -0.230  -1.863   1.014  0.00  0.00    +0.107 A 
ATOM     21  C   UNL     1      -0.344  -0.468   1.030  0.00  0.00    +0.141 A 
ATOM     22  F   UNL     1      -0.326   0.200   2.205  0.00  0.00    -0.204 F 
ATOM     23  F   UNL     1      -0.128  -3.889  -0.234  0.00  0.00    -0.205 F 
ENDBRANCH   1  20
BRANCH   5  24
ATOM     24  C   UNL     1      -3.292  -5.150   1.680  0.00  0.00    +0.218 C 
ATOM     25  O   UNL     1      -2.422  -5.067   0.838  0.00  0.00    -0.275 OA
ATOM     26  N   UNL     1      -4.283  -6.052   1.539  0.00  0.00    -0.312 N 
ATOM     27  H   UNL     1      -4.978  -6.118   2.212  0.00  0.00    +0.149 HD
BRANCH  26  28
ATOM     28  C   UNL     1      -4.310  -6.934   0.369  0.00  0.00    +0.081 C 
ATOM     29  C   UNL     1      -4.634  -8.410   0.605  0.00  0.00    +0.033 C 
ATOM     30  C   UNL     1      -5.666  -7.496  -0.060  0.00  0.00    +0.041 C 
BRANCH  30  31
ATOM     31  C   UNL     1      -5.909  -7.678  -1.536  0.00  0.00    -0.042 A 
ATOM     32  C   UNL     1      -5.093  -8.518  -2.272  0.00  0.00    +0.004 A 
ATOM     33  C   UNL     1      -5.316  -8.685  -3.626  0.00  0.00    +0.000 A 
ATOM     34  C   UNL     1      -6.353  -8.013  -4.245  0.00  0.00    +0.000 A 
ATOM     35  C   UNL     1      -7.169  -7.174  -3.509  0.00  0.00    +0.000 A 
ATOM     36  C   UNL     1      -6.949  -7.010  -2.154  0.00  0.00    +0.004 A 
ENDBRANCH  30  31
ENDBRANCH  26  28
ENDBRANCH   5  24
TORSDOF 4
