REMARK  Name = ZINC64208380
REMARK  8 active torsions:
REMARK  status: ('A' for Active; 'I' for Inactive)
REMARK    1  A    between atoms: C_4  and  C_7
REMARK    2  A    between atoms: C_7  and  O_8
REMARK    3  A    between atoms: O_8  and  C_9
REMARK    4  A    between atoms: N_11  and  C_12
REMARK    5  A    between atoms: C_12  and  C_14
REMARK    6  A    between atoms: C_12  and  C_24
REMARK    7  A    between atoms: C_14  and  C_15
REMARK    8  A    between atoms: C_30  and  C_33
REMARK                            x       y       z     vdW  Elec       q    Type
REMARK                         _______ _______ _______ _____ _____    ______ ____
ROOT
ATOM      1  C   UNL     1       6.952  -2.425   2.951  0.00  0.00    +0.166 C 
ENDROOT
BRANCH   1   2
ATOM      2  C   UNL     1       7.513  -2.077   4.306  0.00  0.00    +0.236 C 
ATOM      3  O   UNL     1       6.820  -1.503   5.119  0.00  0.00    -0.274 OA
ATOM      4  N   UNL     1       8.783  -2.403   4.614  0.00  0.00    -0.295 N 
ATOM      5  C   UNL     1       9.678  -2.997   3.608  0.00  0.00    +0.136 C 
ATOM      6  C   UNL     1      10.314  -4.255   4.209  0.00  0.00    +0.179 C 
ATOM      7  O   UNL     1      10.905  -3.928   5.469  0.00  0.00    -0.369 OA
ATOM      8  C   UNL     1       9.971  -3.474   6.452  0.00  0.00    +0.166 C 
ATOM      9  C   UNL     1       9.319  -2.170   5.965  0.00  0.00    +0.144 C 
BRANCH   8  10
ATOM     10  C   UNL     1      10.692  -3.220   7.751  0.00  0.00    -0.017 A 
ATOM     11  C   UNL     1      11.940  -2.625   7.744  0.00  0.00    +0.006 A 
ATOM     12  C   UNL     1      12.601  -2.392   8.936  0.00  0.00    +0.000 A 
ATOM     13  C   UNL     1      12.014  -2.754  10.134  0.00  0.00    +0.000 A 
ATOM     14  C   UNL     1      10.767  -3.348  10.141  0.00  0.00    +0.000 A 
ATOM     15  C   UNL     1      10.103  -3.577   8.950  0.00  0.00    +0.006 A 
ENDBRANCH   8  10
ENDBRANCH   1   2
BRANCH   1  18
ATOM     16  C   UNL     1       5.713  -0.837   1.579  0.00  0.00    +0.401 C 
ATOM     17  O   UNL     1       6.646  -0.827   0.801  0.00  0.00    -0.226 OA
ATOM     18  N   UNL     1       5.768  -1.604   2.687  0.00  0.00    -0.270 N 
ATOM     19  H   UNL     1       5.024  -1.612   3.308  0.00  0.00    +0.153 HD
BRANCH  16  20
ATOM     20  O   UNL     1       4.625  -0.083   1.336  0.00  0.00    -0.446 OA
BRANCH  20  21
ATOM     21  C   UNL     1       4.635   0.705   0.144  0.00  0.00    +0.269 C 
BRANCH  21  25
ATOM     22  C   UNL     1       0.978   2.893  -0.150  0.00  0.00    +0.000 A 
ATOM     23  C   UNL     1       2.064   3.446   0.503  0.00  0.00    +0.000 A 
ATOM     24  C   UNL     1       3.247   2.738   0.598  0.00  0.00    +0.007 A 
ATOM     25  C   UNL     1       3.345   1.477   0.041  0.00  0.00    -0.010 A 
ATOM     26  C   UNL     1       2.259   0.923  -0.611  0.00  0.00    +0.007 A 
ATOM     27  C   UNL     1       1.076   1.632  -0.707  0.00  0.00    +0.000 A 
ENDBRANCH  21  25
ENDBRANCH  20  21
ENDBRANCH  16  20
ENDBRANCH   1  18
BRANCH   1  28
ATOM     28  C   UNL     1       6.563  -3.905   2.925  0.00  0.00    +0.065 C 
BRANCH  28  29
ATOM     29  C   UNL     1       6.135  -4.287   1.532  0.00  0.00    -0.039 C 
ATOM     30  C   UNL     1       6.901  -4.854   0.572  0.00  0.00    -0.001 A 
ATOM     31  C   UNL     1       8.309  -5.266   0.539  0.00  0.00    +0.010 A 
ATOM     32  C   UNL     1       8.805  -5.817  -0.592  0.00  0.00    +0.001 A 
ATOM     33  C   UNL     1       8.010  -6.003  -1.731  0.00  0.00    +0.002 A 
ATOM     34  C   UNL     1       6.708  -5.649  -1.778  0.00  0.00    +0.026 A 
ATOM     35  C   UNL     1       6.082  -5.061  -0.644  0.00  0.00    +0.043 A 
ATOM     36  N   UNL     1       4.858  -4.639  -0.443  0.00  0.00    -0.380 N 
ATOM     37  C   UNL     1       4.759  -4.121   0.926  0.00  0.00    +0.144 C 
ATOM     38  H   UNL     1       4.136  -4.668  -1.091  0.00  0.00    +0.160 HD
ENDBRANCH  28  29
ENDBRANCH   1  28
TORSDOF 8
