REMARK  Name = ZINC48534466
REMARK  5 active torsions:
REMARK  status: ('A' for Active; 'I' for Inactive)
REMARK    1  A    between atoms: C_1  and  C_2
REMARK    2  A    between atoms: C_3  and  C_29
REMARK    3  A    between atoms: C_4  and  C_14
REMARK    4  A    between atoms: C_17  and  C_19
REMARK    5  A    between atoms: C_24  and  N_25
REMARK                            x       y       z     vdW  Elec       q    Type
REMARK                         _______ _______ _______ _____ _____    ______ ____
ROOT
ATOM      1  C   UNL     1      -0.018   1.503   0.010  0.00  0.00    +0.061 C 
ATOM      2  C   UNL     1       0.002  -0.004   0.002  0.00  0.00    +0.019 C 
ATOM      3  C   UNL     1      -1.153  -0.686   0.004  0.00  0.00    +0.061 C 
ATOM      4  C   UNL     1      -1.173  -2.187  -0.010  0.00  0.00    +0.132 C 
ATOM      5  C   UNL     1       0.165  -2.749   0.402  0.00  0.00    +0.027 C 
ATOM      6  C   UNL     1       1.274  -1.979   0.378  0.00  0.00    +0.015 C 
ATOM      7  N   UNL     1       1.201  -0.669  -0.013  0.00  0.00    -0.320 N 
ATOM      8  C   UNL     1       2.618  -2.541   0.770  0.00  0.00    +0.051 C 
ATOM      9  C   UNL     1       2.430  -3.633   1.825  0.00  0.00    +0.014 C 
ATOM     10  C   UNL     1       1.520  -4.720   1.244  0.00  0.00    +0.080 C 
ATOM     11  C   UNL     1       0.223  -4.092   0.811  0.00  0.00    +0.162 C 
ATOM     12  O   UNL     1      -0.793  -4.759   0.814  0.00  0.00    -0.292 OA
ATOM     13  H   UNL     1       2.004  -0.206  -0.300  0.00  0.00    +0.152 HD
ENDROOT
BRANCH   4  14
ATOM     14  C   UNL     1      -2.229  -2.676   0.947  0.00  0.00    +0.118 A 
ATOM     15  C   UNL     1      -3.291  -3.439   0.620  0.00  0.00    +0.046 A 
ATOM     16  C   UNL     1      -4.018  -3.664   1.807  0.00  0.00    +0.050 A 
ATOM     17  C   UNL     1      -3.352  -3.020   2.802  0.00  0.00    +0.137 A 
ATOM     18  O   UNL     1      -2.267  -2.430   2.266  0.00  0.00    -0.459 OA
BRANCH  17  19
ATOM     19  C   UNL     1      -3.749  -2.978   4.225  0.00  0.00    +0.047 A 
ATOM     20  C   UNL     1      -5.056  -2.640   4.579  0.00  0.00    +0.015 A 
ATOM     21  C   UNL     1      -5.420  -2.603   5.909  0.00  0.00    +0.021 A 
ATOM     22  C   UNL     1      -4.491  -2.901   6.892  0.00  0.00    +0.043 A 
ATOM     23  C   UNL     1      -3.193  -3.236   6.547  0.00  0.00    +0.053 A 
ATOM     24  C   UNL     1      -2.819  -3.283   5.220  0.00  0.00    +0.138 A 
ATOM     25 CL   UNL     1      -4.957  -2.852   8.564  0.00  0.00    -0.083 Cl
BRANCH  24  26
ATOM     26  N   UNL     1      -1.432  -3.648   4.853  0.00  0.00    +0.057 N 
ATOM     27  O   UNL     1      -0.628  -3.911   5.716  0.00  0.00    -0.126 OA
ATOM     28  O   UNL     1      -1.104  -3.684   3.690  0.00  0.00    -0.126 OA
ENDBRANCH  24  26
ENDBRANCH  17  19
ENDBRANCH   4  14
BRANCH   3  29
ATOM     29  C   UNL     1      -2.393   0.031   0.019  0.00  0.00    +0.097 C 
ATOM     30  N   UNL     1      -3.375   0.601   0.032  0.00  0.00    -0.191 NA
ENDBRANCH   3  29
TORSDOF 4
