REMARK  Name = ZINC02663513
REMARK  9 active torsions:
REMARK  status: ('A' for Active; 'I' for Inactive)
REMARK    1  A    between atoms: C_1  and  O_2
REMARK    2  A    between atoms: O_2  and  C_3
REMARK    3  A    between atoms: C_6  and  N_11
REMARK    4  A    between atoms: C_8  and  O_9
REMARK    5  A    between atoms: O_9  and  C_10
REMARK    6  A    between atoms: C_21  and  S_22
REMARK    7  A    between atoms: S_22  and  C_23
REMARK    8  A    between atoms: C_23  and  C_24
REMARK    9  A    between atoms: C_24  and  C_26
REMARK                            x       y       z     vdW  Elec       q    Type
REMARK                         _______ _______ _______ _____ _____    ______ ____
ROOT
ATOM      1  N   UNL     1       0.037  -2.766  -0.013  0.00  0.00    -0.255 N 
ATOM      2  C   UNL     1       1.136  -2.143   0.473  0.00  0.00    +0.267 A 
ATOM      3  O   UNL     1       2.080  -2.777   0.908  0.00  0.00    -0.267 OA
ATOM      4  C   UNL     1       1.147  -0.675   0.457  0.00  0.00    +0.065 A 
ATOM      5  C   UNL     1       2.232   0.059   0.934  0.00  0.00    +0.015 A 
ATOM      6  C   UNL     1       2.190   1.426   0.895  0.00  0.00    +0.001 A 
ATOM      7  C   UNL     1       1.080   2.088   0.386  0.00  0.00    +0.002 A 
ATOM      8  C   UNL     1       0.004   1.393  -0.089  0.00  0.00    +0.028 A 
ATOM      9  C   UNL     1       0.016  -0.004  -0.063  0.00  0.00    +0.079 A 
ATOM     10  N   UNL     1      -1.025  -0.728  -0.522  0.00  0.00    -0.223 NA
ATOM     11  C   UNL     1      -1.014  -2.038  -0.498  0.00  0.00    +0.177 A 
ENDROOT
BRANCH   1  15
ATOM     12  C   UNL     1      -0.146  -6.936  -0.028  0.00  0.00    +0.162 A 
ATOM     13  C   UNL     1      -0.612  -6.224   1.067  0.00  0.00    +0.051 A 
ATOM     14  C   UNL     1      -0.546  -4.844   1.073  0.00  0.00    +0.030 A 
ATOM     15  C   UNL     1      -0.024  -4.167  -0.020  0.00  0.00    +0.056 A 
ATOM     16  C   UNL     1       0.443  -4.876  -1.118  0.00  0.00    +0.075 A 
ATOM     17  C   UNL     1       0.383  -6.260  -1.123  0.00  0.00    +0.163 A 
BRANCH  12  19
ATOM     18  C   UNL     1      -0.761  -8.923   1.127  0.00  0.00    +0.277 C 
ATOM     19  O   UNL     1      -0.206  -8.295  -0.031  0.00  0.00    -0.491 OA
ENDBRANCH  12  19
BRANCH  17  20
ATOM     20  O   UNL     1       0.839  -6.957  -2.198  0.00  0.00    -0.491 OA
ATOM     21  C   UNL     1       1.368  -6.198  -3.287  0.00  0.00    +0.277 C 
ENDBRANCH  17  20
ENDBRANCH   1  15
BRANCH  11  22
ATOM     22  S   UNL     1      -2.418  -2.901  -1.120  0.00  0.00    -0.079 S 
BRANCH  22  23
ATOM     23  C   UNL     1      -3.457  -1.502  -1.609  0.00  0.00    +0.157 C 
BRANCH  23  24
ATOM     24  C   UNL     1      -4.751  -2.014  -2.187  0.00  0.00    +0.173 C 
ATOM     25  O   UNL     1      -4.952  -3.208  -2.260  0.00  0.00    -0.291 OA
BRANCH  24  26
ATOM     26  C   UNL     1      -5.769  -1.068  -2.660  0.00  0.00    +0.020 A 
ATOM     27  C   UNL     1      -5.542   0.311  -2.571  0.00  0.00    +0.015 A 
ATOM     28  C   UNL     1      -6.495   1.198  -3.019  0.00  0.00    +0.048 A 
ATOM     29  C   UNL     1      -7.687   0.729  -3.552  0.00  0.00    +0.142 A 
ATOM     30  C   UNL     1      -7.924  -0.646  -3.639  0.00  0.00    +0.076 A 
ATOM     31  C   UNL     1      -6.973  -1.542  -3.197  0.00  0.00    +0.038 A 
ATOM     32  N   UNL     1      -9.137  -1.099  -4.179  0.00  0.00    -0.280 N 
ATOM     33  C   UNL     1      -9.902  -0.237  -4.884  0.00  0.00    +0.255 C 
ATOM     34  O   UNL     1     -10.968  -0.597  -5.336  0.00  0.00    -0.272 OA
ATOM     35  C   UNL     1      -9.424   1.176  -5.107  0.00  0.00    +0.325 C 
ATOM     36  O   UNL     1      -8.634   1.597  -3.993  0.00  0.00    -0.481 OA
ATOM     37  H   UNL     1      -9.422  -2.017  -4.049  0.00  0.00    +0.155 HD
ENDBRANCH  24  26
ENDBRANCH  23  24
ENDBRANCH  22  23
ENDBRANCH  11  22
TORSDOF 7
