REMARK  Name = ZINC15734978
REMARK  5 active torsions:
REMARK  status: ('A' for Active; 'I' for Inactive)
REMARK    1  A    between atoms: C_1  and  C_2
REMARK    2  A    between atoms: C_4  and  C_8
REMARK    3  A    between atoms: C_11  and  S_13
REMARK    4  A    between atoms: S_13  and  N_16
REMARK    5  A    between atoms: C_19  and  N_52
REMARK                            x       y       z     vdW  Elec       q    Type
REMARK                         _______ _______ _______ _____ _____    ______ ____
ROOT
ATOM      1  S   UNL     1      -2.547   4.244   0.047  0.00  0.00    +0.067 S 
ATOM      2  O   UNL     1      -2.070   5.464  -0.503  0.00  0.00    -0.152 OA
ATOM      3  O   UNL     1      -3.659   3.546  -0.497  0.00  0.00    -0.152 OA
ENDROOT
BRANCH   1   4
ATOM      4  N   UNL     1      -2.910   4.548   1.633  0.00  0.00    -0.176 NA
ATOM      5  C   UNL     1      -3.885   3.716   2.352  0.00  0.00    +0.108 C 
ATOM      6  C   UNL     1      -4.951   4.620   2.969  0.00  0.00    +0.002 C 
ATOM      7  C   UNL     1      -4.275   5.685   3.835  0.00  0.00    -0.066 C 
ATOM      8  C   UNL     1      -3.356   6.545   2.964  0.00  0.00    +0.002 C 
ATOM      9  C   UNL     1      -2.267   5.660   2.348  0.00  0.00    +0.108 C 
BRANCH   7  15
ATOM     10  C   UNL     1      -4.685   7.632   5.214  0.00  0.00    -0.078 C 
ATOM     11  C   UNL     1      -5.777   8.577   5.721  0.00  0.00    -0.019 C 
ATOM     12  C   UNL     1      -6.749   7.797   6.609  0.00  0.00    -0.004 C 
ATOM     13  C   UNL     1      -7.339   6.633   5.808  0.00  0.00    -0.019 C 
ATOM     14  C   UNL     1      -6.202   5.744   5.298  0.00  0.00    -0.078 C 
ATOM     15  N   UNL     1      -5.316   6.548   4.431  0.00  0.00    +0.382 N 
ATOM     16  H   UNL     1      -5.875   6.964   3.677  0.00  0.00    -0.081 HD
ENDBRANCH   7  15
ENDBRANCH   1   4
BRANCH   1  20
ATOM     17  C   UNL     1       1.157   1.791   0.001  0.00  0.00    +0.039 A 
ATOM     18  C   UNL     1      -0.013   1.076   0.008  0.00  0.00    +0.019 A 
ATOM     19  C   UNL     1      -1.207   1.762   0.017  0.00  0.00    +0.037 A 
ATOM     20  C   UNL     1      -1.190   3.120   0.029  0.00  0.00    +0.143 A 
ATOM     21  S   UNL     1       0.560   3.473   0.015  0.00  0.00    -0.067 S 
BRANCH  17  25
ATOM     22  C   UNL     1       6.231   1.623  -0.046  0.00  0.00    +0.067 C 
ATOM     23  C   UNL     1       4.783   1.207  -0.035  0.00  0.00    +0.060 A 
ATOM     24  C   UNL     1       3.689   2.071  -0.027  0.00  0.00    +0.053 A 
ATOM     25  C   UNL     1       2.546   1.299  -0.014  0.00  0.00    +0.073 A 
ATOM     26  N   UNL     1       2.944  -0.006  -0.025  0.00  0.00    -0.276 N 
ATOM     27  H   UNL     1       2.343  -0.806  -0.023  0.00  0.00    +0.189 HD
ATOM     28  N   UNL     1       4.344  -0.026  -0.037  0.00  0.00    -0.179 NA
ENDBRANCH  17  25
ENDBRANCH   1  20
TORSDOF 4
