REMARK  Name = ZINC64360590
REMARK  6 active torsions:
REMARK  status: ('A' for Active; 'I' for Inactive)
REMARK    1  A    between atoms: C_7  and  C_10
REMARK    2  A    between atoms: C_10  and  C_11
REMARK    3  A    between atoms: C_11  and  C_12
REMARK    4  A    between atoms: N_14  and  C_15
REMARK    5  A    between atoms: C_18  and  C_21
REMARK    6  A    between atoms: C_21  and  C_22
REMARK                            x       y       z     vdW  Elec       q    Type
REMARK                         _______ _______ _______ _____ _____    ______ ____
ROOT
ATOM      1  C   UNL     1      -1.782  -6.444  -2.574  0.00  0.00    +0.033 A 
ATOM      2  C   UNL     1      -2.334  -6.824  -1.358  0.00  0.00    +0.023 A 
ATOM      3  C   UNL     1      -3.266  -7.842  -1.312  0.00  0.00    +0.006 A 
ATOM      4  C   UNL     1      -3.650  -8.483  -2.476  0.00  0.00    -0.039 A 
ATOM      5  C   UNL     1      -3.101  -8.107  -3.689  0.00  0.00    +0.006 A 
ATOM      6  C   UNL     1      -2.173  -7.085  -3.742  0.00  0.00    +0.023 A 
ENDROOT
BRANCH   1   9
ATOM      7  C   UNL     1      -0.813  -4.571  -3.675  0.00  0.00    +0.217 C 
ATOM      8  O   UNL     1      -1.553  -4.757  -4.618  0.00  0.00    -0.275 OA
ATOM      9  N   UNL     1      -0.837  -5.413  -2.623  0.00  0.00    -0.285 N 
ATOM     10  H   UNL     1      -0.200  -5.304  -1.900  0.00  0.00    +0.155 HD
BRANCH   7  11
ATOM     11  C   UNL     1       0.134  -3.399  -3.680  0.00  0.00    +0.100 C 
BRANCH  11  12
ATOM     12  C   UNL     1      -0.038  -2.609  -4.979  0.00  0.00    +0.042 C 
BRANCH  12  19
ATOM     13  C   UNL     1       4.164  -2.027  -6.727  0.00  0.00    +0.001 A 
ATOM     14  C   UNL     1       4.696  -0.751  -6.499  0.00  0.00    +0.002 A 
ATOM     15  C   UNL     1       4.026   0.209  -5.827  0.00  0.00    +0.026 A 
ATOM     16  C   UNL     1       2.724  -0.048  -5.314  0.00  0.00    +0.043 A 
ATOM     17  N   UNL     1       1.887   0.704  -4.641  0.00  0.00    -0.380 N 
ATOM     18  C   UNL     1       0.675  -0.077  -4.366  0.00  0.00    +0.144 C 
ATOM     19  C   UNL     1       0.908  -1.437  -4.985  0.00  0.00    -0.041 C 
ATOM     20  C   UNL     1       2.140  -1.389  -5.543  0.00  0.00    -0.001 A 
ATOM     21  C   UNL     1       2.935  -2.375  -6.284  0.00  0.00    +0.010 A 
ATOM     22  H   UNL     1       2.043   1.622  -4.370  0.00  0.00    +0.160 HD
ENDBRANCH  12  19
ENDBRANCH  11  12
ENDBRANCH   7  11
ENDBRANCH   1   9
BRANCH   4  23
ATOM     23  C   UNL     1      -4.667  -9.593  -2.423  0.00  0.00    +0.131 C 
BRANCH  23  24
ATOM     24  C   UNL     1      -6.050  -9.015  -2.583  0.00  0.00    +0.220 C 
ATOM     25  O   UNL     1      -6.195  -7.820  -2.726  0.00  0.00    -0.275 OA
ATOM     26  N   UNL     1      -7.126  -9.828  -2.567  0.00  0.00    -0.298 N 
ATOM     27  C   UNL     1      -6.965 -11.277  -2.389  0.00  0.00    +0.127 C 
ATOM     28  C   UNL     1      -7.819 -11.721  -1.194  0.00  0.00    +0.127 C 
ATOM     29  N   UNL     1      -9.173 -11.173  -1.355  0.00  0.00    -0.297 N 
ATOM     30  C   UNL     1      -9.333  -9.723  -1.533  0.00  0.00    +0.127 C 
ATOM     31  C   UNL     1      -8.480  -9.278  -2.722  0.00  0.00    +0.127 C 
ATOM     32  C   UNL     1     -10.277 -12.007  -1.338  0.00  0.00    +0.218 A 
ATOM     33  N   UNL     1     -10.102 -13.309  -1.171  0.00  0.00    -0.223 NA
ATOM     34  C   UNL     1     -11.136 -14.133  -1.150  0.00  0.00    +0.116 A 
ATOM     35  C   UNL     1     -12.414 -13.620  -1.306  0.00  0.00    +0.039 A 
ATOM     36  C   UNL     1     -12.561 -12.252  -1.479  0.00  0.00    +0.116 A 
ATOM     37  N   UNL     1     -11.485 -11.483  -1.486  0.00  0.00    -0.223 NA
ENDBRANCH  23  24
ENDBRANCH   4  23
TORSDOF 6
