REMARK  Name = ZINC44563241
REMARK  7 active torsions:
REMARK  status: ('A' for Active; 'I' for Inactive)
REMARK    1  A    between atoms: C_1  and  N_2
REMARK    2  A    between atoms: N_2  and  S_3
REMARK    3  A    between atoms: S_3  and  C_6
REMARK    4  A    between atoms: C_9  and  N_12
REMARK    5  A    between atoms: N_12  and  C_13
REMARK    6  A    between atoms: C_13  and  C_14
REMARK    7  A    between atoms: N_20  and  C_21
REMARK                            x       y       z     vdW  Elec       q    Type
REMARK                         _______ _______ _______ _____ _____    ______ ____
ROOT
ATOM      1  C   UNL     1       2.443  -0.388  -0.951  0.00  0.00    +0.105 A 
ATOM      2  C   UNL     1       2.902   0.758  -1.574  0.00  0.00    +0.030 A 
ATOM      3  C   UNL     1       4.251   1.054  -1.573  0.00  0.00    +0.025 A 
ATOM      4  C   UNL     1       5.147   0.198  -0.945  0.00  0.00    +0.027 A 
ATOM      5  C   UNL     1       4.683  -0.952  -0.320  0.00  0.00    +0.025 A 
ATOM      6  C   UNL     1       3.332  -1.239  -0.320  0.00  0.00    +0.030 A 
ENDROOT
BRANCH   1   7
ATOM      7  S   UNL     1       0.721  -0.761  -0.954  0.00  0.00    +0.058 S 
ATOM      8  O   UNL     1       0.609  -2.165  -0.770  0.00  0.00    -0.153 OA
ATOM      9  O   UNL     1       0.163  -0.093  -2.078  0.00  0.00    -0.153 OA
BRANCH   7  11
ATOM     10  C   UNL     1       0.050   1.406   0.518  0.00  0.00    +0.127 C 
ATOM     11  N   UNL     1       0.064  -0.053   0.391  0.00  0.00    -0.193 NA
ATOM     12  H   UNL     1      -0.312  -0.605   1.095  0.00  0.00    +0.148 HD
ENDBRANCH   7  11
ENDBRANCH   1   7
BRANCH   4  13
ATOM     13  N   UNL     1       6.512   0.494  -0.943  0.00  0.00    -0.345 N 
ATOM     14  H   UNL     1       6.836   1.297  -1.380  0.00  0.00    +0.146 HD
BRANCH  13  15
ATOM     15  C   UNL     1       7.456  -0.410  -0.280  0.00  0.00    +0.086 C 
BRANCH  15  16
ATOM     16  C   UNL     1       8.886   0.074  -0.530  0.00  0.00    -0.052 C 
ATOM     17  C   UNL     1       9.092   1.429   0.151  0.00  0.00    -0.014 C 
ATOM     18  C   UNL     1      10.524   1.908  -0.102  0.00  0.00    -0.003 C 
ATOM     19  C   UNL     1      10.771   1.974  -1.612  0.00  0.00    -0.019 C 
ATOM     20  C   UNL     1      10.503   0.599  -2.227  0.00  0.00    -0.079 C 
ATOM     21  N   UNL     1       9.111   0.209  -1.974  0.00  0.00    +0.381 N 
ATOM     22  C   UNL     1       8.836  -1.075  -2.633  0.00  0.00    -0.096 C 
ATOM     23  H   UNL     1       8.492   0.915  -2.345  0.00  0.00    -0.082 HD
ENDBRANCH  15  16
ENDBRANCH  13  15
ENDBRANCH   4  13
TORSDOF 5
