REMARK  Name = ZINC14140567
REMARK  4 active torsions:
REMARK  status: ('A' for Active; 'I' for Inactive)
REMARK    1  A    between atoms: C_7  and  O_15
REMARK    2  A    between atoms: C_9  and  C_11
REMARK    3  A    between atoms: O_15  and  C_16
REMARK    4  A    between atoms: C_25  and  O_27
REMARK                            x       y       z     vdW  Elec       q    Type
REMARK                         _______ _______ _______ _____ _____    ______ ____
ROOT
ATOM      1  C   UNL     1      -2.008  -2.040  -0.201  0.00  0.00    +0.001 A 
ATOM      2  C   UNL     1      -2.218  -2.617  -1.450  0.00  0.00    +0.002 A 
ATOM      3  C   UNL     1      -2.159  -1.869  -2.588  0.00  0.00    +0.028 A 
ATOM      4  C   UNL     1      -1.884  -0.497  -2.501  0.00  0.00    +0.078 A 
ATOM      5  C   UNL     1      -1.670   0.088  -1.228  0.00  0.00    +0.062 A 
ATOM      6  C   UNL     1      -1.738  -0.710  -0.080  0.00  0.00    +0.015 A 
ATOM      7  C   UNL     1      -1.394   1.473  -1.168  0.00  0.00    +0.232 A 
ATOM      8  N   UNL     1      -1.350   2.153  -2.303  0.00  0.00    -0.188 NA
ATOM      9  C   UNL     1      -1.556   1.565  -3.471  0.00  0.00    +0.238 A 
ATOM     10  N   UNL     1      -1.815   0.284  -3.589  0.00  0.00    -0.224 NA
ENDROOT
BRANCH   9  11
ATOM     11  C   UNL     1      -1.489   2.403  -4.721  0.00  0.00    +0.452 C 
ATOM     12  F   UNL     1      -2.646   3.183  -4.822  0.00  0.00    -0.163 F 
ATOM     13  F   UNL     1      -0.368   3.238  -4.663  0.00  0.00    -0.163 F 
ATOM     14  F   UNL     1      -1.391   1.567  -5.839  0.00  0.00    -0.163 F 
ENDBRANCH   9  11
BRANCH   7  15
ATOM     15  O   UNL     1      -1.187   2.088   0.019  0.00  0.00    -0.437 OA
BRANCH  15  16
ATOM     16  C   UNL     1      -1.033   3.439   0.019  0.00  0.00    +0.134 A 
ATOM     17  C   UNL     1       0.238   3.986  -0.037  0.00  0.00    +0.046 A 
ATOM     18  C   UNL     1       0.393   5.358  -0.042  0.00  0.00    +0.004 A 
ATOM     19  C   UNL     1      -0.718   6.175   0.017  0.00  0.00    +0.006 A 
ATOM     20  C   UNL     1      -1.995   5.630   0.076  0.00  0.00    -0.012 A 
ATOM     21  C   UNL     1      -2.154   4.264   0.082  0.00  0.00    +0.001 A 
ATOM     22  C   UNL     1      -3.507   3.605   0.161  0.00  0.00    +0.039 C 
ATOM     23  C   UNL     1      -4.609   4.594  -0.211  0.00  0.00    +0.008 C 
ATOM     24  C   UNL     1      -4.417   5.869   0.620  0.00  0.00    +0.036 C 
ATOM     25  C   UNL     1      -3.162   6.583   0.124  0.00  0.00    +0.145 C 
BRANCH  25  26
ATOM     26  O   UNL     1      -2.853   7.662   1.009  0.00  0.00    -0.387 OA
ATOM     27  H   UNL     1      -2.075   8.173   0.748  0.00  0.00    +0.210 HD
ENDBRANCH  25  26
ENDBRANCH  15  16
ENDBRANCH   7  15
TORSDOF 4
