REMARK  Name = ZINC09079754
REMARK  11 active torsions:
REMARK  status: ('A' for Active; 'I' for Inactive)
REMARK    1  A    between atoms: C_1  and  N_2
REMARK    2  A    between atoms: N_2  and  C_3
REMARK    3  A    between atoms: N_2  and  C_4
REMARK    4  A    between atoms: C_7  and  C_10
REMARK    5  A    between atoms: C_10  and  C_12
REMARK    6  A    between atoms: C_10  and  S_28
REMARK    7  A    between atoms: C_12  and  N_13
REMARK    8  A    between atoms: C_14  and  C_16
REMARK    9  A    between atoms: N_18  and  N_19
REMARK   10  A    between atoms: C_20  and  C_22
REMARK   11  A    between atoms: S_28  and  C_31
REMARK                            x       y       z     vdW  Elec       q    Type
REMARK                         _______ _______ _______ _____ _____    ______ ____
ROOT
ATOM      1  C   UNL     1      -3.408  -6.434   0.014  0.00  0.00    +0.136 C 
ENDROOT
BRANCH   1   2
ATOM      2  N   UNL     1      -3.427  -4.969   0.022  0.00  0.00    -0.305 N 
ATOM      3  C   UNL     1      -2.268  -4.280   0.028  0.00  0.00    +0.301 C 
ATOM      4  O   UNL     1      -1.210  -4.874   0.028  0.00  0.00    -0.265 OA
ATOM      5  H   UNL     1      -4.273  -4.495   0.022  0.00  0.00    +0.149 HD
BRANCH   3   6
ATOM      6  C   UNL     1      -2.288  -2.786   0.035  0.00  0.00    +0.315 C 
ATOM      7  O   UNL     1      -3.346  -2.193   0.036  0.00  0.00    -0.264 OA
ATOM      8  N   UNL     1      -1.129  -2.097   0.042  0.00  0.00    -0.226 N 
ATOM      9  H   UNL     1      -0.283  -2.571   0.041  0.00  0.00    +0.173 HD
BRANCH   8  10
ATOM     10  N   UNL     1      -1.147  -0.697   0.049  0.00  0.00    -0.230 N 
ATOM     11  C   UNL     1       0.011  -0.008   0.055  0.00  0.00    +0.260 C 
ATOM     12  O   UNL     1       1.071  -0.602   0.055  0.00  0.00    -0.269 OA
ATOM     13  H   UNL     1      -1.994  -0.222   0.049  0.00  0.00    +0.173 HD
BRANCH  11  14
ATOM     14  C   UNL     1      -0.008   1.471   0.062  0.00  0.00    +0.038 A 
ATOM     15  C   UNL     1      -1.224   2.156   0.057  0.00  0.00    +0.013 A 
ATOM     16  C   UNL     1      -1.235   3.535   0.069  0.00  0.00    +0.001 A 
ATOM     17  C   UNL     1      -0.043   4.240   0.075  0.00  0.00    +0.000 A 
ATOM     18  C   UNL     1       1.165   3.566   0.075  0.00  0.00    +0.001 A 
ATOM     19  C   UNL     1       1.190   2.187   0.069  0.00  0.00    +0.013 A 
ENDBRANCH  11  14
ENDBRANCH   8  10
ENDBRANCH   3   6
ENDBRANCH   1   2
BRANCH   1  20
ATOM     20  C   UNL     1      -4.844  -6.963   0.008  0.00  0.00    +0.183 C 
BRANCH  20  24
ATOM     21  C   UNL     1      -4.789 -11.236  -0.013  0.00  0.00    +0.029 A 
ATOM     22  C   UNL     1      -5.396 -10.543  -1.052  0.00  0.00    +0.023 A 
ATOM     23  C   UNL     1      -5.412  -9.162  -1.042  0.00  0.00    +0.007 A 
ATOM     24  C   UNL     1      -4.824  -8.470   0.001  0.00  0.00    -0.021 A 
ATOM     25  C   UNL     1      -4.214  -9.157   1.034  0.00  0.00    +0.007 A 
ATOM     26  C   UNL     1      -4.199 -10.538   1.033  0.00  0.00    +0.023 A 
BRANCH  21  28
ATOM     27  C   UNL     1      -5.499 -13.370  -1.056  0.00  0.00    +0.129 C 
ATOM     28  N   UNL     1      -4.771 -12.633  -0.021  0.00  0.00    -0.336 N 
ATOM     29  C   UNL     1      -4.023 -13.361   1.008  0.00  0.00    +0.129 C 
ENDBRANCH  21  28
ENDBRANCH  20  24
BRANCH  20  30
ATOM     30  S   UNL     1      -5.710  -6.377   1.490  0.00  0.00    +0.011 S 
ATOM     31  O   UNL     1      -5.584  -4.966   1.605  0.00  0.00    -0.168 OA
ATOM     32  O   UNL     1      -6.983  -7.000   1.592  0.00  0.00    -0.168 OA
BRANCH  30  33
ATOM     33  C   UNL     1      -4.784  -7.023   2.842  0.00  0.00    +0.126 A 
ATOM     34  C   UNL     1      -3.734  -6.471   3.499  0.00  0.00    +0.035 A 
ATOM     35  C   UNL     1      -3.158  -7.167   4.545  0.00  0.00    +0.009 A 
ATOM     36  C   UNL     1      -3.652  -8.385   4.876  0.00  0.00    +0.047 A 
ATOM     37  S   UNL     1      -4.978  -8.579   3.696  0.00  0.00    -0.078 S 
ENDBRANCH  30  33
ENDBRANCH  20  30
ENDBRANCH   1  20
TORSDOF 9
