REMARK  Name = ZINC04729980
REMARK  11 active torsions:
REMARK  status: ('A' for Active; 'I' for Inactive)
REMARK    1  A    between atoms: C_1  and  C_2
REMARK    2  A    between atoms: C_2  and  C_3
REMARK    3  A    between atoms: C_6  and  C_9
REMARK    4  A    between atoms: C_11  and  C_26
REMARK    5  A    between atoms: C_13  and  C_16
REMARK    6  A    between atoms: C_20  and  O_23
REMARK    7  A    between atoms: C_21  and  O_22
REMARK    8  A    between atoms: O_23  and  C_24
REMARK    9  A    between atoms: C_24  and  C_25
REMARK   10  A    between atoms: C_29  and  C_33
REMARK   11  A    between atoms: C_31  and  C_32
REMARK                            x       y       z     vdW  Elec       q    Type
REMARK                         _______ _______ _______ _____ _____    ______ ____
ROOT
ATOM      1  C   UNL     1       2.805   2.885   1.175  0.00  0.00    +0.040 C 
ATOM      2  N   UNL     1       2.091   1.826   1.259  0.00  0.00    -0.299 NA
ATOM      3  C   UNL     1       1.448   1.367   2.485  0.00  0.00    +0.081 C 
ATOM      4  C   UNL     1       2.090   3.471   3.475  0.00  0.00    -0.028 C 
ATOM      5  C   UNL     1       3.078   3.786   2.347  0.00  0.00    +0.044 C 
ATOM      6  N   UNL     1       2.054   2.008   3.662  0.00  0.00    +0.401 N 
ATOM      7  H   UNL     1       3.011   1.657   3.786  0.00  0.00    -0.081 HD
ATOM      8  H   UNL     1       1.497   1.785   4.495  0.00  0.00    -0.081 HD
ENDROOT
BRANCH   3   9
ATOM      9  C   UNL     1      -0.019   1.707   2.433  0.00  0.00    -0.038 A 
ATOM     10  C   UNL     1      -0.669   2.139   3.574  0.00  0.00    +0.004 A 
ATOM     11  C   UNL     1      -2.015   2.450   3.526  0.00  0.00    +0.003 A 
ATOM     12  C   UNL     1      -2.711   2.330   2.337  0.00  0.00    -0.050 A 
ATOM     13  C   UNL     1      -2.060   1.902   1.196  0.00  0.00    +0.007 A 
ATOM     14  C   UNL     1      -0.715   1.585   1.244  0.00  0.00    -0.047 A 
ATOM     15  C   UNL     1      -0.006   1.115   0.001  0.00  0.00    +0.044 C 
ATOM     16  C   UNL     1      -4.179   2.668   2.285  0.00  0.00    +0.044 C 
ENDBRANCH   3   9
BRANCH   1  20
ATOM     17  C   UNL     1       4.483   3.899  -2.590  0.00  0.00    -0.048 A 
ATOM     18  C   UNL     1       3.707   2.760  -2.466  0.00  0.00    +0.004 A 
ATOM     19  C   UNL     1       3.159   2.425  -1.246  0.00  0.00    +0.010 A 
ATOM     20  C   UNL     1       3.389   3.237  -0.134  0.00  0.00    -0.004 A 
ATOM     21  C   UNL     1       4.169   4.387  -0.267  0.00  0.00    +0.010 A 
ATOM     22  C   UNL     1       4.716   4.708  -1.492  0.00  0.00    +0.004 A 
BRANCH  17  24
ATOM     23  C   UNL     1       4.102   5.150  -4.697  0.00  0.00    +0.009 C 
ATOM     24  C   UNL     1       5.079   4.259  -3.927  0.00  0.00    +0.032 C 
ENDBRANCH  17  24
ENDBRANCH   1  20
BRANCH   4  25
ATOM     25  C   UNL     1       2.546   4.132   4.750  0.00  0.00    -0.016 A 
ATOM     26  C   UNL     1       3.303   3.422   5.664  0.00  0.00    +0.006 A 
ATOM     27  C   UNL     1       3.723   4.025   6.835  0.00  0.00    +0.004 A 
ATOM     28  C   UNL     1       3.389   5.341   7.097  0.00  0.00    +0.049 A 
ATOM     29  C   UNL     1       2.631   6.058   6.185  0.00  0.00    +0.162 A 
ATOM     30  C   UNL     1       2.213   5.452   5.004  0.00  0.00    +0.160 A 
BRANCH  30  31
ATOM     31  O   UNL     1       1.475   6.154   4.103  0.00  0.00    -0.503 OA
ATOM     32  H   UNL     1       0.520   6.093   4.244  0.00  0.00    +0.292 HD
ENDBRANCH  30  31
BRANCH  29  33
ATOM     33  O   UNL     1       2.302   7.352   6.441  0.00  0.00    -0.489 OA
BRANCH  33  34
ATOM     34  C   UNL     1       2.770   7.910   7.671  0.00  0.00    +0.226 C 
ATOM     35  C   UNL     1       2.304   9.363   7.782  0.00  0.00    +0.048 C 
ENDBRANCH  33  34
ENDBRANCH  29  33
ENDBRANCH   4  25
TORSDOF 7
