REMARK  Name = ZINC53898997
REMARK  3 active torsions:
REMARK  status: ('A' for Active; 'I' for Inactive)
REMARK    1  A    between atoms: C_3  and  C_8
REMARK    2  A    between atoms: C_14  and  S_21
REMARK    3  A    between atoms: S_21  and  N_24
REMARK                            x       y       z     vdW  Elec       q    Type
REMARK                         _______ _______ _______ _____ _____    ______ ____
ROOT
ATOM      1  C   UNL     1       3.672   2.184  -0.021  0.00  0.00    +0.191 C 
ATOM      2  N   UNL     1       3.477   3.459  -0.707  0.00  0.00    -0.322 N 
ATOM      3  C   UNL     1       3.263   3.565  -2.079  0.00  0.00    +0.057 A 
ATOM      4  C   UNL     1       2.646   4.712  -2.576  0.00  0.00    +0.047 A 
ATOM      5  C   UNL     1       2.434   4.854  -3.932  0.00  0.00    +0.069 A 
ATOM      6  C   UNL     1       2.833   3.860  -4.809  0.00  0.00    +0.125 A 
ATOM      7  C   UNL     1       3.440   2.717  -4.322  0.00  0.00    +0.060 A 
ATOM      8  C   UNL     1       3.646   2.568  -2.966  0.00  0.00    +0.128 A 
ATOM      9  S   UNL     1       4.385   1.087  -2.346  0.00  0.00    +0.062 S 
ATOM     10  O   UNL     1       5.639   0.944  -2.998  0.00  0.00    -0.153 OA
ATOM     11  O   UNL     1       3.384   0.079  -2.375  0.00  0.00    -0.153 OA
ATOM     12  N   UNL     1       4.706   1.410  -0.738  0.00  0.00    -0.166 NA
ATOM     13 CL   UNL     1       1.663   6.286  -4.541  0.00  0.00    -0.081 Cl
ATOM     14  H   UNL     1       3.499   4.273  -0.180  0.00  0.00    +0.148 HD
ATOM     15  H   UNL     1       5.520   1.112  -0.302  0.00  0.00    +0.150 HD
ENDROOT
BRANCH   1  18
ATOM     16  C   UNL     1      -0.017   1.378   0.010  0.00  0.00    +0.002 A 
ATOM     17  C   UNL     1       1.171   2.086   0.002  0.00  0.00    +0.007 A 
ATOM     18  C   UNL     1       2.378   1.412  -0.013  0.00  0.00    -0.010 A 
ATOM     19  C   UNL     1       2.398   0.029  -0.021  0.00  0.00    +0.026 A 
ATOM     20  C   UNL     1       1.210  -0.679  -0.013  0.00  0.00    +0.041 A 
ATOM     21  C   UNL     1       0.002  -0.004   0.002  0.00  0.00    +0.020 A 
ATOM     22 CL   UNL     1       1.234  -2.415  -0.024  0.00  0.00    -0.084 Cl
ENDBRANCH   1  18
BRANCH   6  23
ATOM     23  S   UNL     1       2.569   4.051  -6.540  0.00  0.00    +0.057 S 
ATOM     24  O   UNL     1       3.049   5.343  -6.884  0.00  0.00    -0.153 OA
ATOM     25  O   UNL     1       3.056   2.868  -7.158  0.00  0.00    -0.153 OA
BRANCH  23  26
ATOM     26  N   UNL     1       0.931   4.074  -6.786  0.00  0.00    -0.203 NA
ATOM     27  H   UNL     1       0.327   3.988  -6.032  0.00  0.00    +0.144 HD
ATOM     28  H   UNL     1       0.577   4.172  -7.683  0.00  0.00    +0.144 HD
ENDBRANCH  23  26
ENDBRANCH   6  23
TORSDOF 3
