REMARK  Name = ZINC35494236
REMARK  16 active torsions:
REMARK  status: ('A' for Active; 'I' for Inactive)
REMARK    1  A    between atoms: C_1  and  C_2
REMARK    2  A    between atoms: C_6  and  C_37
REMARK    3  A    between atoms: C_6  and  C_38
REMARK    4  A    between atoms: C_13  and  C_15
REMARK    5  A    between atoms: C_15  and  C_16
REMARK    6  A    between atoms: C_16  and  C_17
REMARK    7  A    between atoms: C_21  and  C_22
REMARK    8  A    between atoms: C_22  and  N_23
REMARK    9  A    between atoms: N_23  and  C_24
REMARK   10  A    between atoms: C_24  and  C_26
REMARK   11  A    between atoms: C_24  and  C_33
REMARK   12  A    between atoms: C_26  and  C_27
REMARK   13  A    between atoms: C_33  and  O_35
REMARK   14  A    between atoms: O_35  and  C_36
REMARK   15  A    between atoms: C_38  and  O_40
REMARK   16  A    between atoms: O_40  and  C_41
REMARK                            x       y       z     vdW  Elec       q    Type
REMARK                         _______ _______ _______ _____ _____    ______ ____
ROOT
ATOM      1  C   UNL     1      -0.375   0.331  -4.782  0.00  0.00    -0.005 A 
ATOM      2  C   UNL     1      -1.459  -0.162  -5.543  0.00  0.00    +0.045 A 
ATOM      3  C   UNL     1      -1.757   0.783  -6.454  0.00  0.00    +0.195 A 
ATOM      4  O   UNL     1      -0.915   1.816  -6.285  0.00  0.00    -0.466 OA
ATOM      5  C   UNL     1      -0.078   1.549  -5.269  0.00  0.00    +0.122 A 
ENDROOT
BRANCH   1   6
ATOM      6  C   UNL     1       0.312  -0.371  -3.639  0.00  0.00    +0.039 C 
BRANCH   6   7
ATOM      7  C   UNL     1      -0.305   0.085  -2.315  0.00  0.00    +0.013 C 
BRANCH   7  19
ATOM      8  C   UNL     1      -0.616   1.030   0.376  0.00  0.00    +0.012 C 
ATOM      9  C   UNL     1      -0.496  -0.473   0.118  0.00  0.00    -0.022 C 
ATOM     10  C   UNL     1      -1.892  -1.076  -0.058  0.00  0.00    +0.007 C 
ATOM     11  C   UNL     1      -2.707  -0.875   1.220  0.00  0.00    +0.002 C 
ATOM     12  C   UNL     1      -2.000  -1.573   2.384  0.00  0.00    +0.018 C 
ATOM     13  C   UNL     1      -0.612  -0.959   2.570  0.00  0.00    +0.068 C 
ATOM     14  C   UNL     1       0.210  -1.140   1.299  0.00  0.00    +0.012 C 
ATOM     15  C   UNL     1       1.585  -0.501   1.512  0.00  0.00    +0.009 C 
ATOM     16  C   UNL     1       2.465  -0.752   0.284  0.00  0.00    +0.031 C 
ATOM     17  C   UNL     1       1.732  -0.243  -0.938  0.00  0.00    -0.073 C 
ATOM     18  C   UNL     1       2.312   0.579  -1.777  0.00  0.00    +0.008 C 
ATOM     19  C   UNL     1       0.313  -0.711  -1.164  0.00  0.00    +0.021 C 
ATOM     20  C   UNL     1       0.097  -1.647   3.739  0.00  0.00    +0.023 C 
BRANCH  13  21
ATOM     21  C   UNL     1      -0.750   0.512   2.866  0.00  0.00    +0.313 C 
ATOM     22  O   UNL     1      -1.847   1.005   2.980  0.00  0.00    -0.250 OA
BRANCH  21  23
ATOM     23  O   UNL     1       0.346   1.275   3.003  0.00  0.00    -0.468 OA
ATOM     24  C   UNL     1       0.141   2.662   3.283  0.00  0.00    +0.280 C 
ENDBRANCH  21  23
ENDBRANCH  13  21
ENDBRANCH   7  19
ENDBRANCH   6   7
ENDBRANCH   1   6
BRANCH   5  25
ATOM     25  C   UNL     1       1.012   2.459  -4.763  0.00  0.00    +0.156 C 
BRANCH  25  26
ATOM     26  N   UNL     1       2.258   2.181  -5.489  0.00  0.00    -0.297 NA
ATOM     27  H   UNL     1       2.514   1.208  -5.408  0.00  0.00    +0.123 HD
BRANCH  26  28
ATOM     28  C   UNL     1       3.345   3.052  -5.021  0.00  0.00    +0.168 C 
BRANCH  28  29
ATOM     29  C   UNL     1       3.287   4.367  -5.755  0.00  0.00    +0.324 C 
ATOM     30  O   UNL     1       2.428   4.559  -6.583  0.00  0.00    -0.249 OA
BRANCH  29  31
ATOM     31  O   UNL     1       4.189   5.324  -5.489  0.00  0.00    -0.467 OA
ATOM     32  C   UNL     1       4.074   6.545  -6.222  0.00  0.00    +0.280 C 
ENDBRANCH  29  31
ENDBRANCH  28  29
BRANCH  28  33
ATOM     33  C   UNL     1       4.691   2.376  -5.290  0.00  0.00    +0.065 C 
BRANCH  33  34
ATOM     34  C   UNL     1       4.799   1.123  -4.461  0.00  0.00    -0.045 A 
ATOM     35  C   UNL     1       5.338   1.180  -3.189  0.00  0.00    +0.004 A 
ATOM     36  C   UNL     1       5.437   0.030  -2.428  0.00  0.00    +0.000 A 
ATOM     37  C   UNL     1       4.997  -1.177  -2.939  0.00  0.00    +0.000 A 
ATOM     38  C   UNL     1       4.457  -1.234  -4.210  0.00  0.00    +0.000 A 
ATOM     39  C   UNL     1       4.354  -0.083  -4.969  0.00  0.00    +0.004 A 
ENDBRANCH  33  34
ENDBRANCH  28  33
ENDBRANCH  26  28
ENDBRANCH  25  26
ENDBRANCH   5  25
TORSDOF 12
