REMARK  Name = ZINC20331655
REMARK  8 active torsions:
REMARK  status: ('A' for Active; 'I' for Inactive)
REMARK    1  A    between atoms: C_1  and  C_2
REMARK    2  A    between atoms: C_12  and  C_14
REMARK    3  A    between atoms: C_14  and  C_15
REMARK    4  A    between atoms: C_15  and  C_16
REMARK    5  A    between atoms: C_16  and  C_17
REMARK    6  A    between atoms: C_17  and  N_18
REMARK    7  A    between atoms: C_25  and  O_31
REMARK    8  A    between atoms: O_31  and  C_32
REMARK                            x       y       z     vdW  Elec       q    Type
REMARK                         _______ _______ _______ _____ _____    ______ ____
ROOT
ATOM      1  N   UNL     1       3.385   2.513  -0.016  0.00  0.00    -0.287 N 
ATOM      2  C   UNL     1       2.503   1.494  -0.013  0.00  0.00    +0.279 A 
ATOM      3  O   UNL     1       2.895   0.341  -0.024  0.00  0.00    -0.265 OA
ATOM      4  C   UNL     1       1.112   1.776   0.001  0.00  0.00    +0.129 A 
ATOM      5  C   UNL     1       0.707   3.098   0.012  0.00  0.00    +0.079 A 
ATOM      6  C   UNL     1      -0.756   3.093   0.026  0.00  0.00    +0.027 A 
ATOM      7  C   UNL     1      -1.724   4.102   0.040  0.00  0.00    +0.057 A 
ATOM      8  C   UNL     1      -3.062   3.765   0.036  0.00  0.00    +0.121 A 
ATOM      9  C   UNL     1      -3.449   2.427   0.031  0.00  0.00    +0.047 A 
ATOM     10  C   UNL     1      -2.506   1.425   0.021  0.00  0.00    +0.030 A 
ATOM     11  C   UNL     1      -1.150   1.742   0.016  0.00  0.00    +0.049 A 
ATOM     12  N   UNL     1      -0.011   0.966   0.007  0.00  0.00    -0.349 N 
ATOM     13  H   UNL     1       0.101  -0.129   0.005  0.00  0.00    +0.166 HD
ATOM     14  N   UNL     1       1.659   4.102   0.009  0.00  0.00    -0.333 N 
ATOM     15  C   UNL     1       2.969   3.791  -0.005  0.00  0.00    +0.161 A 
ATOM     16  S   UNL     1       4.129   5.050  -0.009  0.00  0.00    -0.013 S 
ATOM     17  H   UNL     1       1.346   5.157   0.017  0.00  0.00    +0.168 HD
ENDROOT
BRANCH   8  18
ATOM     18  O   UNL     1      -4.006   4.744   0.047  0.00  0.00    -0.495 OA
ATOM     19  C   UNL     1      -5.373   4.326   0.051  0.00  0.00    +0.277 C 
ENDBRANCH   8  18
BRANCH   1  20
ATOM     20  C   UNL     1       4.821   2.223  -0.030  0.00  0.00    +0.127 C 
BRANCH  20  21
ATOM     21  C   UNL     1       5.308   2.129  -1.478  0.00  0.00    +0.022 C 
BRANCH  21  22
ATOM     22  C   UNL     1       6.807   1.826  -1.493  0.00  0.00    +0.011 C 
BRANCH  22  23
ATOM     23  C   UNL     1       7.294   1.732  -2.940  0.00  0.00    +0.096 C 
BRANCH  23  34
ATOM     24  C   UNL     1      11.185  -0.334  -3.635  0.00  0.00    +0.029 C 
ATOM     25  C   UNL     1      10.851   1.017  -4.270  0.00  0.00    +0.083 C 
ATOM     26  C   UNL     1      11.105   0.971  -5.786  0.00  0.00    +0.059 C 
ATOM     27  C   UNL     1       9.754   1.247  -6.407  0.00  0.00    -0.024 A 
ATOM     28  C   UNL     1       9.365   1.330  -7.730  0.00  0.00    +0.005 A 
ATOM     29  C   UNL     1       8.047   1.597  -8.051  0.00  0.00    +0.000 A 
ATOM     30  C   UNL     1       7.118   1.782  -7.043  0.00  0.00    +0.002 A 
ATOM     31  C   UNL     1       7.501   1.700  -5.722  0.00  0.00    +0.024 A 
ATOM     32  C   UNL     1       8.829   1.424  -5.390  0.00  0.00    +0.040 A 
ATOM     33  N   UNL     1       9.421   1.306  -4.129  0.00  0.00    -0.268 N 
ATOM     34  C   UNL     1       8.771   1.433  -2.955  0.00  0.00    +0.220 C 
ATOM     35  O   UNL     1       9.375   1.308  -1.911  0.00  0.00    -0.275 OA
ENDBRANCH  23  34
ENDBRANCH  22  23
ENDBRANCH  21  22
ENDBRANCH  20  21
ENDBRANCH   1  20
TORSDOF 6
