REMARK  Name = ZINC12807239
REMARK  14 active torsions:
REMARK  status: ('A' for Active; 'I' for Inactive)
REMARK    1  A    between atoms: C_1  and  C_2
REMARK    2  A    between atoms: C_2  and  C_3
REMARK    3  A    between atoms: C_3  and  C_4
REMARK    4  A    between atoms: C_4  and  N_5
REMARK    5  A    between atoms: N_5  and  C_6
REMARK    6  A    between atoms: C_7  and  N_22
REMARK    7  A    between atoms: N_8  and  C_15
REMARK    8  A    between atoms: C_15  and  C_16
REMARK    9  A    between atoms: C_23  and  C_25
REMARK   10  A    between atoms: C_25  and  S_26
REMARK   11  A    between atoms: S_26  and  C_27
REMARK   12  A    between atoms: C_28  and  C_35
REMARK   13  A    between atoms: C_29  and  C_34
REMARK   14  A    between atoms: C_30  and  C_33
REMARK                            x       y       z     vdW  Elec       q    Type
REMARK                         _______ _______ _______ _____ _____    ______ ____
ROOT
ATOM      1  N   UNL     1      -6.916   3.679   4.765  0.00  0.00    -0.264 N 
ATOM      2  C   UNL     1      -5.613   3.779   5.102  0.00  0.00    +0.230 C 
ATOM      3  O   UNL     1      -5.298   4.263   6.169  0.00  0.00    -0.274 OA
ENDROOT
BRANCH   1   4
ATOM      4  C   UNL     1      -7.914   4.048   5.691  0.00  0.00    +0.140 A 
ATOM      5  C   UNL     1      -8.055   3.363   6.881  0.00  0.00    +0.128 A 
ATOM      6  N   UNL     1      -9.035   3.748   7.765  0.00  0.00    -0.276 N 
ATOM      7  C   UNL     1      -9.854   4.774   7.470  0.00  0.00    +0.331 A 
ATOM      8  O   UNL     1     -10.718   5.096   8.263  0.00  0.00    -0.246 OA
ATOM      9  N   UNL     1      -9.735   5.449   6.313  0.00  0.00    -0.273 N 
ATOM     10  H   UNL     1     -10.356   6.208   6.118  0.00  0.00    +0.173 HD
ATOM     11  C   UNL     1      -8.788   5.116   5.414  0.00  0.00    +0.277 A 
ATOM     12  O   UNL     1      -8.689   5.735   4.369  0.00  0.00    -0.266 OA
BRANCH   5  13
ATOM     13  N   UNL     1      -7.222   2.311   7.180  0.00  0.00    -0.343 N 
ATOM     14  H   UNL     1      -6.604   1.977   6.512  0.00  0.00    +0.144 HD
ATOM     15  H   UNL     1      -7.253   1.903   8.060  0.00  0.00    +0.144 HD
ENDBRANCH   5  13
BRANCH   6  16
ATOM     16  C   UNL     1      -9.193   3.033   9.034  0.00  0.00    +0.163 C 
BRANCH  16  17
ATOM     17  C   UNL     1     -10.153   1.886   8.848  0.00  0.00    -0.028 A 
ATOM     18  C   UNL     1     -11.506   2.076   9.060  0.00  0.00    +0.005 A 
ATOM     19  C   UNL     1     -12.387   1.025   8.885  0.00  0.00    +0.000 A 
ATOM     20  C   UNL     1     -11.914  -0.218   8.509  0.00  0.00    +0.000 A 
ATOM     21  C   UNL     1     -10.560  -0.409   8.303  0.00  0.00    +0.000 A 
ATOM     22  C   UNL     1      -9.680   0.643   8.473  0.00  0.00    +0.005 A 
ENDBRANCH  16  17
ENDBRANCH   6  16
ENDBRANCH   1   4
BRANCH   1  23
ATOM     23  C   UNL     1      -7.293   3.189   3.437  0.00  0.00    +0.114 C 
BRANCH  23  24
ATOM     24  C   UNL     1      -7.494   1.673   3.491  0.00  0.00    +0.019 C 
BRANCH  24  26
ATOM     25  C   UNL     1      -8.089  -0.355   2.159  0.00  0.00    +0.004 C 
ATOM     26  C   UNL     1      -7.888   1.161   2.105  0.00  0.00    -0.002 C 
ENDBRANCH  24  26
ENDBRANCH  23  24
ENDBRANCH   1  23
BRANCH   2  27
ATOM     27  C   UNL     1      -4.549   3.290   4.154  0.00  0.00    +0.172 C 
BRANCH  27  28
ATOM     28  S   UNL     1      -2.917   3.560   4.886  0.00  0.00    -0.094 S 
BRANCH  28  29
ATOM     29  C   UNL     1      -1.895   2.916   3.603  0.00  0.00    +0.137 A 
ATOM     30  C   UNL     1      -0.493   2.919   3.743  0.00  0.00    +0.090 A 
ATOM     31  C   UNL     1       0.265   2.394   2.688  0.00  0.00    -0.008 A 
ATOM     32  C   UNL     1      -0.412   1.908   1.582  0.00  0.00    +0.065 A 
ATOM     33  N   UNL     1      -1.730   1.952   1.539  0.00  0.00    -0.153 NA
ATOM     34  N   UNL     1      -2.439   2.425   2.498  0.00  0.00    -0.141 NA
ATOM     35  C   UNL     1       0.358   1.333   0.422  0.00  0.00    +0.068 C 
ATOM     36  C   UNL     1       1.770   2.358   2.755  0.00  0.00    +0.047 C 
BRANCH  30  37
ATOM     37  C   UNL     1       0.135   3.439   4.920  0.00  0.00    +0.102 C 
ATOM     38  N   UNL     1       0.633   3.852   5.854  0.00  0.00    -0.191 NA
ENDBRANCH  30  37
ENDBRANCH  28  29
ENDBRANCH  27  28
ENDBRANCH   2  27
TORSDOF 11
