REMARK  Name = ZINC16808052
REMARK  9 active torsions:
REMARK  status: ('A' for Active; 'I' for Inactive)
REMARK    1  A    between atoms: C_1  and  C_2
REMARK    2  A    between atoms: C_2  and  C_28
REMARK    3  A    between atoms: C_7  and  C_27
REMARK    4  A    between atoms: C_8  and  N_11
REMARK    5  A    between atoms: C_12  and  C_14
REMARK    6  A    between atoms: C_14  and  S_15
REMARK    7  A    between atoms: S_15  and  C_16
REMARK    8  A    between atoms: C_19  and  C_22
REMARK    9  A    between atoms: N_20  and  N_21
REMARK                            x       y       z     vdW  Elec       q    Type
REMARK                         _______ _______ _______ _____ _____    ______ ____
ROOT
ATOM      1  C   UNL     1       2.376   0.329   0.599  0.00  0.00    +0.173 C 
ENDROOT
BRANCH   1   3
ATOM      2  N   UNL     1      -0.081   0.574   0.437  0.00  0.00    -0.311 N 
ATOM      3  C   UNL     1       1.121   1.164   0.596  0.00  0.00    +0.224 C 
ATOM      4  O   UNL     1       1.192   2.366   0.736  0.00  0.00    -0.275 OA
ATOM      5  H   UNL     1      -0.138  -0.388   0.325  0.00  0.00    +0.149 HD
BRANCH   2  12
ATOM      6  C   UNL     1      -4.145  -0.679  -1.055  0.00  0.00    +0.012 C 
ATOM      7  C   UNL     1      -2.807   0.044  -0.886  0.00  0.00    -0.025 C 
ATOM      8  C   UNL     1      -2.843   1.496  -1.482  0.00  0.00    -0.003 C 
ATOM      9  C   UNL     1      -3.923   2.154  -0.570  0.00  0.00    +0.005 C 
ATOM     10  C   UNL     1      -3.734   1.482   0.811  0.00  0.00    +0.009 C 
ATOM     11  C   UNL     1      -2.557   0.480   0.604  0.00  0.00    -0.008 C 
ATOM     12  C   UNL     1      -1.300   1.386   0.428  0.00  0.00    +0.080 C 
ATOM     13  C   UNL     1      -1.489   2.058  -0.951  0.00  0.00    +0.027 C 
ATOM     14  C   UNL     1      -2.431  -0.648   1.630  0.00  0.00    +0.013 C 
ATOM     15  C   UNL     1      -1.645  -0.778  -1.448  0.00  0.00    +0.012 C 
ENDBRANCH   2  12
ENDBRANCH   1   3
BRANCH   1  16
ATOM     16  S   UNL     1       3.814   1.403   0.830  0.00  0.00    -0.075 S 
BRANCH  16  17
ATOM     17  C   UNL     1       5.102   0.202   0.795  0.00  0.00    +0.209 A 
ATOM     18  N   UNL     1       4.954  -1.094   0.638  0.00  0.00    -0.121 NA
ATOM     19  N   UNL     1       6.099  -1.677   0.661  0.00  0.00    -0.126 NA
ATOM     20  C   UNL     1       7.052  -0.787   0.835  0.00  0.00    +0.188 A 
ATOM     21  N   UNL     1       6.442   0.445   0.920  0.00  0.00    -0.223 N 
BRANCH  20  22
ATOM     22  C   UNL     1       8.497  -1.055   0.916  0.00  0.00    +0.058 A 
ATOM     23  C   UNL     1       9.186  -2.190   0.569  0.00  0.00    +0.019 A 
ATOM     24  C   UNL     1      10.553  -2.208   0.732  0.00  0.00    +0.008 A 
ATOM     25  C   UNL     1      11.174  -1.112   1.240  0.00  0.00    +0.046 A 
ATOM     26  S   UNL     1       9.807   0.007   1.500  0.00  0.00    -0.093 S 
ENDBRANCH  20  22
BRANCH  21  27
ATOM     27  N   UNL     1       7.048   1.657   1.095  0.00  0.00    -0.295 N 
ATOM     28  H   UNL     1       7.140   1.876   2.076  0.00  0.00    +0.163 HD
ATOM     29  H   UNL     1       7.944   1.683   0.633  0.00  0.00    +0.163 HD
ENDBRANCH  21  27
ENDBRANCH  16  17
ENDBRANCH   1  16
TORSDOF 6
