REMARK  Name = ZINC00988406
REMARK  4 active torsions:
REMARK  status: ('A' for Active; 'I' for Inactive)
REMARK    1  A    between atoms: C_3  and  C_6
REMARK    2  A    between atoms: C_9  and  C_22
REMARK    3  A    between atoms: N_11  and  S_12
REMARK    4  A    between atoms: S_12  and  C_15
REMARK                            x       y       z     vdW  Elec       q    Type
REMARK                         _______ _______ _______ _____ _____    ______ ____
ROOT
ATOM      1  C   UNL     1       2.324   2.639  -1.198  0.00  0.00    +0.160 C 
ATOM      2  C   UNL     1       3.704   3.029  -0.635  0.00  0.00    +0.089 C 
ATOM      3  C   UNL     1       3.559   2.832   0.857  0.00  0.00    +0.077 C 
ATOM      4  N   UNL     1       2.363   2.425   1.122  0.00  0.00    -0.166 NA
ATOM      5  N   UNL     1       1.553   2.269  -0.001  0.00  0.00    -0.115 N 
ENDROOT
BRANCH   1   8
ATOM      6  C   UNL     1       0.924   5.201  -3.646  0.00  0.00    +0.008 A 
ATOM      7  C   UNL     1       1.554   4.043  -3.227  0.00  0.00    +0.013 A 
ATOM      8  C   UNL     1       1.686   3.811  -1.898  0.00  0.00    +0.014 A 
ATOM      9  S   UNL     1       0.901   5.250  -1.192  0.00  0.00    -0.100 S 
ATOM     10  C   UNL     1       0.458   6.069  -2.715  0.00  0.00    +0.045 A 
ENDBRANCH   1   8
BRANCH   3  11
ATOM     11  C   UNL     1       4.612   3.073   1.850  0.00  0.00    +0.035 A 
ATOM     12  C   UNL     1       4.565   2.925   3.225  0.00  0.00    +0.017 A 
ATOM     13  C   UNL     1       5.697   3.214   3.953  0.00  0.00    +0.008 A 
ATOM     14  C   UNL     1       6.812   3.640   3.306  0.00  0.00    +0.046 A 
ATOM     15  S   UNL     1       6.286   3.641   1.600  0.00  0.00    -0.095 S 
ENDBRANCH   3  11
BRANCH   5  16
ATOM     16  S   UNL     1      -0.022   1.758   0.012  0.00  0.00    +0.089 S 
ATOM     17  O   UNL     1      -0.590   2.163  -1.226  0.00  0.00    -0.149 OA
ATOM     18  O   UNL     1      -0.566   2.150   1.264  0.00  0.00    -0.149 OA
BRANCH  16  19
ATOM     19  C   UNL     1       0.002  -0.004   0.002  0.00  0.00    +0.110 A 
ATOM     20  C   UNL     1      -0.006  -0.689  -1.199  0.00  0.00    +0.030 A 
ATOM     21  C   UNL     1       0.018  -2.071  -1.207  0.00  0.00    +0.017 A 
ATOM     22  C   UNL     1       0.039  -2.769  -0.013  0.00  0.00    +0.018 A 
ATOM     23  C   UNL     1       0.041  -2.083   1.188  0.00  0.00    +0.017 A 
ATOM     24  C   UNL     1       0.023  -0.701   1.196  0.00  0.00    +0.030 A 
ATOM     25 BR   UNL     1       0.063  -4.660  -0.024  0.00  0.00    -0.050 Br
ENDBRANCH  16  19
ENDBRANCH   5  16
TORSDOF 4
