REMARK  Name = ZINC67091607
REMARK  7 active torsions:
REMARK  status: ('A' for Active; 'I' for Inactive)
REMARK    1  A    between atoms: C_1  and  C_2
REMARK    2  A    between atoms: C_4  and  C_7
REMARK    3  A    between atoms: C_7  and  S_8
REMARK    4  A    between atoms: S_8  and  C_9
REMARK    5  A    between atoms: C_10  and  C_15
REMARK    6  A    between atoms: N_17  and  C_18
REMARK    7  A    between atoms: C_21  and  C_23
REMARK                            x       y       z     vdW  Elec       q    Type
REMARK                         _______ _______ _______ _____ _____    ______ ____
ROOT
ATOM      1  C   UNL     1      -2.873  -5.286  -1.556  0.00  0.00    +0.109 A 
ATOM      2  C   UNL     1      -3.345  -5.946  -2.705  0.00  0.00    +0.068 A 
ATOM      3  C   UNL     1      -4.149  -7.080  -2.548  0.00  0.00    +0.017 A 
ATOM      4  C   UNL     1      -4.445  -7.504  -1.264  0.00  0.00    +0.020 A 
ATOM      5  C   UNL     1      -3.944  -6.802  -0.182  0.00  0.00    +0.112 A 
ATOM      6  N   UNL     1      -3.183  -5.738  -0.350  0.00  0.00    -0.248 NA
ENDROOT
BRANCH   2   7
ATOM      7  C   UNL     1      -2.999  -5.451  -4.049  0.00  0.00    +0.247 C 
ATOM      8  O   UNL     1      -2.300  -4.463  -4.173  0.00  0.00    -0.270 OA
ATOM      9  N   UNL     1      -3.458  -6.092  -5.142  0.00  0.00    -0.308 N 
ATOM     10  H   UNL     1      -4.016  -6.880  -5.044  0.00  0.00    +0.149 HD
BRANCH   9  11
ATOM     11  C   UNL     1      -3.115  -5.601  -6.479  0.00  0.00    +0.081 C 
ATOM     12  C   UNL     1      -4.233  -5.550  -7.522  0.00  0.00    +0.033 C 
ATOM     13  C   UNL     1      -3.133  -6.609  -7.629  0.00  0.00    +0.041 C 
BRANCH  13  14
ATOM     14  C   UNL     1      -2.107  -6.439  -8.720  0.00  0.00    -0.040 A 
ATOM     15  C   UNL     1      -2.070  -5.270  -9.457  0.00  0.00    +0.004 A 
ATOM     16  C   UNL     1      -1.130  -5.113 -10.459  0.00  0.00    +0.003 A 
ATOM     17  C   UNL     1      -0.226  -6.124 -10.723  0.00  0.00    +0.038 A 
ATOM     18  C   UNL     1      -0.262  -7.295  -9.986  0.00  0.00    +0.124 A 
ATOM     19  C   UNL     1      -1.201  -7.449  -8.979  0.00  0.00    +0.042 A 
ATOM     20  F   UNL     1       0.620  -8.285 -10.244  0.00  0.00    -0.205 F 
ENDBRANCH  13  14
ENDBRANCH   9  11
ENDBRANCH   2   7
BRANCH   1  21
ATOM     21  S   UNL     1      -1.858  -3.855  -1.721  0.00  0.00    -0.099 S 
BRANCH  21  22
ATOM     22  C   UNL     1      -1.500  -3.372  -0.010  0.00  0.00    +0.134 C 
BRANCH  22  26
ATOM     23  C   UNL     1      -0.018   1.503   0.010  0.00  0.00    +0.089 C 
ATOM     24  C   UNL     1       0.002  -0.004   0.002  0.00  0.00    +0.134 A 
ATOM     25  C   UNL     1      -1.077  -0.810   0.003  0.00  0.00    +0.071 A 
ATOM     26  C   UNL     1      -0.627  -2.143  -0.007  0.00  0.00    +0.094 A 
ATOM     27  N   UNL     1       0.676  -2.130  -0.013  0.00  0.00    -0.082 NA
ATOM     28  O   UNL     1       1.098  -0.778  -0.013  0.00  0.00    -0.360 OA
ENDBRANCH  22  26
ENDBRANCH  21  22
ENDBRANCH   1  21
TORSDOF 6
