REMARK  Name = ZINC16569302
REMARK  10 active torsions:
REMARK  status: ('A' for Active; 'I' for Inactive)
REMARK    1  A    between atoms: C_1  and  C_2
REMARK    2  A    between atoms: C_2  and  C_3
REMARK    3  A    between atoms: C_3  and  C_5
REMARK    4  A    between atoms: C_3  and  C_11
REMARK    5  A    between atoms: N_13  and  C_14
REMARK    6  A    between atoms: N_13  and  C_39
REMARK    7  A    between atoms: C_14  and  C_15
REMARK    8  A    between atoms: C_29  and  C_31
REMARK    9  A    between atoms: C_34  and  O_37
REMARK   10  A    between atoms: O_37  and  C_38
REMARK                            x       y       z     vdW  Elec       q    Type
REMARK                         _______ _______ _______ _____ _____    ______ ____
ROOT
ATOM      1  C   UNL     1       2.341   4.670  -0.568  0.00  0.00    +0.238 C 
ATOM      2  O   UNL     1       2.430   5.871  -0.713  0.00  0.00    -0.273 OA
ATOM      3  N   UNL     1       1.278   4.147   0.074  0.00  0.00    -0.255 N 
ATOM      4  C   UNL     1       0.329   4.994   0.663  0.00  0.00    +0.061 A 
ATOM      5  C   UNL     1       0.095   6.258   0.145  0.00  0.00    +0.025 A 
ATOM      6  C   UNL     1      -0.827   7.091   0.751  0.00  0.00    +0.002 A 
ATOM      7  C   UNL     1      -1.519   6.672   1.873  0.00  0.00    +0.002 A 
ATOM      8  C   UNL     1      -1.297   5.410   2.395  0.00  0.00    +0.028 A 
ATOM      9  C   UNL     1      -0.380   4.571   1.793  0.00  0.00    +0.068 A 
ATOM     10  N   UNL     1      -0.136   3.276   2.272  0.00  0.00    -0.316 N 
ATOM     11  C   UNL     1      -0.495   2.696   3.443  0.00  0.00    +0.092 A 
ATOM     12  C   UNL     1      -0.019   1.431   3.449  0.00  0.00    +0.020 A 
ATOM     13  C   UNL     1       0.659   1.224   2.228  0.00  0.00    +0.025 A 
ATOM     14  C   UNL     1       0.572   2.359   1.526  0.00  0.00    +0.049 A 
ATOM     15  C   UNL     1       1.115   2.686   0.155  0.00  0.00    +0.159 C 
ENDROOT
BRANCH  15  16
ATOM     16  C   UNL     1       0.147   2.220  -0.902  0.00  0.00    -0.021 A 
ATOM     17  C   UNL     1      -0.987   2.963  -1.175  0.00  0.00    +0.009 A 
ATOM     18  C   UNL     1      -1.873   2.541  -2.148  0.00  0.00    +0.046 A 
ATOM     19  C   UNL     1      -1.629   1.366  -2.843  0.00  0.00    +0.120 A 
ATOM     20  C   UNL     1      -0.493   0.620  -2.564  0.00  0.00    +0.046 A 
ATOM     21  C   UNL     1       0.392   1.048  -1.594  0.00  0.00    +0.009 A 
BRANCH  19  22
ATOM     22  O   UNL     1      -2.501   0.946  -3.797  0.00  0.00    -0.495 OA
ATOM     23  C   UNL     1      -3.649   1.764  -4.032  0.00  0.00    +0.277 C 
ENDBRANCH  19  22
ENDBRANCH  15  16
BRANCH   1  24
ATOM     24  C   UNL     1       3.418   3.764  -1.105  0.00  0.00    +0.204 C 
BRANCH  24  27
ATOM     25  C   UNL     1       5.561   4.903  -0.889  0.00  0.00    +0.224 C 
ATOM     26  O   UNL     1       6.493   5.516  -1.366  0.00  0.00    -0.275 OA
ATOM     27  N   UNL     1       4.506   4.574  -1.660  0.00  0.00    -0.289 N 
BRANCH  27  28
ATOM     28  C   UNL     1       4.446   5.026  -3.052  0.00  0.00    +0.077 C 
ATOM     29  C   UNL     1       5.748   5.509  -3.694  0.00  0.00    +0.024 C 
ATOM     30  C   UNL     1       4.659   6.517  -3.321  0.00  0.00    +0.024 C 
ENDBRANCH  27  28
BRANCH  25  31
ATOM     31  C   UNL     1       5.584   4.509   0.565  0.00  0.00    +0.105 C 
BRANCH  31  32
ATOM     32  C   UNL     1       6.620   5.329   1.291  0.00  0.00    -0.036 A 
ATOM     33  C   UNL     1       7.947   5.259   0.910  0.00  0.00    +0.004 A 
ATOM     34  C   UNL     1       8.897   6.014   1.573  0.00  0.00    +0.000 A 
ATOM     35  C   UNL     1       8.521   6.831   2.623  0.00  0.00    +0.000 A 
ATOM     36  C   UNL     1       7.194   6.896   3.007  0.00  0.00    +0.000 A 
ATOM     37  C   UNL     1       6.244   6.145   2.342  0.00  0.00    +0.004 A 
ENDBRANCH  31  32
BRANCH  31  39
ATOM     38  C   UNL     1       5.841   2.597   2.153  0.00  0.00    +0.005 C 
ATOM     39  C   UNL     1       5.932   3.024   0.686  0.00  0.00    +0.014 C 
ENDBRANCH  31  39
ENDBRANCH  25  31
ENDBRANCH  24  27
ENDBRANCH   1  24
TORSDOF 8
