REMARK  Name = ZINC59104104
REMARK  10 active torsions:
REMARK  status: ('A' for Active; 'I' for Inactive)
REMARK    1  A    between atoms: C_1  and  C_2
REMARK    2  A    between atoms: C_2  and  O_3
REMARK    3  A    between atoms: O_3  and  C_4
REMARK    4  A    between atoms: C_7  and  O_36
REMARK    5  A    between atoms: C_8  and  N_10
REMARK    6  A    between atoms: C_14  and  C_15
REMARK    7  A    between atoms: C_18  and  S_20
REMARK    8  A    between atoms: S_20  and  C_21
REMARK    9  A    between atoms: O_36  and  C_37
REMARK   10  A    between atoms: C_37  and  C_38
REMARK                            x       y       z     vdW  Elec       q    Type
REMARK                         _______ _______ _______ _____ _____    ______ ____
ROOT
ATOM      1  N   UNL     1      -4.353  -4.061  -0.031  0.00  0.00    -0.185 N 
ATOM      2  C   UNL     1      -4.861  -4.582   1.107  0.00  0.00    +0.264 C 
ATOM      3  O   UNL     1      -4.152  -4.784   2.076  0.00  0.00    -0.269 OA
ATOM      4  C   UNL     1      -6.296  -4.897   1.140  0.00  0.00    +0.105 C 
ATOM      5  C   UNL     1      -6.894  -5.439   2.285  0.00  0.00    +0.064 C 
ATOM      6  C   UNL     1      -7.053  -4.631  -0.031  0.00  0.00    +0.277 C 
ATOM      7  O   UNL     1      -8.377  -4.899  -0.065  0.00  0.00    -0.268 OA
ATOM      8  N   UNL     1      -6.446  -4.119  -1.090  0.00  0.00    -0.123 NA
ATOM      9  C   UNL     1      -5.147  -3.837  -1.091  0.00  0.00    +0.340 C 
ATOM     10  O   UNL     1      -4.654  -3.361  -2.099  0.00  0.00    -0.250 OA
ENDROOT
BRANCH   1  15
ATOM     11  C   UNL     1      -1.196  -2.176   0.193  0.00  0.00    +0.122 A 
ATOM     12  C   UNL     1      -0.289  -3.127  -0.251  0.00  0.00    +0.049 A 
ATOM     13  C   UNL     1      -0.728  -4.385  -0.622  0.00  0.00    +0.051 A 
ATOM     14  C   UNL     1      -2.075  -4.698  -0.550  0.00  0.00    +0.142 A 
ATOM     15  C   UNL     1      -2.988  -3.746  -0.104  0.00  0.00    +0.091 A 
ATOM     16  C   UNL     1      -2.544  -2.487   0.272  0.00  0.00    +0.073 A 
BRANCH  11  17
ATOM     17  O   UNL     1      -0.761  -0.940   0.556  0.00  0.00    -0.492 OA
BRANCH  17  19
ATOM     18  C   UNL     1       0.939   0.744   0.898  0.00  0.00    +0.048 C 
ATOM     19  C   UNL     1       0.642  -0.689   0.449  0.00  0.00    +0.225 C 
ENDBRANCH  17  19
ENDBRANCH  11  17
BRANCH  14  20
ATOM     20  O   UNL     1      -2.506  -5.936  -0.915  0.00  0.00    -0.490 OA
BRANCH  20  21
ATOM     21  C   UNL     1      -1.515  -6.862  -1.363  0.00  0.00    +0.226 C 
ATOM     22  C   UNL     1      -2.184  -8.189  -1.726  0.00  0.00    +0.048 C 
ENDBRANCH  20  21
ENDBRANCH  14  20
ENDBRANCH   1  15
BRANCH   5  23
ATOM     23  C   UNL     1      -8.203  -5.911   2.229  0.00  0.00    +0.130 A 
ATOM     24  C   UNL     1      -9.209  -5.649   3.160  0.00  0.00    +0.050 A 
ATOM     25  C   UNL     1     -10.346  -6.310   2.717  0.00  0.00    +0.057 A 
ATOM     26  C   UNL     1     -10.012  -6.953   1.540  0.00  0.00    +0.169 A 
ATOM     27  O   UNL     1      -8.724  -6.698   1.260  0.00  0.00    -0.449 OA
BRANCH  26  28
ATOM     28  S   UNL     1     -11.098  -7.939   0.564  0.00  0.00    -0.014 S 
BRANCH  28  29
ATOM     29  C   UNL     1     -10.054  -8.619  -0.682  0.00  0.00    +0.175 A 
ATOM     30  N   UNL     1     -10.446  -9.526  -1.625  0.00  0.00    -0.333 N 
ATOM     31  H   UNL     1     -11.333  -9.905  -1.726  0.00  0.00    +0.168 HD
ATOM     32  C   UNL     1      -9.340  -9.805  -2.410  0.00  0.00    +0.067 A 
ATOM     33  C   UNL     1      -9.119 -10.631  -3.502  0.00  0.00    +0.028 A 
ATOM     34  C   UNL     1      -7.867 -10.689  -4.077  0.00  0.00    +0.002 A 
ATOM     35  C   UNL     1      -6.825  -9.925  -3.571  0.00  0.00    +0.002 A 
ATOM     36  C   UNL     1      -7.026  -9.100  -2.488  0.00  0.00    +0.030 A 
ATOM     37  C   UNL     1      -8.289  -9.029  -1.894  0.00  0.00    +0.090 A 
ATOM     38  N   UNL     1      -8.789  -8.325  -0.846  0.00  0.00    -0.222 NA
ENDBRANCH  28  29
ENDBRANCH  26  28
ENDBRANCH   5  23
TORSDOF 8
