REMARK  Name = ZINC39686246
REMARK  8 active torsions:
REMARK  status: ('A' for Active; 'I' for Inactive)
REMARK    1  A    between atoms: C_1  and  C_2
REMARK    2  A    between atoms: C_6  and  C_9
REMARK    3  A    between atoms: C_13  and  C_22
REMARK    4  A    between atoms: N_24  and  C_25
REMARK    5  A    between atoms: C_31  and  C_33
REMARK    6  A    between atoms: C_33  and  C_34
REMARK    7  A    between atoms: C_34  and  C_35
REMARK    8  A    between atoms: C_34  and  C_36
REMARK                            x       y       z     vdW  Elec       q    Type
REMARK                         _______ _______ _______ _____ _____    ______ ____
ROOT
ATOM      1  C   UNL     1       0.086  -2.896   2.597  0.00  0.00    +0.251 C 
ATOM      2  O   UNL     1       1.130  -3.248   3.110  0.00  0.00    -0.270 OA
ATOM      3  N   UNL     1      -1.090  -3.268   3.141  0.00  0.00    -0.296 N 
ATOM      4  C   UNL     1      -2.455  -2.946   2.660  0.00  0.00    +0.121 C 
ATOM      5  C   UNL     1      -3.264  -4.243   2.884  0.00  0.00    +0.100 C 
ATOM      6  C   UNL     1      -2.509  -4.989   3.997  0.00  0.00    -0.004 C 
ATOM      7  C   UNL     1      -1.311  -4.096   4.350  0.00  0.00    +0.115 C 
ATOM      8  C   UNL     1      -2.019  -6.341   3.489  0.00  0.00    -0.010 C 
ATOM      9  C   UNL     1      -1.323  -7.088   4.630  0.00  0.00    -0.082 C 
ATOM     10  N   UNL     1      -2.263  -7.272   5.743  0.00  0.00    +0.379 N 
ATOM     11  C   UNL     1      -2.657  -5.966   6.286  0.00  0.00    -0.082 C 
ATOM     12  C   UNL     1      -3.410  -5.172   5.215  0.00  0.00    -0.010 C 
ATOM     13  H   UNL     1      -3.082  -7.759   5.412  0.00  0.00    -0.086 HD
ATOM     14  H   UNL     1      -1.821  -7.816   6.468  0.00  0.00    -0.086 HD
ENDROOT
BRANCH   1  20
ATOM     15  C   UNL     1       0.143   1.609   0.445  0.00  0.00    +0.047 C 
ATOM     16  C   UNL     1       0.133   0.106   0.337  0.00  0.00    -0.014 A 
ATOM     17  C   UNL     1       0.142  -0.496  -0.908  0.00  0.00    +0.007 A 
ATOM     18  C   UNL     1       0.133  -1.875  -1.017  0.00  0.00    +0.021 A 
ATOM     19  C   UNL     1       0.114  -2.662   0.117  0.00  0.00    +0.056 A 
ATOM     20  C   UNL     1       0.106  -2.062   1.379  0.00  0.00    +0.091 A 
ATOM     21  C   UNL     1       0.120  -0.667   1.483  0.00  0.00    +0.140 A 
ATOM     22  F   UNL     1       0.117  -0.078   2.698  0.00  0.00    -0.204 F 
ATOM     23 CL   UNL     1       0.102  -4.393  -0.024  0.00  0.00    -0.083 Cl
ENDBRANCH   1  20
BRANCH   5  24
ATOM     24  C   UNL     1      -4.667  -3.917   3.325  0.00  0.00    +0.218 C 
ATOM     25  O   UNL     1      -4.881  -2.917   3.977  0.00  0.00    -0.275 OA
ATOM     26  N   UNL     1      -5.685  -4.737   2.994  0.00  0.00    -0.312 N 
ATOM     27  H   UNL     1      -5.514  -5.536   2.473  0.00  0.00    +0.149 HD
BRANCH  26  28
ATOM     28  C   UNL     1      -7.049  -4.420   3.423  0.00  0.00    +0.076 C 
ATOM     29  C   UNL     1      -7.274  -4.950   4.841  0.00  0.00    +0.041 C 
ATOM     30  C   UNL     1      -8.690  -4.586   5.299  0.00  0.00    +0.109 C 
ATOM     31  N   UNL     1      -9.651  -5.088   4.308  0.00  0.00    -0.301 N 
ATOM     32  C   UNL     1      -9.474  -4.713   2.899  0.00  0.00    +0.109 C 
ATOM     33  C   UNL     1      -8.049  -5.075   2.467  0.00  0.00    +0.041 C 
ATOM     34  C   UNL     1     -10.676  -5.879   4.684  0.00  0.00    +0.216 C 
ATOM     35  O   UNL     1     -10.812  -6.182   5.850  0.00  0.00    -0.276 OA
BRANCH  34  36
ATOM     36  C   UNL     1     -11.654  -6.386   3.655  0.00  0.00    +0.099 C 
BRANCH  36  37
ATOM     37  C   UNL     1     -12.711  -7.254   4.340  0.00  0.00    -0.008 C 
ATOM     38  C   UNL     1     -13.773  -7.666   3.319  0.00  0.00    +0.008 C 
ATOM     39  C   UNL     1     -12.046  -8.505   4.918  0.00  0.00    +0.008 C 
ENDBRANCH  36  37
ENDBRANCH  34  36
ENDBRANCH  26  28
ENDBRANCH   5  24
TORSDOF 5
