REMARK  Name = ZINC57642804
REMARK  10 active torsions:
REMARK  status: ('A' for Active; 'I' for Inactive)
REMARK    1  A    between atoms: C_1  and  C_2
REMARK    2  A    between atoms: C_5  and  C_8
REMARK    3  A    between atoms: C_8  and  N_9
REMARK    4  A    between atoms: N_9  and  C_10
REMARK    5  A    between atoms: N_9  and  C_26
REMARK    6  A    between atoms: C_10  and  C_11
REMARK    7  A    between atoms: C_26  and  C_27
REMARK    8  A    between atoms: N_31  and  C_32
REMARK    9  A    between atoms: C_32  and  C_33
REMARK   10  A    between atoms: C_33  and  C_34
REMARK                            x       y       z     vdW  Elec       q    Type
REMARK                         _______ _______ _______ _____ _____    ______ ____
ROOT
ATOM      1  N   UNL     1       1.514  -4.983   0.041  0.00  0.00    -0.287 NA
ENDROOT
BRANCH   1   2
ATOM      2  C   UNL     1       0.159  -4.825  -0.506  0.00  0.00    +0.120 C 
BRANCH   2   7
ATOM      3  C   UNL     1      -0.399  -8.077  -5.250  0.00  0.00    +0.044 C 
ATOM      4  C   UNL     1      -0.253  -7.229  -4.013  0.00  0.00    -0.050 A 
ATOM      5  C   UNL     1      -0.636  -7.729  -2.783  0.00  0.00    +0.003 A 
ATOM      6  C   UNL     1      -0.503  -6.952  -1.648  0.00  0.00    +0.005 A 
ATOM      7  C   UNL     1       0.015  -5.673  -1.743  0.00  0.00    -0.033 A 
ATOM      8  C   UNL     1       0.398  -5.173  -2.973  0.00  0.00    +0.005 A 
ATOM      9  C   UNL     1       0.269  -5.952  -4.107  0.00  0.00    +0.003 A 
ENDBRANCH   2   7
ENDBRANCH   1   2
BRANCH   1  10
ATOM     10  C   UNL     1       1.729  -6.353   0.526  0.00  0.00    +0.125 C 
BRANCH  10  11
ATOM     11  C   UNL     1       1.064  -6.520   1.868  0.00  0.00    +0.031 A 
ATOM     12  C   UNL     1      -0.131  -7.158   1.956  0.00  0.00    +0.020 A 
ATOM     13  C   UNL     1      -0.750  -7.305   3.272  0.00  0.00    +0.003 A 
ATOM     14  C   UNL     1      -1.983  -7.953   3.423  0.00  0.00    +0.059 A 
ATOM     15  C   UNL     1      -2.542  -8.075   4.675  0.00  0.00    +0.167 A 
ATOM     16  C   UNL     1      -1.883  -7.554   5.796  0.00  0.00    +0.168 A 
ATOM     17  C   UNL     1      -0.665  -6.913   5.657  0.00  0.00    +0.075 A 
ATOM     18  C   UNL     1      -0.088  -6.782   4.400  0.00  0.00    +0.053 A 
ATOM     19  N   UNL     1       1.126  -6.144   4.243  0.00  0.00    -0.322 N 
ATOM     20  H   UNL     1       1.581  -5.785   5.020  0.00  0.00    +0.169 HD
ATOM     21  C   UNL     1       1.689  -6.019   3.028  0.00  0.00    +0.254 A 
ATOM     22  O   UNL     1       2.764  -5.454   2.927  0.00  0.00    -0.268 OA
ATOM     23  O   UNL     1      -2.643  -7.807   6.901  0.00  0.00    -0.453 OA
ATOM     24  C   UNL     1      -3.957  -8.117   6.402  0.00  0.00    +0.466 C 
ATOM     25  O   UNL     1      -3.711  -8.649   5.088  0.00  0.00    -0.453 OA
ENDBRANCH  10  11
ENDBRANCH   1  10
BRANCH   1  26
ATOM     26  C   UNL     1       2.529  -4.611  -0.954  0.00  0.00    +0.163 C 
BRANCH  26  27
ATOM     27  C   UNL     1       2.629  -3.110  -1.032  0.00  0.00    +0.165 A 
ATOM     28  N   UNL     1       1.885  -2.313  -1.760  0.00  0.00    -0.112 NA
ATOM     29  N   UNL     1       2.277  -1.103  -1.554  0.00  0.00    -0.023 NA
ATOM     30  N   UNL     1       3.253  -1.108  -0.714  0.00  0.00    -0.044 NA
ATOM     31  N   UNL     1       3.495  -2.326  -0.364  0.00  0.00    -0.228 N 
BRANCH  31  32
ATOM     32  C   UNL     1       4.523  -2.772   0.579  0.00  0.00    +0.152 C 
BRANCH  32  33
ATOM     33  C   UNL     1       5.825  -3.046  -0.177  0.00  0.00    +0.058 C 
BRANCH  33  34
ATOM     34  C   UNL     1       6.883  -3.505   0.794  0.00  0.00    -0.046 A 
ATOM     35  C   UNL     1       7.702  -2.579   1.412  0.00  0.00    +0.004 A 
ATOM     36  C   UNL     1       8.671  -3.000   2.303  0.00  0.00    +0.000 A 
ATOM     37  C   UNL     1       8.822  -4.347   2.575  0.00  0.00    +0.000 A 
ATOM     38  C   UNL     1       8.003  -5.273   1.957  0.00  0.00    +0.000 A 
ATOM     39  C   UNL     1       7.030  -4.852   1.070  0.00  0.00    +0.004 A 
ENDBRANCH  33  34
ENDBRANCH  32  33
ENDBRANCH  31  32
ENDBRANCH  26  27
ENDBRANCH   1  26
TORSDOF 9
