REMARK  Name = ZINC63448281
REMARK  7 active torsions:
REMARK  status: ('A' for Active; 'I' for Inactive)
REMARK    1  A    between atoms: C_1  and  C_2
REMARK    2  A    between atoms: C_4  and  C_34
REMARK    3  A    between atoms: N_9  and  C_23
REMARK    4  A    between atoms: N_12  and  C_15
REMARK    5  A    between atoms: C_23  and  C_24
REMARK    6  A    between atoms: N_26  and  C_27
REMARK    7  A    between atoms: C_30  and  C_33
REMARK                            x       y       z     vdW  Elec       q    Type
REMARK                         _______ _______ _______ _____ _____    ______ ____
ROOT
ATOM      1  C   UNL     1      -0.767   0.484  -0.356  0.00  0.00    +0.024 C 
ATOM      2  C   UNL     1      -0.175  -0.824   0.176  0.00  0.00    +0.072 C 
ATOM      3  C   UNL     1       0.626  -1.529  -0.895  0.00  0.00    -0.049 C 
ATOM      4  C   UNL     1       1.899  -1.731  -0.719  0.00  0.00    +0.046 C 
ATOM      5  C   UNL     1       2.496  -1.353   0.641  0.00  0.00    +0.172 C 
ATOM      6  S   UNL     1       1.105  -0.493   1.458  0.00  0.00    -0.126 S 
ATOM      7  N   UNL     1       3.616  -0.465   0.335  0.00  0.00    -0.260 N 
ATOM      8  C   UNL     1       4.360  -0.730  -0.760  0.00  0.00    +0.317 C 
ATOM      9  O   UNL     1       5.351  -0.051  -0.946  0.00  0.00    -0.252 OA
ATOM     10  N   UNL     1       4.087  -1.688  -1.658  0.00  0.00    -0.190 N 
ATOM     11  C   UNL     1       2.862  -2.265  -1.731  0.00  0.00    +0.257 C 
ATOM     12  O   UNL     1       2.584  -3.139  -2.528  0.00  0.00    -0.269 OA
ATOM     13  C   UNL     1      -0.047  -1.996  -2.160  0.00  0.00    +0.041 C 
ENDROOT
BRANCH  10  14
ATOM     14  C   UNL     1       5.089  -2.094  -2.550  0.00  0.00    +0.047 A 
ATOM     15  C   UNL     1       5.199  -1.489  -3.795  0.00  0.00    +0.025 A 
ATOM     16  C   UNL     1       6.188  -1.891  -4.672  0.00  0.00    +0.023 A 
ATOM     17  C   UNL     1       7.068  -2.895  -4.311  0.00  0.00    +0.059 A 
ATOM     18  C   UNL     1       6.961  -3.501  -3.070  0.00  0.00    +0.061 A 
ATOM     19  C   UNL     1       5.976  -3.098  -2.187  0.00  0.00    +0.045 A 
ATOM     20 CL   UNL     1       8.067  -4.761  -2.621  0.00  0.00    -0.082 Cl
ATOM     21 CL   UNL     1       8.309  -3.398  -5.416  0.00  0.00    -0.082 Cl
ENDBRANCH  10  14
BRANCH   7  22
ATOM     22  C   UNL     1       3.924   0.682   1.193  0.00  0.00    +0.206 C 
BRANCH  22  23
ATOM     23  C   UNL     1       4.889   0.259   2.270  0.00  0.00    +0.232 C 
ATOM     24  O   UNL     1       5.282  -0.887   2.316  0.00  0.00    -0.274 OA
ATOM     25  N   UNL     1       5.316   1.155   3.182  0.00  0.00    -0.288 N 
ATOM     26  H   UNL     1       5.002   2.072   3.146  0.00  0.00    +0.151 HD
BRANCH  25  27
ATOM     27  C   UNL     1       6.255   0.744   4.229  0.00  0.00    +0.239 C 
ATOM     28  C   UNL     1       5.857   1.335   5.570  0.00  0.00    +0.045 C 
ATOM     29  C   UNL     1       6.896   2.103   5.904  0.00  0.00    +0.060 C 
ATOM     30  N   UNL     1       7.856   2.052   4.953  0.00  0.00    -0.157 NA
ATOM     31  N   UNL     1       7.588   1.323   3.990  0.00  0.00    -0.160 NA
ATOM     32  C   UNL     1       6.988   2.915   7.170  0.00  0.00    +0.067 C 
ENDBRANCH  25  27
ENDBRANCH  22  23
ENDBRANCH   7  22
TORSDOF 4
