REMARK  Name = ZINC19012141
REMARK  6 active torsions:
REMARK  status: ('A' for Active; 'I' for Inactive)
REMARK    1  A    between atoms: C_6  and  S_11
REMARK    2  A    between atoms: S_11  and  C_12
REMARK    3  A    between atoms: C_12  and  C_13
REMARK    4  A    between atoms: N_15  and  C_16
REMARK    5  A    between atoms: C_16  and  C_17
REMARK    6  A    between atoms: N_19  and  C_20
REMARK                            x       y       z     vdW  Elec       q    Type
REMARK                         _______ _______ _______ _____ _____    ______ ____
ROOT
ATOM      1  C   UNL     1       2.948   9.664  -0.011  0.00  0.00    +0.224 C 
ATOM      2  O   UNL     1       1.954  10.358  -0.003  0.00  0.00    -0.275 OA
ATOM      3  N   UNL     1       4.169  10.236  -0.010  0.00  0.00    -0.306 N 
ATOM      4  H   UNL     1       4.964   9.681  -0.016  0.00  0.00    +0.149 HD
ENDROOT
BRANCH   1   5
ATOM      5  C   UNL     1       2.819   8.163  -0.022  0.00  0.00    +0.170 C 
BRANCH   5   6
ATOM      6  S   UNL     1       1.064   7.707  -0.021  0.00  0.00    -0.116 S 
BRANCH   6  12
ATOM      7  C   UNL     1      -0.008   1.074  -0.069  0.00  0.00    +0.001 A 
ATOM      8  C   UNL     1      -1.231   1.743  -0.067  0.00  0.00    +0.001 A 
ATOM      9  C   UNL     1      -1.285   3.103  -0.051  0.00  0.00    +0.008 A 
ATOM     10  C   UNL     1      -0.091   3.847  -0.048  0.00  0.00    -0.017 A 
ATOM     11  C   UNL     1      -0.110   5.250  -0.037  0.00  0.00    +0.023 A 
ATOM     12  C   UNL     1       1.081   5.945  -0.035  0.00  0.00    +0.009 A 
ATOM     13  C   UNL     1       2.305   5.263  -0.043  0.00  0.00    +0.015 A 
ATOM     14  C   UNL     1       2.348   3.905  -0.053  0.00  0.00    +0.009 A 
ATOM     15  C   UNL     1       1.152   3.166  -0.056  0.00  0.00    -0.018 A 
ATOM     16  C   UNL     1       1.167   1.761  -0.067  0.00  0.00    +0.008 A 
ENDBRANCH   6  12
ENDBRANCH   5   6
ENDBRANCH   1   5
BRANCH   3  17
ATOM     17  C   UNL     1       4.294  11.695   0.001  0.00  0.00    +0.200 C 
BRANCH  17  18
ATOM     18  C   UNL     1       5.753  12.075   0.000  0.00  0.00    +0.234 C 
ATOM     19  O   UNL     1       6.604  11.210  -0.008  0.00  0.00    -0.274 OA
ATOM     20  N   UNL     1       6.111  13.374   0.009  0.00  0.00    -0.283 N 
ATOM     21  H   UNL     1       5.433  14.065  -0.049  0.00  0.00    +0.155 HD
BRANCH  20  22
ATOM     22  C   UNL     1       7.462  13.726   0.104  0.00  0.00    +0.047 A 
ATOM     23  C   UNL     1       8.431  12.936  -0.501  0.00  0.00    +0.024 A 
ATOM     24  C   UNL     1       9.764  13.288  -0.409  0.00  0.00    +0.002 A 
ATOM     25  C   UNL     1      10.134  14.422   0.291  0.00  0.00    +0.001 A 
ATOM     26  C   UNL     1       9.173  15.208   0.899  0.00  0.00    +0.017 A 
ATOM     27  C   UNL     1       7.838  14.864   0.807  0.00  0.00    +0.039 A 
ATOM     28 BR   UNL     1       6.524  15.939   1.639  0.00  0.00    -0.048 Br
ENDBRANCH  20  22
ENDBRANCH  17  18
ENDBRANCH   3  17
TORSDOF 6
