REMARK  Name = ZINC04551233
REMARK  5 active torsions:
REMARK  status: ('A' for Active; 'I' for Inactive)
REMARK    1  A    between atoms: C_1  and  C_2
REMARK    2  A    between atoms: C_5  and  C_8
REMARK    3  A    between atoms: N_13  and  N_14
REMARK    4  A    between atoms: C_15  and  C_16
REMARK    5  A    between atoms: C_21  and  O_22
REMARK                            x       y       z     vdW  Elec       q    Type
REMARK                         _______ _______ _______ _____ _____    ______ ____
ROOT
ATOM      1  C   UNL     1       0.060  -4.255  -0.021  0.00  0.00    +0.080 A 
ATOM      2  C   UNL     1       0.070  -4.951   1.155  0.00  0.00    +0.077 A 
ATOM      3  S   UNL     1       0.091  -6.632   0.546  0.00  0.00    -0.059 S 
ATOM      4  C   UNL     1       0.084  -6.238  -1.198  0.00  0.00    +0.178 A 
ATOM      5  N   UNL     1       0.062  -4.918  -1.169  0.00  0.00    -0.224 NA
ATOM      6  N   UNL     1       0.094  -7.091  -2.288  0.00  0.00    -0.215 N 
ATOM      7  H   UNL     1       0.089  -6.727  -3.188  0.00  0.00    +0.176 HD
ENDROOT
BRANCH   1  12
ATOM      8  C   UNL     1      -0.018   1.503   0.010  0.00  0.00    +0.044 C 
ATOM      9  C   UNL     1       0.002  -0.004   0.002  0.00  0.00    -0.050 A 
ATOM     10  C   UNL     1       0.006  -0.686  -1.201  0.00  0.00    +0.004 A 
ATOM     11  C   UNL     1       0.024  -2.066  -1.215  0.00  0.00    +0.010 A 
ATOM     12  C   UNL     1       0.040  -2.772  -0.013  0.00  0.00    +0.001 A 
ATOM     13  C   UNL     1       0.037  -2.079   1.196  0.00  0.00    +0.010 A 
ATOM     14  C   UNL     1       0.023  -0.700   1.198  0.00  0.00    +0.004 A 
ENDBRANCH   1  12
BRANCH   6  15
ATOM     15  N   UNL     1       0.112  -8.478  -2.093  0.00  0.00    -0.188 NA
ATOM     16  C   UNL     1       0.122  -9.277  -3.117  0.00  0.00    +0.142 C 
BRANCH  16  17
ATOM     17  C   UNL     1       0.141 -10.737  -2.911  0.00  0.00    +0.037 A 
ATOM     18  C   UNL     1       0.157 -11.600  -4.009  0.00  0.00    +0.028 A 
ATOM     19  C   UNL     1       0.175 -12.965  -3.810  0.00  0.00    +0.019 A 
ATOM     20  C   UNL     1       0.176 -13.483  -2.525  0.00  0.00    +0.019 A 
ATOM     21  C   UNL     1       0.160 -12.638  -1.431  0.00  0.00    +0.047 A 
ATOM     22  C   UNL     1       0.149 -11.265  -1.614  0.00  0.00    +0.126 A 
ATOM     23 BR   UNL     1       0.197 -14.134  -5.296  0.00  0.00    -0.050 Br
BRANCH  22  24
ATOM     24  O   UNL     1       0.139 -10.435  -0.539  0.00  0.00    -0.506 OA
ATOM     25  H   UNL     1      -0.747 -10.206  -0.227  0.00  0.00    +0.292 HD
ENDBRANCH  22  24
ENDBRANCH  16  17
ENDBRANCH   6  15
TORSDOF 4
