REMARK  Name = ZINC08876800
REMARK  9 active torsions:
REMARK  status: ('A' for Active; 'I' for Inactive)
REMARK    1  A    between atoms: C_1  and  C_2
REMARK    2  A    between atoms: C_9  and  C_21
REMARK    3  A    between atoms: C_12  and  C_14
REMARK    4  A    between atoms: C_14  and  C_15
REMARK    5  A    between atoms: N_23  and  C_24
REMARK    6  A    between atoms: C_26  and  O_32
REMARK    7  A    between atoms: C_29  and  O_30
REMARK    8  A    between atoms: O_30  and  C_31
REMARK    9  A    between atoms: O_32  and  C_33
REMARK                            x       y       z     vdW  Elec       q    Type
REMARK                         _______ _______ _______ _____ _____    ______ ____
ROOT
ATOM      1  C   UNL     1       0.270   4.691  -7.481  0.00  0.00    +0.044 C 
ATOM      2  C   UNL     1       1.211   5.356  -6.510  0.00  0.00    -0.050 A 
ATOM      3  C   UNL     1       2.503   5.664  -6.898  0.00  0.00    +0.005 A 
ATOM      4  C   UNL     1       3.369   6.272  -6.014  0.00  0.00    +0.024 A 
ATOM      5  C   UNL     1       2.949   6.581  -4.722  0.00  0.00    +0.036 A 
ATOM      6  C   UNL     1       1.648   6.268  -4.344  0.00  0.00    -0.027 A 
ATOM      7  C   UNL     1       0.786   5.660  -5.229  0.00  0.00    +0.008 A 
ATOM      8  C   UNL     1       1.510   6.723  -2.916  0.00  0.00    +0.049 C 
ATOM      9  C   UNL     1       0.408   7.787  -2.787  0.00  0.00    +0.076 C 
ATOM     10  C   UNL     1      -0.228   7.462  -1.407  0.00  0.00    -0.003 C 
ATOM     11  C   UNL     1      -0.122   5.916  -1.369  0.00  0.00    -0.065 C 
ATOM     12  C   UNL     1       2.856   7.305  -2.566  0.00  0.00    +0.211 C 
ATOM     13  O   UNL     1       3.180   7.788  -1.502  0.00  0.00    -0.277 OA
ATOM     14  N   UNL     1       3.628   7.185  -3.662  0.00  0.00    -0.286 N 
ATOM     15  H   UNL     1       4.550   7.484  -3.710  0.00  0.00    +0.155 HD
ATOM     16  N   UNL     1       1.162   5.613  -2.030  0.00  0.00    +0.394 N 
ATOM     17  H   UNL     1       1.895   5.494  -1.321  0.00  0.00    -0.083 HD
ATOM     18  H   UNL     1       1.073   4.749  -2.578  0.00  0.00    -0.083 HD
ENDROOT
BRANCH   9  19
ATOM     19  C   UNL     1      -0.609   7.639  -3.889  0.00  0.00    +0.220 C 
ATOM     20  O   UNL     1      -1.529   6.860  -3.764  0.00  0.00    -0.275 OA
ATOM     21  N   UNL     1      -0.495   8.374  -5.013  0.00  0.00    -0.282 N 
ATOM     22  H   UNL     1       0.284   8.935  -5.149  0.00  0.00    +0.155 HD
BRANCH  21  23
ATOM     23  C   UNL     1      -1.503   8.326  -5.986  0.00  0.00    +0.079 A 
ATOM     24  C   UNL     1      -2.827   8.165  -5.606  0.00  0.00    +0.072 A 
ATOM     25  C   UNL     1      -3.822   8.118  -6.571  0.00  0.00    +0.122 A 
ATOM     26  C   UNL     1      -3.494   8.233  -7.914  0.00  0.00    +0.049 A 
ATOM     27  C   UNL     1      -2.174   8.393  -8.294  0.00  0.00    +0.051 A 
ATOM     28  C   UNL     1      -1.177   8.445  -7.334  0.00  0.00    +0.141 A 
BRANCH  28  29
ATOM     29  O   UNL     1       0.121   8.609  -7.709  0.00  0.00    -0.493 OA
ATOM     30  C   UNL     1       0.382   8.725  -9.109  0.00  0.00    +0.277 C 
ENDBRANCH  28  29
BRANCH  25  31
ATOM     31  O   UNL     1      -5.121   7.960  -6.200  0.00  0.00    -0.495 OA
ATOM     32  C   UNL     1      -6.094   7.921  -7.246  0.00  0.00    +0.277 C 
ENDBRANCH  25  31
ENDBRANCH  21  23
ENDBRANCH   9  19
BRANCH  11  33
ATOM     33  C   UNL     1      -0.114   5.417   0.077  0.00  0.00    +0.019 C 
BRANCH  33  34
ATOM     34  C   UNL     1      -0.097   3.910   0.088  0.00  0.00    -0.049 A 
ATOM     35  C   UNL     1       1.108   3.233   0.092  0.00  0.00    +0.003 A 
ATOM     36  C   UNL     1       1.123   1.850   0.103  0.00  0.00    +0.000 A 
ATOM     37  C   UNL     1      -0.066   1.146   0.112  0.00  0.00    +0.000 A 
ATOM     38  C   UNL     1      -1.271   1.823   0.103  0.00  0.00    +0.000 A 
ATOM     39  C   UNL     1      -1.286   3.205   0.096  0.00  0.00    +0.003 A 
ENDBRANCH  33  34
ENDBRANCH  11  33
TORSDOF 6
