REMARK  Name = ZINC24952830
REMARK  8 active torsions:
REMARK  status: ('A' for Active; 'I' for Inactive)
REMARK    1  A    between atoms: C_1  and  O_2
REMARK    2  A    between atoms: O_2  and  C_3
REMARK    3  A    between atoms: C_6  and  C_11
REMARK    4  A    between atoms: C_7  and  O_9
REMARK    5  A    between atoms: O_9  and  C_10
REMARK    6  A    between atoms: C_17  and  C_19
REMARK    7  A    between atoms: C_19  and  N_20
REMARK    8  A    between atoms: C_24  and  C_26
REMARK                            x       y       z     vdW  Elec       q    Type
REMARK                         _______ _______ _______ _____ _____    ______ ____
ROOT
ATOM      1  C   UNL     1       5.109   6.008  -7.215  0.00  0.00    +0.084 A 
ATOM      2  C   UNL     1       6.208   5.529  -6.559  0.00  0.00    +0.077 A 
ATOM      3  S   UNL     1       5.543   5.311  -4.913  0.00  0.00    -0.060 S 
ATOM      4  C   UNL     1       3.884   5.876  -5.267  0.00  0.00    +0.165 A 
ATOM      5  N   UNL     1       3.973   6.164  -6.553  0.00  0.00    -0.224 NA
ATOM      6  N   UNL     1       2.790   5.979  -4.417  0.00  0.00    -0.266 N 
ATOM      7  C   UNL     1       2.908   5.625  -3.122  0.00  0.00    +0.202 C 
ATOM      8  O   UNL     1       3.968   5.215  -2.699  0.00  0.00    -0.277 OA
ATOM      9  H   UNL     1       1.828   6.351  -4.800  0.00  0.00    +0.157 HD
ENDROOT
BRANCH   1  13
ATOM     10  C   UNL     1       5.332   6.973 -11.356  0.00  0.00    +0.124 A 
ATOM     11  C   UNL     1       6.451   6.486 -10.694  0.00  0.00    +0.046 A 
ATOM     12  C   UNL     1       6.382   6.173  -9.352  0.00  0.00    +0.017 A 
ATOM     13  C   UNL     1       5.186   6.344  -8.658  0.00  0.00    +0.043 A 
ATOM     14  C   UNL     1       4.058   6.829  -9.326  0.00  0.00    +0.133 A 
ATOM     15  C   UNL     1       4.138   7.146 -10.672  0.00  0.00    +0.092 A 
BRANCH  10  17
ATOM     16  C   UNL     1       6.666   7.077 -13.321  0.00  0.00    +0.277 C 
ATOM     17  O   UNL     1       5.406   7.279 -12.678  0.00  0.00    -0.495 OA
ENDBRANCH  10  17
BRANCH  14  18
ATOM     18  O   UNL     1       2.887   6.992  -8.656  0.00  0.00    -0.494 OA
ATOM     19  C   UNL     1       1.776   7.492  -9.404  0.00  0.00    +0.277 C 
ENDBRANCH  14  18
ENDBRANCH   1  13
BRANCH   7  20
ATOM     20  C   UNL     1       1.721   5.736  -2.199  0.00  0.00    +0.020 C 
BRANCH  20  21
ATOM     21  N   UNL     1       2.104   5.292  -0.853  0.00  0.00    +0.390 N 
ATOM     22  C   UNL     1       3.042   6.244  -0.229  0.00  0.00    -0.077 C 
ATOM     23  C   UNL     1       2.411   6.701   1.103  0.00  0.00    -0.020 C 
ATOM     24  C   UNL     1       1.416   5.555   1.432  0.00  0.00    -0.012 C 
ATOM     25  C   UNL     1       0.918   5.160   0.020  0.00  0.00    -0.030 C 
ATOM     26  H   UNL     1       2.594   4.314  -0.968  0.00  0.00    -0.080 HD
BRANCH  25  27
ATOM     27  C   UNL     1       0.421   3.738   0.017  0.00  0.00    -0.024 A 
ATOM     28  C   UNL     1      -0.855   3.279   0.027  0.00  0.00    +0.009 A 
ATOM     29  C   UNL     1      -1.077   1.915   0.017  0.00  0.00    +0.008 A 
ATOM     30  C   UNL     1      -0.013   1.076   0.008  0.00  0.00    +0.045 A 
ATOM     31  S   UNL     1       1.359   2.219   0.001  0.00  0.00    -0.103 S 
ENDBRANCH  25  27
ENDBRANCH  20  21
ENDBRANCH   7  20
TORSDOF 6
