REMARK  Name = ZINC12603014
REMARK  8 active torsions:
REMARK  status: ('A' for Active; 'I' for Inactive)
REMARK    1  A    between atoms: C_1  and  O_2
REMARK    2  A    between atoms: O_2  and  C_3
REMARK    3  A    between atoms: C_3  and  C_5
REMARK    4  A    between atoms: C_21  and  C_31
REMARK    5  A    between atoms: C_24  and  N_27
REMARK    6  A    between atoms: N_27  and  C_28
REMARK    7  A    between atoms: C_34  and  O_37
REMARK    8  A    between atoms: O_37  and  C_38
REMARK                            x       y       z     vdW  Elec       q    Type
REMARK                         _______ _______ _______ _____ _____    ______ ____
ROOT
ATOM      1  C   UNL     1      -1.531  -1.289  -0.026  0.00  0.00    +0.172 C 
ATOM      2  C   UNL     1      -0.990  -1.602  -1.428  0.00  0.00    +0.068 C 
ATOM      3  C   UNL     1      -1.176  -3.076  -1.685  0.00  0.00    -0.016 A 
ATOM      4  C   UNL     1      -0.570  -3.912  -2.697  0.00  0.00    +0.003 A 
ATOM      5  C   UNL     1       0.343  -3.652  -3.724  0.00  0.00    +0.010 A 
ATOM      6  C   UNL     1       0.706  -4.712  -4.516  0.00  0.00    +0.001 A 
ATOM      7  C   UNL     1       0.200  -5.986  -4.318  0.00  0.00    +0.002 A 
ATOM      8  C   UNL     1      -0.705  -6.273  -3.310  0.00  0.00    +0.026 A 
ATOM      9  C   UNL     1      -1.092  -5.216  -2.490  0.00  0.00    +0.047 A 
ATOM     10  N   UNL     1      -1.945  -5.149  -1.425  0.00  0.00    -0.356 N 
ATOM     11  H   UNL     1      -2.445  -5.897  -1.063  0.00  0.00    +0.166 HD
ATOM     12  C   UNL     1      -1.990  -3.867  -0.948  0.00  0.00    +0.038 A 
ATOM     13  C   UNL     1      -2.798  -3.350   0.216  0.00  0.00    +0.103 C 
ATOM     14  N   UNL     1      -2.863  -1.884   0.129  0.00  0.00    -0.274 NA
ATOM     15  C   UNL     1      -3.580  -1.322   1.280  0.00  0.00    +0.087 C 
ATOM     16  C   UNL     1      -5.023  -1.834   1.275  0.00  0.00    +0.008 C 
ATOM     17  C   UNL     1      -5.022  -3.363   1.340  0.00  0.00    -0.068 C 
ATOM     18  C   UNL     1      -4.213  -3.929   0.169  0.00  0.00    +0.009 C 
ENDROOT
BRANCH  15  19
ATOM     19  C   UNL     1      -2.898  -1.747   2.554  0.00  0.00    -0.030 A 
ATOM     20  C   UNL     1      -3.456  -1.422   3.777  0.00  0.00    +0.009 A 
ATOM     21  C   UNL     1      -2.833  -1.811   4.947  0.00  0.00    +0.046 A 
ATOM     22  C   UNL     1      -1.647  -2.527   4.895  0.00  0.00    +0.130 A 
ATOM     23  C   UNL     1      -1.089  -2.852   3.667  0.00  0.00    +0.046 A 
ATOM     24  C   UNL     1      -1.719  -2.466   2.499  0.00  0.00    +0.009 A 
BRANCH  22  25
ATOM     25  O   UNL     1      -1.031  -2.910   6.044  0.00  0.00    -0.406 OA
BRANCH  25  26
ATOM     26  C   UNL     1       0.187  -3.646   5.914  0.00  0.00    +0.575 C 
ATOM     27  F   UNL     1       1.127  -2.872   5.224  0.00  0.00    -0.133 F 
ATOM     28  F   UNL     1       0.682  -3.957   7.185  0.00  0.00    -0.133 F 
ATOM     29  F   UNL     1      -0.054  -4.827   5.206  0.00  0.00    -0.133 F 
ENDBRANCH  25  26
ENDBRANCH  22  25
ENDBRANCH  15  19
BRANCH  17  30
ATOM     30  N   UNL     1      -4.414  -3.800   2.604  0.00  0.00    +0.383 N 
ATOM     31  H   UNL     1      -3.428  -3.585   2.594  0.00  0.00    -0.085 HD
ATOM     32  H   UNL     1      -4.855  -3.319   3.374  0.00  0.00    -0.085 HD
BRANCH  30  33
ATOM     33  C   UNL     1      -4.598  -5.249   2.761  0.00  0.00    -0.072 C 
ATOM     34  C   UNL     1      -5.464  -5.729   3.928  0.00  0.00    -0.017 C 
ATOM     35  C   UNL     1      -3.946  -5.916   3.974  0.00  0.00    -0.017 C 
ENDBRANCH  30  33
ENDBRANCH  17  30
BRANCH   1  36
ATOM     36  C   UNL     1      -1.625   0.204   0.154  0.00  0.00    +0.325 C 
ATOM     37  O   UNL     1      -0.733   0.803   0.707  0.00  0.00    -0.249 OA
BRANCH  36  39
ATOM     38  C   UNL     1      -2.721   2.283  -0.094  0.00  0.00    +0.280 C 
ATOM     39  O   UNL     1      -2.699   0.869  -0.299  0.00  0.00    -0.467 OA
ENDBRANCH  36  39
ENDBRANCH   1  36
TORSDOF 7
