REMARK  Name = ZINC56340955
REMARK  7 active torsions:
REMARK  status: ('A' for Active; 'I' for Inactive)
REMARK    1  A    between atoms: C_1  and  C_2
REMARK    2  A    between atoms: C_2  and  N_3
REMARK    3  A    between atoms: N_3  and  C_4
REMARK    4  A    between atoms: C_4  and  C_5
REMARK    5  A    between atoms: C_6  and  C_8
REMARK    6  A    between atoms: C_13  and  N_14
REMARK    7  A    between atoms: C_15  and  C_17
REMARK                            x       y       z     vdW  Elec       q    Type
REMARK                         _______ _______ _______ _____ _____    ______ ____
ROOT
ATOM      1  N   UNL     1       4.668  -1.520   0.777  0.00  0.00    -0.280 N 
ATOM      2  C   UNL     1       5.568  -2.492   0.528  0.00  0.00    +0.265 C 
ATOM      3  O   UNL     1       5.897  -2.737  -0.617  0.00  0.00    -0.268 OA
ATOM      4  H   UNL     1       4.455  -1.280   1.693  0.00  0.00    +0.155 HD
ENDROOT
BRANCH   2   5
ATOM      5  C   UNL     1       6.154  -3.258   1.643  0.00  0.00    +0.105 A 
ATOM      6  C   UNL     1       7.062  -4.227   1.368  0.00  0.00    +0.039 A 
ATOM      7  C   UNL     1       7.650  -4.993   2.467  0.00  0.00    -0.011 A 
ATOM      8  C   UNL     1       8.589  -6.001   2.242  0.00  0.00    +0.009 A 
ATOM      9  C   UNL     1       9.113  -6.693   3.312  0.00  0.00    +0.001 A 
ATOM     10  C   UNL     1       8.716  -6.398   4.610  0.00  0.00    +0.001 A 
ATOM     11  C   UNL     1       7.790  -5.407   4.855  0.00  0.00    +0.014 A 
ATOM     12  C   UNL     1       7.247  -4.693   3.789  0.00  0.00    +0.046 A 
ATOM     13  C   UNL     1       6.257  -3.627   3.997  0.00  0.00    +0.257 A 
ATOM     14  O   UNL     1       5.888  -3.342   5.121  0.00  0.00    -0.267 OA
ATOM     15  N   UNL     1       5.766  -2.963   2.932  0.00  0.00    -0.318 N 
ATOM     16  H   UNL     1       5.115  -2.258   3.077  0.00  0.00    +0.169 HD
ENDBRANCH   2   5
BRANCH   1  22
ATOM     17  C   UNL     1       2.713  -0.435  -0.155  0.00  0.00    +0.058 A 
ATOM     18  C   UNL     1       2.100   0.229  -1.220  0.00  0.00    +0.015 A 
ATOM     19  C   UNL     1       2.802   0.457  -2.383  0.00  0.00    +0.001 A 
ATOM     20  C   UNL     1       4.115   0.029  -2.504  0.00  0.00    +0.002 A 
ATOM     21  C   UNL     1       4.734  -0.629  -1.461  0.00  0.00    +0.024 A 
ATOM     22  C   UNL     1       4.044  -0.862  -0.278  0.00  0.00    +0.046 A 
BRANCH  17  24
ATOM     23  N   UNL     1       1.467   0.354   1.796  0.00  0.00    -0.298 N 
ATOM     24  C   UNL     1       1.967  -0.682   1.094  0.00  0.00    +0.248 C 
ATOM     25  O   UNL     1       1.804  -1.820   1.490  0.00  0.00    -0.270 OA
BRANCH  23  27
ATOM     26  C   UNL     1       2.830   2.385   1.835  0.00  0.00    +0.024 C 
ATOM     27  C   UNL     1       1.576   1.717   1.268  0.00  0.00    +0.104 C 
ENDBRANCH  23  27
BRANCH  23  28
ATOM     28  C   UNL     1       0.816   0.119   3.087  0.00  0.00    +0.104 C 
ATOM     29  C   UNL     1      -0.679  -0.122   2.867  0.00  0.00    +0.024 C 
ENDBRANCH  23  28
ENDBRANCH  17  24
ENDBRANCH   1  22
TORSDOF 5
