REMARK  Name = ZINC02661830
REMARK  9 active torsions:
REMARK  status: ('A' for Active; 'I' for Inactive)
REMARK    1  A    between atoms: C_2  and  C_3
REMARK    2  A    between atoms: C_3  and  N_4
REMARK    3  A    between atoms: N_4  and  C_5
REMARK    4  A    between atoms: N_4  and  S_12
REMARK    5  A    between atoms: S_12  and  C_15
REMARK    6  A    between atoms: C_17  and  C_22
REMARK    7  A    between atoms: C_22  and  O_24
REMARK    8  A    between atoms: O_24  and  C_25
REMARK    9  A    between atoms: C_25  and  C_26
REMARK                            x       y       z     vdW  Elec       q    Type
REMARK                         _______ _______ _______ _____ _____    ______ ____
ROOT
ATOM      1  C   UNL     1      -1.068   1.484   3.080  0.00  0.00    +0.128 A 
ATOM      2  C   UNL     1      -1.656   1.492   4.327  0.00  0.00    +0.045 A 
ATOM      3  C   UNL     1      -2.454   2.571   4.713  0.00  0.00    +0.061 A 
ATOM      4  C   UNL     1      -2.650   3.637   3.832  0.00  0.00    +0.016 A 
ATOM      5  C   UNL     1      -2.057   3.618   2.588  0.00  0.00    +0.023 A 
ATOM      6  C   UNL     1      -1.262   2.546   2.213  0.00  0.00    +0.068 A 
ATOM      7 CL   UNL     1      -0.513   2.533   0.647  0.00  0.00    -0.082 Cl
ENDROOT
BRANCH   1   8
ATOM      8  S   UNL     1      -0.060   0.123   2.592  0.00  0.00    +0.076 S 
ATOM      9  O   UNL     1      -0.025  -0.772   3.694  0.00  0.00    -0.150 OA
ATOM     10  O   UNL     1       1.118   0.675   2.021  0.00  0.00    -0.150 OA
BRANCH   8  11
ATOM     11  N   UNL     1      -0.856  -0.661   1.369  0.00  0.00    -0.199 N 
BRANCH  11  12
ATOM     12  C   UNL     1      -0.540  -0.381   0.037  0.00  0.00    +0.052 A 
ATOM     13  C   UNL     1       0.737  -0.637  -0.443  0.00  0.00    +0.026 A 
ATOM     14  C   UNL     1       1.045  -0.365  -1.762  0.00  0.00    +0.022 A 
ATOM     15  C   UNL     1       0.085   0.173  -2.601  0.00  0.00    +0.041 A 
ATOM     16  C   UNL     1      -1.187   0.435  -2.123  0.00  0.00    +0.022 A 
ATOM     17  C   UNL     1      -1.502   0.159  -0.807  0.00  0.00    +0.026 A 
ATOM     18 CL   UNL     1       0.477   0.521  -4.256  0.00  0.00    -0.084 Cl
ENDBRANCH  11  12
BRANCH  11  19
ATOM     19  C   UNL     1      -1.892  -1.648   1.685  0.00  0.00    +0.158 C 
BRANCH  19  21
ATOM     20  C   UNL     1      -1.406  -3.974   2.246  0.00  0.00    +0.005 C 
ATOM     21  C   UNL     1      -1.392  -3.028   1.341  0.00  0.00    -0.014 C 
ENDBRANCH  19  21
ENDBRANCH  11  19
ENDBRANCH   8  11
ENDBRANCH   1   8
BRANCH   3  22
ATOM     22  C   UNL     1      -3.086   2.586   6.048  0.00  0.00    +0.340 C 
ATOM     23  O   UNL     1      -2.913   1.657   6.812  0.00  0.00    -0.245 OA
BRANCH  22  24
ATOM     24  O   UNL     1      -3.855   3.628   6.417  0.00  0.00    -0.452 OA
BRANCH  24  25
ATOM     25  C   UNL     1      -4.445   3.575   7.743  0.00  0.00    +0.328 C 
BRANCH  25  26
ATOM     26  C   UNL     1      -5.265   4.817   7.978  0.00  0.00    +0.258 C 
ATOM     27  O   UNL     1      -5.345   5.664   7.114  0.00  0.00    -0.272 OA
ATOM     28  N   UNL     1      -5.910   4.987   9.149  0.00  0.00    -0.238 N 
ATOM     29  C   UNL     1      -6.643   6.098   9.359  0.00  0.00    +0.303 C 
ATOM     30  O   UNL     1      -6.723   6.947   8.493  0.00  0.00    -0.253 OA
ATOM     31  N   UNL     1      -7.288   6.269  10.530  0.00  0.00    -0.313 N 
ATOM     32  H   UNL     1      -5.846   4.310   9.841  0.00  0.00    +0.159 HD
ATOM     33  H   UNL     1      -7.225   5.591  11.222  0.00  0.00    +0.146 HD
ATOM     34  H   UNL     1      -7.816   7.068  10.682  0.00  0.00    +0.146 HD
ENDBRANCH  25  26
ENDBRANCH  24  25
ENDBRANCH  22  24
ENDBRANCH   3  22
TORSDOF 9
