REMARK  Name = ZINC04817296
REMARK  5 active torsions:
REMARK  status: ('A' for Active; 'I' for Inactive)
REMARK    1  A    between atoms: C_1  and  C_2
REMARK    2  A    between atoms: C_2  and  C_21
REMARK    3  A    between atoms: C_11  and  O_19
REMARK    4  A    between atoms: C_13  and  N_16
REMARK    5  A    between atoms: O_19  and  C_20
REMARK                            x       y       z     vdW  Elec       q    Type
REMARK                         _______ _______ _______ _____ _____    ______ ____
ROOT
ATOM      1  C   UNL     1       5.068  -2.516  -0.332  0.00  0.00    +0.037 C 
ATOM      2  C   UNL     1       3.784  -1.769  -0.699  0.00  0.00    +0.059 C 
ATOM      3  C   UNL     1       2.592  -2.654  -0.418  0.00  0.00    +0.029 A 
ATOM      4  C   UNL     1       1.319  -2.146  -0.102  0.00  0.00    +0.018 A 
ATOM      5  C   UNL     1       0.130  -2.973   0.154  0.00  0.00    +0.071 A 
ATOM      6  S   UNL     1      -1.434  -2.386   0.529  0.00  0.00    -0.043 S 
ATOM      7  S   UNL     1       0.590  -4.692   0.007  0.00  0.00    -0.044 S 
ATOM      8  S   UNL     1       2.604  -4.382  -0.460  0.00  0.00    -0.053 S 
ATOM      9  C   UNL     1       1.231  -0.661  -0.030  0.00  0.00    +0.011 A 
ATOM     10  C   UNL     1       0.002  -0.004   0.002  0.00  0.00    +0.056 A 
ATOM     11  C   UNL     1      -0.017   1.376   0.010  0.00  0.00    +0.123 A 
ATOM     12  C   UNL     1       1.176   2.106   0.002  0.00  0.00    +0.080 A 
ATOM     13  C   UNL     1       2.406   1.488   0.010  0.00  0.00    +0.151 A 
ATOM     14  C   UNL     1       2.481   0.094   0.016  0.00  0.00    +0.066 A 
ATOM     15  N   UNL     1       3.696  -0.539   0.089  0.00  0.00    -0.332 N 
ATOM     16  C   UNL     1       3.814  -1.417  -2.188  0.00  0.00    +0.037 C 
ATOM     17  H   UNL     1       3.961  -0.704   1.049  0.00  0.00    +0.147 HD
ENDROOT
BRANCH  13  18
ATOM     18  N   UNL     1       3.644   2.298   0.012  0.00  0.00    +0.058 N 
ATOM     19  O   UNL     1       3.571   3.613   0.007  0.00  0.00    -0.126 OA
ATOM     20  O   UNL     1       4.820   1.704   0.020  0.00  0.00    -0.126 OA
ENDBRANCH  13  18
BRANCH  11  21
ATOM     21  O   UNL     1      -1.206   2.032   0.019  0.00  0.00    -0.495 OA
ATOM     22  C   UNL     1      -1.159   3.461   0.026  0.00  0.00    +0.277 C 
ENDBRANCH  11  21
TORSDOF 2
