REMARK  Name = ZINC19796836
REMARK  3 active torsions:
REMARK  status: ('A' for Active; 'I' for Inactive)
REMARK    1  A    between atoms: C_1  and  C_2
REMARK    2  A    between atoms: N_14  and  S_15
REMARK    3  A    between atoms: S_15  and  C_18
REMARK                            x       y       z     vdW  Elec       q    Type
REMARK                         _______ _______ _______ _____ _____    ______ ____
ROOT
ATOM      1  C   UNL     1      -0.018   1.503   0.010  0.00  0.00    +0.046 C 
ATOM      2  C   UNL     1       0.002  -0.004   0.002  0.00  0.00    -0.024 A 
ATOM      3  C   UNL     1       0.006  -0.680  -1.180  0.00  0.00    +0.005 A 
ATOM      4  C   UNL     1       0.025  -2.072  -1.211  0.00  0.00    +0.001 A 
ATOM      5  C   UNL     1       0.040  -2.796  -0.056  0.00  0.00    +0.010 A 
ATOM      6  C   UNL     1       0.037  -2.131   1.178  0.00  0.00    +0.001 A 
ATOM      7  C   UNL     1       0.023  -0.716   1.214  0.00  0.00    +0.076 A 
ATOM      8  N   UNL     1       0.025  -0.077   2.387  0.00  0.00    -0.230 NA
ATOM      9  C   UNL     1       0.044  -0.731   3.541  0.00  0.00    +0.144 A 
ATOM     10  C   UNL     1       0.064  -2.132   3.558  0.00  0.00    -0.004 A 
ATOM     11  C   UNL     1       0.052  -2.841   2.396  0.00  0.00    +0.017 A 
ATOM     12  C   UNL     1       0.084  -2.593   4.998  0.00  0.00    +0.059 C 
ATOM     13  C   UNL     1       0.074  -1.291   5.816  0.00  0.00    +0.138 C 
ATOM     14  N   UNL     1       0.049  -0.211   4.828  0.00  0.00    -0.185 N 
ENDROOT
BRANCH  14  15
ATOM     15  S   UNL     1       0.031   1.404   5.194  0.00  0.00    +0.082 S 
ATOM     16  O   UNL     1       0.593   1.533   6.492  0.00  0.00    -0.149 OA
ATOM     17  O   UNL     1       0.561   2.083   4.064  0.00  0.00    -0.149 OA
BRANCH  15  18
ATOM     18  C   UNL     1      -1.658   1.889   5.325  0.00  0.00    +0.147 A 
ATOM     19  C   UNL     1      -2.461   1.897   6.417  0.00  0.00    +0.038 A 
ATOM     20  C   UNL     1      -3.769   2.323   6.284  0.00  0.00    +0.025 A 
ATOM     21  C   UNL     1      -4.210   2.722   5.065  0.00  0.00    +0.057 A 
ATOM     22  S   UNL     1      -2.753   2.505   4.057  0.00  0.00    -0.061 S 
ATOM     23 BR   UNL     1      -5.922   3.350   4.564  0.00  0.00    -0.043 Br
ENDBRANCH  15  18
ENDBRANCH  14  15
TORSDOF 2
