REMARK  Name = ZINC22630591
REMARK  13 active torsions:
REMARK  status: ('A' for Active; 'I' for Inactive)
REMARK    1  A    between atoms: C_1  and  C_2
REMARK    2  A    between atoms: C_2  and  N_3
REMARK    3  A    between atoms: N_3  and  C_4
REMARK    4  A    between atoms: N_3  and  C_6
REMARK    5  A    between atoms: C_4  and  C_5
REMARK    6  A    between atoms: C_6  and  C_7
REMARK    7  A    between atoms: C_7  and  C_8
REMARK    8  A    between atoms: C_8  and  N_9
REMARK    9  A    between atoms: N_9  and  C_10
REMARK   10  A    between atoms: C_10  and  C_11
REMARK   11  A    between atoms: C_14  and  S_27
REMARK   12  A    between atoms: C_16  and  N_17
REMARK   13  A    between atoms: S_27  and  C_28
REMARK                            x       y       z     vdW  Elec       q    Type
REMARK                         _______ _______ _______ _____ _____    ______ ____
ROOT
ATOM      1  C   UNL     1       4.411   2.116   0.304  0.00  0.00    -0.006 A 
ATOM      2  C   UNL     1       3.785   0.914   0.568  0.00  0.00    +0.118 A 
ATOM      3  N   UNL     1       2.461   0.865   0.591  0.00  0.00    -0.230 NA
ATOM      4  C   UNL     1       1.734   1.950   0.366  0.00  0.00    +0.190 A 
ATOM      5  N   UNL     1       2.297   3.121   0.104  0.00  0.00    -0.207 NA
ATOM      6  C   UNL     1       3.620   3.243   0.070  0.00  0.00    +0.127 A 
ENDROOT
BRANCH   6   7
ATOM      7  N   UNL     1       4.206   4.470  -0.199  0.00  0.00    -0.310 N 
ATOM      8  C   UNL     1       3.917   5.438   0.871  0.00  0.00    +0.111 C 
ATOM      9  C   UNL     1       4.866   6.627   0.718  0.00  0.00    +0.054 C 
ATOM     10  C   UNL     1       4.832   7.133  -0.701  0.00  0.00    -0.041 A 
ATOM     11  C   UNL     1       5.335   8.398  -0.965  0.00  0.00    +0.004 A 
ATOM     12  C   UNL     1       5.332   8.896  -2.252  0.00  0.00    +0.000 A 
ATOM     13  C   UNL     1       4.823   8.130  -3.284  0.00  0.00    +0.000 A 
ATOM     14  C   UNL     1       4.319   6.872  -3.023  0.00  0.00    +0.005 A 
ATOM     15  C   UNL     1       4.321   6.370  -1.729  0.00  0.00    -0.027 A 
ATOM     16  C   UNL     1       3.757   4.994  -1.493  0.00  0.00    +0.141 C 
ENDBRANCH   6   7
BRANCH   4  17
ATOM     17  S   UNL     1      -0.023   1.832   0.408  0.00  0.00    -0.089 S 
ATOM     18  C   UNL     1      -0.210   0.072   0.787  0.00  0.00    +0.093 C 
ENDBRANCH   4  17
BRANCH   1  19
ATOM     19  C   UNL     1       5.915   2.210   0.268  0.00  0.00    -0.042 C 
BRANCH  19  20
ATOM     20  N   UNL     1       6.398   2.813   1.518  0.00  0.00    +0.382 N 
ATOM     21  H   UNL     1       6.075   2.184   2.361  0.00  0.00    -0.085 HD
ATOM     22  H   UNL     1       5.957   3.816   1.619  0.00  0.00    -0.085 HD
BRANCH  20  23
ATOM     23  C   UNL     1       7.863   2.921   1.519  0.00  0.00    -0.084 C 
BRANCH  23  24
ATOM     24  C   UNL     1       8.327   3.551   2.833  0.00  0.00    -0.038 C 
BRANCH  24  25
ATOM     25  C   UNL     1       9.853   3.663   2.834  0.00  0.00    -0.081 C 
BRANCH  25  26
ATOM     26  N   UNL     1      10.305   4.174   4.135  0.00  0.00    +0.379 N 
ATOM     27  H   UNL     1       9.617   4.976   4.442  0.00  0.00    -0.082 HD
BRANCH  26  29
ATOM     28  C   UNL     1      10.493   3.742   6.538  0.00  0.00    -0.017 C 
ATOM     29  C   UNL     1      10.258   3.122   5.159  0.00  0.00    -0.082 C 
ENDBRANCH  26  29
BRANCH  26  30
ATOM     30  C   UNL     1      11.652   4.751   4.035  0.00  0.00    -0.082 C 
ATOM     31  C   UNL     1      11.570   6.127   3.370  0.00  0.00    -0.017 C 
ENDBRANCH  26  30
ENDBRANCH  25  26
ENDBRANCH  24  25
ENDBRANCH  23  24
ENDBRANCH  20  23
ENDBRANCH  19  20
ENDBRANCH   1  19
TORSDOF 10
