REMARK  Name = ZINC05297816
REMARK  7 active torsions:
REMARK  status: ('A' for Active; 'I' for Inactive)
REMARK    1  A    between atoms: C_1  and  C_2
REMARK    2  A    between atoms: C_3  and  C_31
REMARK    3  A    between atoms: C_4  and  C_16
REMARK    4  A    between atoms: C_10  and  C_14
REMARK    5  A    between atoms: C_10  and  C_15
REMARK    6  A    between atoms: C_19  and  C_21
REMARK    7  A    between atoms: C_26  and  C_27
REMARK                            x       y       z     vdW  Elec       q    Type
REMARK                         _______ _______ _______ _____ _____    ______ ____
ROOT
ATOM      1  C   UNL     1       3.761  -0.300  -0.847  0.00  0.00    +0.062 C 
ATOM      2  C   UNL     1       2.431   0.260  -0.412  0.00  0.00    +0.034 C 
ATOM      3  C   UNL     1       1.342  -0.525  -0.423  0.00  0.00    +0.150 C 
ATOM      4  C   UNL     1       0.002  -0.004   0.003  0.00  0.00    +0.112 C 
ATOM      5  C   UNL     1      -0.018   1.504   0.011  0.00  0.00    +0.028 C 
ATOM      6  C   UNL     1       1.133   2.209   0.003  0.00  0.00    +0.049 C 
ATOM      7  N   UNL     1       2.341   1.567  -0.008  0.00  0.00    -0.259 NA
ATOM      8  C   UNL     1       1.120   3.718   0.007  0.00  0.00    +0.062 C 
ATOM      9  C   UNL     1      -0.123   4.223   0.737  0.00  0.00    -0.023 C 
ATOM     10  C   UNL     1      -1.364   3.652   0.044  0.00  0.00    +0.086 C 
ATOM     11  C   UNL     1      -1.266   2.151   0.027  0.00  0.00    +0.162 C 
ATOM     12  O   UNL     1      -2.283   1.486   0.023  0.00  0.00    -0.292 OA
ATOM     13  C   UNL     1      -0.085   3.752   2.192  0.00  0.00    +0.011 C 
ATOM     14  C   UNL     1      -0.161   5.752   0.693  0.00  0.00    +0.011 C 
ENDROOT
BRANCH   4  15
ATOM     15  C   UNL     1      -0.296  -0.511   1.391  0.00  0.00    +0.115 A 
ATOM     16  C   UNL     1      -1.335  -1.297   1.733  0.00  0.00    +0.046 A 
ATOM     17  C   UNL     1      -1.234  -1.533   3.119  0.00  0.00    +0.050 A 
ATOM     18  C   UNL     1      -0.132  -0.864   3.551  0.00  0.00    +0.136 A 
ATOM     19  O   UNL     1       0.427  -0.248   2.492  0.00  0.00    -0.459 OA
BRANCH  18  20
ATOM     20  C   UNL     1       0.365  -0.818   4.942  0.00  0.00    +0.029 A 
ATOM     21  C   UNL     1      -0.503  -0.497   5.987  0.00  0.00    +0.012 A 
ATOM     22  C   UNL     1      -0.034  -0.462   7.284  0.00  0.00    +0.001 A 
ATOM     23  C   UNL     1       1.297  -0.733   7.549  0.00  0.00    +0.001 A 
ATOM     24  C   UNL     1       2.164  -1.046   6.517  0.00  0.00    +0.013 A 
ATOM     25  C   UNL     1       1.706  -1.091   5.216  0.00  0.00    +0.065 A 
BRANCH  25  26
ATOM     26  C   UNL     1       2.652  -1.433   4.094  0.00  0.00    +0.418 C 
ATOM     27  F   UNL     1       3.930  -1.663   4.615  0.00  0.00    -0.166 F 
ATOM     28  F   UNL     1       2.201  -2.584   3.439  0.00  0.00    -0.166 F 
ATOM     29  F   UNL     1       2.703  -0.369   3.186  0.00  0.00    -0.166 F 
ENDBRANCH  25  26
ENDBRANCH  18  20
ENDBRANCH   4  15
BRANCH   3  30
ATOM     30  C   UNL     1       1.461  -1.885  -0.854  0.00  0.00    +0.073 C 
ATOM     31  N   UNL     1       1.556  -2.964  -1.196  0.00  0.00    -0.196 NA
ENDBRANCH   3  30
TORSDOF 4
