REMARK  Name = ZINC49029854
REMARK  5 active torsions:
REMARK  status: ('A' for Active; 'I' for Inactive)
REMARK    1  A    between atoms: C_6  and  N_7
REMARK    2  A    between atoms: N_18  and  C_19
REMARK    3  A    between atoms: C_19  and  C_20
REMARK    4  A    between atoms: C_20  and  C_21
REMARK    5  A    between atoms: C_21  and  N_22
REMARK                            x       y       z     vdW  Elec       q    Type
REMARK                         _______ _______ _______ _____ _____    ______ ____
ROOT
ATOM      1  N   UNL     1      -1.198  -0.721   0.010  0.00  0.00    -0.298 N 
ATOM      2  C   UNL     1      -1.182  -2.101  -0.102  0.00  0.00    +0.156 A 
ATOM      3  C   UNL     1      -2.381  -2.827  -0.206  0.00  0.00    +0.148 A 
ATOM      4  C   UNL     1      -2.304  -4.226  -0.318  0.00  0.00    +0.165 A 
ATOM      5  N   UNL     1      -3.600  -4.670  -0.402  0.00  0.00    -0.329 N 
ATOM      6  H   UNL     1      -3.885  -5.593  -0.488  0.00  0.00    +0.168 HD
ATOM      7  C   UNL     1      -4.412  -3.575  -0.343  0.00  0.00    +0.198 A 
ATOM      8  N   UNL     1      -3.695  -2.496  -0.229  0.00  0.00    -0.231 NA
ATOM      9  N   UNL     1      -1.111  -4.811  -0.321  0.00  0.00    -0.195 NA
ATOM     10  C   UNL     1      -0.007  -4.089  -0.221  0.00  0.00    +0.219 A 
ATOM     11  N   UNL     1      -0.032  -2.766  -0.119  0.00  0.00    -0.197 NA
ATOM     12  N   UNL     1       1.218  -4.736  -0.227  0.00  0.00    -0.313 N 
ATOM     13  H   UNL     1      -2.043  -0.252   0.099  0.00  0.00    +0.154 HD
ATOM     14  H   UNL     1       2.038  -4.223  -0.155  0.00  0.00    +0.149 HD
ENDROOT
BRANCH   1  20
ATOM     15  C   UNL     1       1.075  -0.458  -0.759  0.00  0.00    +0.025 A 
ATOM     16  C   UNL     1       2.259   0.252  -0.772  0.00  0.00    +0.022 A 
ATOM     17  C   UNL     1       2.377   1.417  -0.033  0.00  0.00    +0.041 A 
ATOM     18  C   UNL     1       1.309   1.872   0.721  0.00  0.00    +0.022 A 
ATOM     19  C   UNL     1       0.123   1.165   0.737  0.00  0.00    +0.025 A 
ATOM     20  C   UNL     1       0.002  -0.004  -0.004  0.00  0.00    +0.033 A 
ATOM     21 CL   UNL     1       3.867   2.308  -0.051  0.00  0.00    -0.084 Cl
ENDBRANCH   1  20
BRANCH  12  22
ATOM     22  C   UNL     1       1.276  -6.195  -0.344  0.00  0.00    +0.106 C 
BRANCH  22  23
ATOM     23  C   UNL     1       2.736  -6.651  -0.326  0.00  0.00    +0.040 C 
BRANCH  23  24
ATOM     24  C   UNL     1       2.796  -8.175  -0.448  0.00  0.00    +0.124 C 
BRANCH  24  25
ATOM     25  N   UNL     1       4.194  -8.612  -0.431  0.00  0.00    -0.338 N 
ATOM     26  C   UNL     1       5.012  -8.759  -1.518  0.00  0.00    +0.104 A 
ATOM     27  C   UNL     1       6.206  -9.176  -1.054  0.00  0.00    +0.101 A 
ATOM     28  N   UNL     1       6.119  -9.280   0.280  0.00  0.00    -0.352 N 
ATOM     29  C   UNL     1       4.918  -8.939   0.661  0.00  0.00    +0.173 A 
ATOM     30  H   UNL     1       6.836  -9.561   0.869  0.00  0.00    +0.166 HD
ENDBRANCH  24  25
ENDBRANCH  23  24
ENDBRANCH  22  23
ENDBRANCH  12  22
TORSDOF 5
