REMARK  Name = ZINC35198300
REMARK  9 active torsions:
REMARK  status: ('A' for Active; 'I' for Inactive)
REMARK    1  A    between atoms: C_4  and  C_7
REMARK    2  A    between atoms: C_7  and  C_8
REMARK    3  A    between atoms: C_8  and  C_10
REMARK    4  A    between atoms: C_8  and  N_32
REMARK    5  A    between atoms: C_13  and  S_24
REMARK    6  A    between atoms: N_14  and  C_15
REMARK    7  A    between atoms: C_18  and  N_21
REMARK    8  A    between atoms: S_24  and  C_25
REMARK    9  A    between atoms: C_25  and  C_26
REMARK                            x       y       z     vdW  Elec       q    Type
REMARK                         _______ _______ _______ _____ _____    ______ ____
ROOT
ATOM      1  C   UNL     1       5.422  -1.804   1.383  0.00  0.00    +0.124 A 
ATOM      2  N   UNL     1       6.622  -1.399   1.078  0.00  0.00    -0.135 NA
ATOM      3  N   UNL     1       7.454  -2.374   1.167  0.00  0.00    -0.122 NA
ATOM      4  C   UNL     1       6.827  -3.466   1.537  0.00  0.00    +0.196 A 
ATOM      5  N   UNL     1       5.508  -3.136   1.693  0.00  0.00    -0.276 N 
ENDROOT
BRANCH   5   6
ATOM      6  C   UNL     1       4.463  -3.985   2.085  0.00  0.00    +0.050 A 
ATOM      7  C   UNL     1       3.797  -3.761   3.283  0.00  0.00    +0.028 A 
ATOM      8  C   UNL     1       2.768  -4.599   3.666  0.00  0.00    +0.035 A 
ATOM      9  C   UNL     1       2.401  -5.659   2.858  0.00  0.00    +0.126 A 
ATOM     10  C   UNL     1       3.061  -5.884   1.665  0.00  0.00    +0.035 A 
ATOM     11  C   UNL     1       4.088  -5.046   1.274  0.00  0.00    +0.028 A 
BRANCH   9  12
ATOM     12  N   UNL     1       1.298  -6.555   3.272  0.00  0.00    +0.056 N 
ATOM     13  O   UNL     1       0.719  -6.360   4.316  0.00  0.00    -0.126 OA
ATOM     14  O   UNL     1       0.975  -7.483   2.567  0.00  0.00    -0.126 OA
ENDBRANCH   9  12
ENDBRANCH   5   6
BRANCH   1  15
ATOM     15  C   UNL     1       4.171  -0.963   1.399  0.00  0.00    -0.001 C 
BRANCH  15  16
ATOM     16  N   UNL     1       4.452   0.319   2.059  0.00  0.00    +0.385 N 
ATOM     17  H   UNL     1       5.178   0.805   1.555  0.00  0.00    -0.089 HD
ATOM     18  H   UNL     1       3.615   0.882   2.070  0.00  0.00    -0.089 HD
ATOM     19  H   UNL     1       4.755   0.150   3.006  0.00  0.00    -0.089 HD
ENDBRANCH  15  16
BRANCH  15  20
ATOM     20  C   UNL     1       3.711  -0.707  -0.038  0.00  0.00    +0.026 C 
BRANCH  20  24
ATOM     21  C   UNL     1      -0.017   1.378   0.010  0.00  0.00    +0.000 A 
ATOM     22  C   UNL     1       1.171   2.086   0.002  0.00  0.00    +0.000 A 
ATOM     23  C   UNL     1       2.377   1.411  -0.013  0.00  0.00    +0.003 A 
ATOM     24  C   UNL     1       2.396   0.029  -0.020  0.00  0.00    -0.049 A 
ATOM     25  C   UNL     1       1.208  -0.679  -0.012  0.00  0.00    +0.003 A 
ATOM     26  C   UNL     1       0.002  -0.004   0.002  0.00  0.00    +0.000 A 
ENDBRANCH  20  24
ENDBRANCH  15  20
ENDBRANCH   1  15
BRANCH   4  27
ATOM     27  S   UNL     1       7.547  -5.054   1.792  0.00  0.00    -0.081 S 
BRANCH  27  28
ATOM     28  C   UNL     1       9.306  -4.801   1.428  0.00  0.00    +0.112 C 
BRANCH  28  29
ATOM     29  C   UNL     1      10.048  -6.100   1.610  0.00  0.00    -0.037 A 
ATOM     30  C   UNL     1      10.582  -6.424   2.843  0.00  0.00    +0.004 A 
ATOM     31  C   UNL     1      11.263  -7.615   3.010  0.00  0.00    +0.000 A 
ATOM     32  C   UNL     1      11.410  -8.483   1.944  0.00  0.00    +0.000 A 
ATOM     33  C   UNL     1      10.875  -8.159   0.711  0.00  0.00    +0.000 A 
ATOM     34  C   UNL     1      10.190  -6.970   0.545  0.00  0.00    +0.004 A 
ENDBRANCH  28  29
ENDBRANCH  27  28
ENDBRANCH   4  27
TORSDOF 9
