REMARK  Name = ZINC38938429
REMARK  7 active torsions:
REMARK  status: ('A' for Active; 'I' for Inactive)
REMARK    1  A    between atoms: C_1  and  C_2
REMARK    2  A    between atoms: C_2  and  C_3
REMARK    3  A    between atoms: C_2  and  C_4
REMARK    4  A    between atoms: C_2  and  C_5
REMARK    5  A    between atoms: C_8  and  C_11
REMARK    6  A    between atoms: N_12  and  N_13
REMARK    7  A    between atoms: C_14  and  C_20
REMARK                            x       y       z     vdW  Elec       q    Type
REMARK                         _______ _______ _______ _____ _____    ______ ____
ROOT
ATOM      1  C   UNL     1       2.698  -1.868  -4.723  0.00  0.00    +0.138 C 
ATOM      2  N   UNL     1       3.933  -1.532  -4.942  0.00  0.00    -0.183 NA
ENDROOT
BRANCH   1   6
ATOM      3  C   UNL     1       0.508   0.009  -1.609  0.00  0.00    -0.042 A 
ATOM      4  C   UNL     1      -0.097  -0.961  -2.389  0.00  0.00    +0.005 A 
ATOM      5  C   UNL     1       0.608  -1.575  -3.402  0.00  0.00    +0.010 A 
ATOM      6  C   UNL     1       1.937  -1.216  -3.641  0.00  0.00    -0.005 A 
ATOM      7  C   UNL     1       2.542  -0.235  -2.850  0.00  0.00    +0.010 A 
ATOM      8  C   UNL     1       1.822   0.374  -1.844  0.00  0.00    +0.005 A 
BRANCH   3  10
ATOM      9  C   UNL     1      -0.343   2.181  -0.768  0.00  0.00    +0.015 C 
ATOM     10  C   UNL     1      -0.269   0.676  -0.504  0.00  0.00    -0.013 C 
ATOM     11  C   UNL     1       0.431   0.427   0.834  0.00  0.00    +0.015 C 
ATOM     12  C   UNL     1      -1.684   0.097  -0.455  0.00  0.00    +0.015 C 
ENDBRANCH   3  10
ENDBRANCH   1   6
BRANCH   2  13
ATOM     13  N   UNL     1       4.620  -2.068  -6.039  0.00  0.00    -0.168 N 
ATOM     14  C   UNL     1       4.083  -2.925  -7.113  0.00  0.00    +0.301 C 
ATOM     15  N   UNL     1       5.252  -3.172  -7.972  0.00  0.00    -0.163 NA
ATOM     16  N   UNL     1       6.216  -2.581  -7.478  0.00  0.00    -0.096 NA
ATOM     17  C   UNL     1       5.925  -1.912  -6.356  0.00  0.00    +0.199 C 
ATOM     18  S   UNL     1       7.047  -0.992  -5.448  0.00  0.00    -0.013 S 
BRANCH  14  19
ATOM     19  C   UNL     1       3.002  -2.205  -7.876  0.00  0.00    +0.151 A 
ATOM     20  C   UNL     1       2.696  -2.393  -9.173  0.00  0.00    +0.049 A 
ATOM     21  C   UNL     1       1.627  -1.516  -9.472  0.00  0.00    +0.041 A 
ATOM     22  C   UNL     1       1.345  -0.846  -8.341  0.00  0.00    +0.195 A 
ATOM     23  O   UNL     1       2.176  -1.271  -7.376  0.00  0.00    -0.464 OA
ENDBRANCH  14  19
ENDBRANCH   2  13
TORSDOF 4
