REMARK  Name = ZINC39372509
REMARK  10 active torsions:
REMARK  status: ('A' for Active; 'I' for Inactive)
REMARK    1  A    between atoms: C_1  and  C_2
REMARK    2  A    between atoms: C_2  and  O_3
REMARK    3  A    between atoms: O_3  and  C_4
REMARK    4  A    between atoms: C_7  and  O_25
REMARK    5  A    between atoms: C_8  and  C_10
REMARK    6  A    between atoms: C_12  and  C_23
REMARK    7  A    between atoms: C_13  and  N_22
REMARK    8  A    between atoms: C_18  and  C_21
REMARK    9  A    between atoms: O_25  and  C_26
REMARK   10  A    between atoms: C_26  and  C_27
REMARK                            x       y       z     vdW  Elec       q    Type
REMARK                         _______ _______ _______ _____ _____    ______ ____
ROOT
ATOM      1  C   UNL     1      -4.320  -4.363   0.008  0.00  0.00    +0.101 C 
ATOM      2  C   UNL     1      -5.093  -3.885   1.223  0.00  0.00    +0.098 C 
ATOM      3  C   UNL     1      -6.320  -3.334   1.111  0.00  0.00    +0.195 C 
ATOM      4  O   UNL     1      -7.000  -3.111  -0.028  0.00  0.00    -0.448 OA
ATOM      5  C   UNL     1      -6.629  -3.879  -1.175  0.00  0.00    +0.343 C 
ATOM      6  C   UNL     1      -5.098  -3.877  -1.183  0.00  0.00    +0.030 C 
ATOM      7  C   UNL     1      -4.764  -3.386  -2.351  0.00  0.00    +0.066 C 
ATOM      8  N   UNL     1      -5.871  -2.988  -3.029  0.00  0.00    -0.155 NA
ATOM      9  N   UNL     1      -6.954  -3.203  -2.434  0.00  0.00    -0.138 NA
ATOM     10  C   UNL     1      -3.353  -3.277  -2.868  0.00  0.00    +0.067 C 
ENDROOT
BRANCH   1  15
ATOM     11  C   UNL     1      -1.498  -1.849   0.006  0.00  0.00    +0.121 A 
ATOM     12  C   UNL     1      -0.387  -2.679  -0.003  0.00  0.00    +0.049 A 
ATOM     13  C   UNL     1      -0.549  -4.051  -0.009  0.00  0.00    +0.049 A 
ATOM     14  C   UNL     1      -1.824  -4.598  -0.006  0.00  0.00    +0.125 A 
ATOM     15  C   UNL     1      -2.935  -3.768   0.004  0.00  0.00    +0.010 A 
ATOM     16  C   UNL     1      -2.772  -2.397   0.016  0.00  0.00    +0.053 A 
BRANCH  11  17
ATOM     17  O   UNL     1      -1.339  -0.499   0.012  0.00  0.00    -0.492 OA
BRANCH  17  19
ATOM     18  C   UNL     1      -0.019   1.526   0.010  0.00  0.00    +0.048 C 
ATOM     19  C   UNL     1       0.002  -0.004   0.002  0.00  0.00    +0.225 C 
ENDBRANCH  17  19
ENDBRANCH  11  17
BRANCH  14  20
ATOM     20  O   UNL     1      -1.984  -5.949  -0.012  0.00  0.00    -0.492 OA
BRANCH  20  21
ATOM     21  C   UNL     1      -0.796  -6.742  -0.023  0.00  0.00    +0.225 C 
ATOM     22  C   UNL     1      -1.173  -8.225  -0.029  0.00  0.00    +0.048 C 
ENDBRANCH  20  21
ENDBRANCH  14  20
ENDBRANCH   1  15
BRANCH   3  23
ATOM     23  N   UNL     1      -6.937  -2.963   2.280  0.00  0.00    -0.329 N 
ATOM     24  H   UNL     1      -6.491  -3.102   3.129  0.00  0.00    +0.145 HD
ATOM     25  H   UNL     1      -7.820  -2.562   2.256  0.00  0.00    +0.145 HD
ENDBRANCH   3  23
BRANCH   2  26
ATOM     26  C   UNL     1      -4.506  -4.023   2.522  0.00  0.00    +0.101 C 
ATOM     27  N   UNL     1      -4.041  -4.132   3.553  0.00  0.00    -0.191 NA
ENDBRANCH   2  26
TORSDOF 7
