REMARK  Name = ZINC04814443
REMARK  2 active torsions:
REMARK  status: ('A' for Active; 'I' for Inactive)
REMARK    1  A    between atoms: C_4  and  N_7
REMARK    2  A    between atoms: C_9  and  C_14
REMARK                            x       y       z     vdW  Elec       q    Type
REMARK                         _______ _______ _______ _____ _____    ______ ____
ROOT
ATOM      1  C   UNL     1      -0.792   1.605   1.189  0.00  0.00    +0.224 C 
ATOM      2  O   UNL     1      -1.763   2.310   1.012  0.00  0.00    -0.275 OA
ATOM      3  N   UNL     1      -0.410   1.287   2.441  0.00  0.00    -0.264 N 
ATOM      4  C   UNL     1      -1.129   1.766   3.530  0.00  0.00    +0.165 A 
ATOM      5  N   UNL     1      -2.194   2.539   3.543  0.00  0.00    -0.229 NA
ATOM      6  C   UNL     1      -2.782   2.918   4.675  0.00  0.00    +0.054 A 
ATOM      7  C   UNL     1      -2.211   2.466   5.822  0.00  0.00    +0.014 A 
ATOM      8  S   UNL     1      -0.847   1.504   5.226  0.00  0.00    -0.057 S 
ATOM      9  C   UNL     1      -2.643   2.731   7.225  0.00  0.00    +0.044 C 
ATOM     10  C   UNL     1      -3.638   3.902   7.209  0.00  0.00    +0.006 C 
ATOM     11  C   UNL     1      -4.672   3.655   6.107  0.00  0.00    +0.006 C 
ATOM     12  C   UNL     1      -4.020   3.806   4.731  0.00  0.00    +0.056 C 
ATOM     13  H   UNL     1       0.367   0.723   2.583  0.00  0.00    +0.157 HD
ENDROOT
BRANCH   1  16
ATOM     14  N   UNL     1       0.192   2.853  -1.600  0.00  0.00    -0.298 N 
ATOM     15  C   UNL     1      -0.582   1.638  -1.317  0.00  0.00    +0.121 C 
ATOM     16  C   UNL     1      -0.013   1.086   0.008  0.00  0.00    +0.101 C 
ATOM     17  C   UNL     1       1.423   1.659  -0.003  0.00  0.00    +0.110 C 
ATOM     18  C   UNL     1       1.326   2.888  -0.879  0.00  0.00    +0.217 C 
ATOM     19  O   UNL     1       2.152   3.775  -0.926  0.00  0.00    -0.276 OA
BRANCH  14  23
ATOM     20  C   UNL     1       0.263   6.451  -3.891  0.00  0.00    +0.000 C 
ATOM     21  C   UNL     1      -0.794   6.312  -2.794  0.00  0.00    +0.002 C 
ATOM     22  C   UNL     1      -0.365   5.225  -1.807  0.00  0.00    +0.022 C 
ATOM     23  C   UNL     1      -0.219   3.893  -2.546  0.00  0.00    +0.076 C 
ATOM     24  C   UNL     1       0.839   4.033  -3.642  0.00  0.00    +0.022 C 
ATOM     25  C   UNL     1       0.410   5.120  -4.630  0.00  0.00    +0.002 C 
ENDBRANCH  14  23
ENDBRANCH   1  16
TORSDOF 2
