REMARK  Name = ZINC20437049
REMARK  5 active torsions:
REMARK  status: ('A' for Active; 'I' for Inactive)
REMARK    1  A    between atoms: C_4  and  N_11
REMARK    2  A    between atoms: C_5  and  C_7
REMARK    3  A    between atoms: C_12  and  C_14
REMARK    4  A    between atoms: C_14  and  N_15
REMARK    5  A    between atoms: N_15  and  C_16
REMARK                            x       y       z     vdW  Elec       q    Type
REMARK                         _______ _______ _______ _____ _____    ______ ____
ROOT
ATOM      1  N   UNL     1      -5.977  -0.949  -0.259  0.00  0.00    -0.270 N 
ATOM      2  C   UNL     1      -6.586  -1.410   0.887  0.00  0.00    +0.136 C 
ATOM      3  N   UNL     1      -7.562  -2.257   0.964  0.00  0.00    -0.362 N 
ATOM      4  C   UNL     1      -8.140  -2.652   2.235  0.00  0.00    +0.117 C 
ATOM      5  C   UNL     1      -9.659  -2.361   2.210  0.00  0.00    +0.191 C 
ATOM      6  S   UNL     1      -9.979  -1.892   3.971  0.00  0.00    -0.028 S 
ATOM      7  O   UNL     1     -10.130  -3.062   4.763  0.00  0.00    -0.174 OA
ATOM      8  O   UNL     1     -10.977  -0.881   4.008  0.00  0.00    -0.174 OA
ATOM      9  C   UNL     1      -8.329  -1.134   4.309  0.00  0.00    +0.182 C 
ATOM     10  C   UNL     1      -7.418  -2.013   3.431  0.00  0.00    +0.099 C 
ATOM     11  S   UNL     1      -6.187  -0.968   2.566  0.00  0.00    -0.085 S 
ATOM     12  H   UNL     1      -7.979  -2.702   0.048  0.00  0.00    +0.162 HD
ENDROOT
BRANCH   1  13
ATOM     13  C   UNL     1      -6.407  -1.402  -1.512  0.00  0.00    +0.071 A 
ATOM     14  C   UNL     1      -5.832  -2.531  -2.078  0.00  0.00    +0.026 A 
ATOM     15  C   UNL     1      -6.260  -2.977  -3.314  0.00  0.00    +0.002 A 
ATOM     16  C   UNL     1      -7.260  -2.300  -3.988  0.00  0.00    +0.003 A 
ATOM     17  C   UNL     1      -7.836  -1.175  -3.428  0.00  0.00    +0.040 A 
ATOM     18  C   UNL     1      -7.417  -0.726  -2.189  0.00  0.00    +0.145 A 
ATOM     19  F   UNL     1      -7.983   0.370  -1.639  0.00  0.00    -0.204 F 
ENDBRANCH   1  13
BRANCH   1  20
ATOM     20  C   UNL     1      -4.878   0.016  -0.168  0.00  0.00    +0.208 C 
BRANCH  20  22
ATOM     21  N   UNL     1      -2.413  -0.035   0.024  0.00  0.00    -0.284 N 
ATOM     22  C   UNL     1      -3.568  -0.722  -0.070  0.00  0.00    +0.235 C 
ATOM     23  O   UNL     1      -3.554  -1.935  -0.076  0.00  0.00    -0.274 OA
ATOM     24  H   UNL     1      -2.430   1.062   0.105  0.00  0.00    +0.155 HD
BRANCH  21  28
ATOM     25  C   UNL     1       1.225  -2.065   0.010  0.00  0.00    +0.001 A 
ATOM     26  C   UNL     1       0.119  -2.636   0.612  0.00  0.00    +0.002 A 
ATOM     27  C   UNL     1      -1.089  -1.965   0.619  0.00  0.00    +0.024 A 
ATOM     28  C   UNL     1      -1.191  -0.716   0.020  0.00  0.00    +0.045 A 
ATOM     29  C   UNL     1      -0.078  -0.145  -0.583  0.00  0.00    +0.076 A 
ATOM     30  C   UNL     1       1.125  -0.824  -0.591  0.00  0.00    +0.014 A 
BRANCH  29  31
ATOM     31  C   UNL     1      -0.184   1.210  -1.234  0.00  0.00    +0.419 C 
ATOM     32  F   UNL     1       1.058   1.570  -1.767  0.00  0.00    -0.166 F 
ATOM     33  F   UNL     1      -1.136   1.162  -2.258  0.00  0.00    -0.166 F 
ATOM     34  F   UNL     1      -0.574   2.156  -0.279  0.00  0.00    -0.166 F 
ENDBRANCH  29  31
ENDBRANCH  21  28
ENDBRANCH  20  22
ENDBRANCH   1  20
TORSDOF 5
