REMARK  Name = ZINC36201416
REMARK  3 active torsions:
REMARK  status: ('A' for Active; 'I' for Inactive)
REMARK    1  A    between atoms: C_5  and  S_7
REMARK    2  A    between atoms: S_7  and  N_10
REMARK    3  A    between atoms: N_10  and  C_11
REMARK                            x       y       z     vdW  Elec       q    Type
REMARK                         _______ _______ _______ _____ _____    ______ ____
ROOT
ATOM      1  C   UNL     1      -0.592   1.043   0.056  0.00  0.00    +0.002 A 
ATOM      2  C   UNL     1       0.482   1.908  -0.011  0.00  0.00    +0.005 A 
ATOM      3  C   UNL     1       1.776   1.414  -0.083  0.00  0.00    -0.029 A 
ATOM      4  C   UNL     1       1.989   0.052  -0.085  0.00  0.00    -0.015 A 
ATOM      5  C   UNL     1       0.910  -0.815  -0.021  0.00  0.00    +0.109 A 
ATOM      6  C   UNL     1      -0.378  -0.322   0.050  0.00  0.00    +0.029 A 
ATOM      7  C   UNL     1       3.377  -0.531  -0.150  0.00  0.00    +0.052 C 
ATOM      8  C   UNL     1       4.368   0.532  -0.627  0.00  0.00    +0.086 C 
ATOM      9  N   UNL     1       4.181   1.744   0.186  0.00  0.00    -0.312 NA
ATOM     10  C   UNL     1       2.915   2.397  -0.161  0.00  0.00    +0.116 C 
ATOM     11  H   UNL     1       4.218   1.528   1.171  0.00  0.00    +0.122 HD
ENDROOT
BRANCH   5  12
ATOM     12  S   UNL     1       1.183  -2.556  -0.029  0.00  0.00    +0.059 S 
ATOM     13  O   UNL     1      -0.092  -3.168   0.115  0.00  0.00    -0.153 OA
ATOM     14  O   UNL     1       2.038  -2.828  -1.130  0.00  0.00    -0.153 OA
BRANCH  12  15
ATOM     15  N   UNL     1       2.041  -2.923   1.339  0.00  0.00    -0.187 NA
ATOM     16  H   UNL     1       2.948  -3.259   1.267  0.00  0.00    +0.148 HD
BRANCH  15  17
ATOM     17  C   UNL     1       1.430  -2.742   2.658  0.00  0.00    +0.077 C 
ATOM     18  C   UNL     1       1.880  -1.399   3.268  0.00  0.00    +0.020 C 
ATOM     19  C   UNL     1       2.040  -1.702   4.779  0.00  0.00    +0.002 C 
ATOM     20  C   UNL     1       2.636  -3.132   4.778  0.00  0.00    +0.002 C 
ATOM     21  C   UNL     1       1.911  -3.844   3.618  0.00  0.00    +0.020 C 
ENDBRANCH  15  17
ENDBRANCH  12  15
ENDBRANCH   5  12
TORSDOF 3
