REMARK  Name = ZINC12469371
REMARK  8 active torsions:
REMARK  status: ('A' for Active; 'I' for Inactive)
REMARK    1  A    between atoms: C_1  and  O_2
REMARK    2  A    between atoms: O_2  and  C_3
REMARK    3  A    between atoms: C_6  and  N_9
REMARK    4  A    between atoms: N_11  and  C_28
REMARK    5  A    between atoms: C_15  and  C_18
REMARK    6  A    between atoms: N_20  and  C_21
REMARK    7  A    between atoms: C_28  and  C_29
REMARK    8  A    between atoms: C_29  and  C_30
REMARK                            x       y       z     vdW  Elec       q    Type
REMARK                         _______ _______ _______ _____ _____    ______ ____
ROOT
ATOM      1  N   UNL     1       4.182   5.219  -1.148  0.00  0.00    -0.226 NA
ATOM      2  C   UNL     1       5.285   4.595  -1.489  0.00  0.00    +0.164 C 
ATOM      3  N   UNL     1       5.348   3.216  -1.485  0.00  0.00    -0.250 N 
ATOM      4  C   UNL     1       6.479   2.522  -1.492  0.00  0.00    +0.223 C 
ATOM      5  O   UNL     1       6.373   1.317  -1.410  0.00  0.00    -0.275 OA
ATOM      6  C   UNL     1       7.867   3.062  -1.589  0.00  0.00    +0.120 C 
ATOM      7  C   UNL     1       7.962   4.501  -1.083  0.00  0.00    +0.149 C 
ATOM      8  S   UNL     1       6.726   5.502  -1.960  0.00  0.00    -0.077 S 
ENDROOT
BRANCH   1  12
ATOM      9  C   UNL     1       4.050   9.359  -1.177  0.00  0.00    +0.120 A 
ATOM     10  C   UNL     1       3.003   8.629  -1.723  0.00  0.00    +0.048 A 
ATOM     11  C   UNL     1       3.043   7.250  -1.716  0.00  0.00    +0.031 A 
ATOM     12  C   UNL     1       4.138   6.589  -1.157  0.00  0.00    +0.067 A 
ATOM     13  C   UNL     1       5.186   7.327  -0.604  0.00  0.00    +0.031 A 
ATOM     14  C   UNL     1       5.141   8.705  -0.620  0.00  0.00    +0.048 A 
BRANCH   9  16
ATOM     15  C   UNL     1       5.117  11.406  -0.608  0.00  0.00    +0.277 C 
ATOM     16  O   UNL     1       4.007  10.718  -1.186  0.00  0.00    -0.495 OA
ENDBRANCH   9  16
ENDBRANCH   1  12
BRANCH   7  17
ATOM     17  C   UNL     1       9.341   5.044  -1.356  0.00  0.00    +0.231 C 
ATOM     18  O   UNL     1       9.934   4.715  -2.361  0.00  0.00    -0.274 OA
ATOM     19  N   UNL     1       9.914   5.896  -0.483  0.00  0.00    -0.285 N 
ATOM     20  H   UNL     1       9.414   6.213   0.285  0.00  0.00    +0.155 HD
BRANCH  19  21
ATOM     21  C   UNL     1      11.231   6.326  -0.687  0.00  0.00    +0.034 A 
ATOM     22  C   UNL     1      12.064   6.553   0.401  0.00  0.00    +0.026 A 
ATOM     23  C   UNL     1      13.364   6.972   0.198  0.00  0.00    +0.040 A 
ATOM     24  C   UNL     1      13.835   7.175  -1.089  0.00  0.00    +0.124 A 
ATOM     25  C   UNL     1      13.004   6.954  -2.175  0.00  0.00    +0.040 A 
ATOM     26  C   UNL     1      11.705   6.530  -1.976  0.00  0.00    +0.026 A 
ATOM     27  F   UNL     1      15.105   7.590  -1.285  0.00  0.00    -0.205 F 
ENDBRANCH  19  21
ENDBRANCH   7  17
BRANCH   3  28
ATOM     28  C   UNL     1       4.086   2.471  -1.480  0.00  0.00    +0.120 C 
BRANCH  28  29
ATOM     29  C   UNL     1       3.655   2.210  -0.035  0.00  0.00    +0.054 C 
BRANCH  29  30
ATOM     30  C   UNL     1       2.357   1.444  -0.029  0.00  0.00    -0.046 A 
ATOM     31  C   UNL     1       1.153   2.124  -0.022  0.00  0.00    +0.005 A 
ATOM     32  C   UNL     1      -0.037   1.421  -0.017  0.00  0.00    +0.020 A 
ATOM     33  C   UNL     1      -0.024   0.038  -0.019  0.00  0.00    +0.041 A 
ATOM     34  C   UNL     1       1.181  -0.642  -0.026  0.00  0.00    +0.020 A 
ATOM     35  C   UNL     1       2.371   0.062  -0.031  0.00  0.00    +0.005 A 
ATOM     36 CL   UNL     1      -1.519  -0.845  -0.012  0.00  0.00    -0.084 Cl
ENDBRANCH  29  30
ENDBRANCH  28  29
ENDBRANCH   3  28
TORSDOF 7
