REMARK  Name = ZINC32802878
REMARK  6 active torsions:
REMARK  status: ('A' for Active; 'I' for Inactive)
REMARK    1  A    between atoms: C_4  and  C_7
REMARK    2  A    between atoms: C_8  and  C_9
REMARK    3  A    between atoms: C_9  and  N_10
REMARK    4  A    between atoms: N_16  and  C_19
REMARK    5  A    between atoms: C_19  and  C_20
REMARK    6  A    between atoms: C_25  and  C_30
REMARK                            x       y       z     vdW  Elec       q    Type
REMARK                         _______ _______ _______ _____ _____    ______ ____
ROOT
ATOM      1  N   UNL     1      -1.383   0.508   3.356  0.00  0.00    -0.288 N 
ATOM      2  C   UNL     1      -0.676   0.106   2.281  0.00  0.00    +0.303 C 
ATOM      3  O   UNL     1      -0.351  -1.060   2.168  0.00  0.00    -0.253 OA
ATOM      4  N   UNL     1      -0.329   0.998   1.331  0.00  0.00    -0.289 N 
ATOM      5  C   UNL     1       0.345   0.563   0.098  0.00  0.00    +0.091 C 
ATOM      6  C   UNL     1      -0.411   1.141  -1.103  0.00  0.00    -0.059 C 
ATOM      7  N   UNL     1      -0.537   2.595  -0.945  0.00  0.00    +0.386 N 
ATOM      8  C   UNL     1      -1.336   2.935   0.240  0.00  0.00    -0.059 C 
ATOM      9  C   UNL     1      -0.619   2.431   1.497  0.00  0.00    +0.091 C 
ATOM     10  H   UNL     1      -1.749   1.543   3.418  0.00  0.00    +0.151 HD
ATOM     11  H   UNL     1       0.473   3.005  -0.796  0.00  0.00    -0.081 HD
ENDROOT
BRANCH   1  12
ATOM     12  C   UNL     1      -1.664  -0.435   4.442  0.00  0.00    +0.195 C 
BRANCH  12  14
ATOM     13  C   UNL     1      -3.068   0.782   6.325  0.00  0.00    -0.065 C 
ATOM     14  C   UNL     1      -2.445   0.242   5.489  0.00  0.00    -0.078 C 
BRANCH  13  18
ATOM     15  C   UNL     1      -5.297   2.715   9.316  0.00  0.00    +0.000 A 
ATOM     16  C   UNL     1      -4.951   1.384   9.467  0.00  0.00    +0.001 A 
ATOM     17  C   UNL     1      -4.219   0.744   8.488  0.00  0.00    +0.017 A 
ATOM     18  C   UNL     1      -3.828   1.441   7.345  0.00  0.00    +0.025 A 
ATOM     19  C   UNL     1      -4.175   2.785   7.202  0.00  0.00    +0.017 A 
ATOM     20  C   UNL     1      -4.912   3.413   8.185  0.00  0.00    +0.001 A 
ENDBRANCH  13  18
ENDBRANCH  12  14
ENDBRANCH   1  12
BRANCH   7  21
ATOM     21  C   UNL     1      -1.102   3.210  -2.154  0.00  0.00    -0.003 C 
BRANCH  21  22
ATOM     22  C   UNL     1      -0.125   3.069  -3.292  0.00  0.00    +0.095 A 
ATOM     23  N   UNL     1      -0.494   3.456  -4.540  0.00  0.00    -0.197 NA
ATOM     24  C   UNL     1       0.351   3.352  -5.583  0.00  0.00    +0.282 A 
ATOM     25  O   UNL     1       0.006   3.708  -6.696  0.00  0.00    -0.265 OA
ATOM     26  C   UNL     1       1.658   2.811  -5.366  0.00  0.00    +0.080 A 
ATOM     27  C   UNL     1       2.738   2.595  -6.322  0.00  0.00    +0.010 A 
ATOM     28  C   UNL     1       3.904   2.062  -5.878  0.00  0.00    +0.057 A 
ATOM     29  S   UNL     1       3.611   1.821  -4.137  0.00  0.00    -0.078 S 
ATOM     30  C   UNL     1       1.948   2.434  -4.044  0.00  0.00    +0.092 A 
ATOM     31  N   UNL     1       1.061   2.572  -3.062  0.00  0.00    -0.339 N 
ATOM     32  H   UNL     1       1.339   2.261  -2.045  0.00  0.00    +0.167 HD
BRANCH  27  33
ATOM     33  C   UNL     1       2.565   2.949  -7.746  0.00  0.00    +0.021 A 
ATOM     34  C   UNL     1       3.381   3.694  -8.555  0.00  0.00    +0.016 A 
ATOM     35  C   UNL     1       3.011   3.891  -9.869  0.00  0.00    +0.008 A 
ATOM     36  C   UNL     1       1.848   3.352 -10.316  0.00  0.00    +0.046 A 
ATOM     37  S   UNL     1       1.234   2.525  -8.858  0.00  0.00    -0.097 S 
ENDBRANCH  27  33
ENDBRANCH  21  22
ENDBRANCH   7  21
TORSDOF 6
