REMARK  Name = ZINC56748943
REMARK  5 active torsions:
REMARK  status: ('A' for Active; 'I' for Inactive)
REMARK    1  A    between atoms: C_4  and  N_14
REMARK    2  A    between atoms: C_6  and  N_7
REMARK    3  A    between atoms: N_17  and  C_18
REMARK    4  A    between atoms: C_18  and  C_19
REMARK    5  A    between atoms: C_19  and  C_20
REMARK                            x       y       z     vdW  Elec       q    Type
REMARK                         _______ _______ _______ _____ _____    ______ ____
ROOT
ATOM      1  C   UNL     1      -0.015   1.386   0.046  0.00  0.00    +0.027 A 
ATOM      2  C   UNL     1       1.082   1.959  -0.569  0.00  0.00    +0.042 A 
ATOM      3  C   UNL     1       2.291   1.288  -0.598  0.00  0.00    +0.145 A 
ATOM      4  C   UNL     1       2.404   0.033  -0.008  0.00  0.00    +0.072 A 
ATOM      5  C   UNL     1       1.304  -0.544   0.609  0.00  0.00    +0.051 A 
ATOM      6  C   UNL     1       0.093   0.133   0.636  0.00  0.00    +0.053 A 
ATOM      7  F   UNL     1       3.361   1.851  -1.199  0.00  0.00    -0.204 F 
ENDROOT
BRANCH   6   8
ATOM      8  N   UNL     1      -1.018  -0.445   1.257  0.00  0.00    -0.207 N 
ATOM      9  C   UNL     1      -1.009  -1.450   2.336  0.00  0.00    +0.133 C 
ATOM     10  C   UNL     1      -2.263  -1.314   3.221  0.00  0.00    +0.045 C 
ATOM     11  C   UNL     1      -3.449  -1.162   2.222  0.00  0.00    +0.190 C 
ATOM     12  S   UNL     1      -2.633  -0.134   0.933  0.00  0.00    +0.046 S 
ATOM     13  O   UNL     1      -2.814   1.250   1.202  0.00  0.00    -0.155 OA
ATOM     14  O   UNL     1      -2.871  -0.670  -0.361  0.00  0.00    -0.155 OA
ENDBRANCH   6   8
BRANCH   4  15
ATOM     15  N   UNL     1       3.628  -0.648  -0.038  0.00  0.00    -0.267 N 
ATOM     16  C   UNL     1       3.654  -1.992   0.056  0.00  0.00    +0.304 C 
ATOM     17  O   UNL     1       2.614  -2.621   0.063  0.00  0.00    -0.253 OA
ATOM     18  N   UNL     1       4.833  -2.639   0.141  0.00  0.00    -0.299 N 
ATOM     19  H   UNL     1       4.457  -0.151  -0.127  0.00  0.00    +0.156 HD
ATOM     20  H   UNL     1       5.663  -2.137   0.135  0.00  0.00    +0.150 HD
BRANCH  18  21
ATOM     21  C   UNL     1       4.862  -4.100   0.243  0.00  0.00    +0.110 C 
BRANCH  21  22
ATOM     22  C   UNL     1       6.313  -4.577   0.326  0.00  0.00    +0.049 C 
BRANCH  22  23
ATOM     23  C   UNL     1       6.342  -6.080   0.431  0.00  0.00    -0.072 C 
ATOM     24  C   UNL     1       6.498  -6.762  -0.658  0.00  0.00    -0.028 C 
ATOM     25  C   UNL     1       6.536  -8.261  -0.714  0.00  0.00    +0.027 C 
ATOM     26  C   UNL     1       6.794  -8.834   0.682  0.00  0.00    +0.004 C 
ATOM     27  C   UNL     1       5.820  -8.173   1.665  0.00  0.00    +0.005 C 
ATOM     28  C   UNL     1       6.195  -6.694   1.793  0.00  0.00    +0.030 C 
ENDBRANCH  22  23
ENDBRANCH  21  22
ENDBRANCH  18  21
ENDBRANCH   4  15
TORSDOF 5
