REMARK  Name = ZINC03352280
REMARK  4 active torsions:
REMARK  status: ('A' for Active; 'I' for Inactive)
REMARK    1  A    between atoms: C_1  and  C_2
REMARK    2  A    between atoms: C_2  and  C_3
REMARK    3  A    between atoms: C_3  and  N_4
REMARK    4  A    between atoms: C_14  and  C_16
REMARK                            x       y       z     vdW  Elec       q    Type
REMARK                         _______ _______ _______ _____ _____    ______ ____
ROOT
ATOM      1  N   UNL     1       2.339  -7.117  -0.058  0.00  0.00    -0.312 N 
ATOM      2  C   UNL     1       1.907  -8.433  -0.061  0.00  0.00    +0.070 A 
ATOM      3  C   UNL     1       2.557  -9.658  -0.075  0.00  0.00    +0.028 A 
ATOM      4  C   UNL     1       1.822 -10.825  -0.074  0.00  0.00    +0.002 A 
ATOM      5  C   UNL     1       0.435 -10.782  -0.060  0.00  0.00    +0.002 A 
ATOM      6  C   UNL     1      -0.227  -9.575  -0.047  0.00  0.00    +0.030 A 
ATOM      7  C   UNL     1       0.504  -8.383  -0.047  0.00  0.00    +0.091 A 
ATOM      8  N   UNL     1       0.150  -7.072  -0.031  0.00  0.00    -0.214 NA
ATOM      9  C   UNL     1       1.226  -6.326  -0.043  0.00  0.00    +0.203 A 
ATOM     10  N   UNL     1       1.234  -4.943  -0.036  0.00  0.00    -0.252 N 
ATOM     11  C   UNL     1       0.071  -4.262  -0.021  0.00  0.00    +0.257 C 
ATOM     12  O   UNL     1      -0.986  -4.864  -0.013  0.00  0.00    -0.270 OA
ATOM     13  H   UNL     1       2.077  -4.463  -0.042  0.00  0.00    +0.158 HD
ENDROOT
BRANCH  11  14
ATOM     14  C   UNL     1       0.080  -2.790  -0.013  0.00  0.00    +0.122 A 
ATOM     15  C   UNL     1       1.276  -2.093  -0.021  0.00  0.00    +0.031 A 
ATOM     16  C   UNL     1       1.238  -0.675  -0.013  0.00  0.00    +0.019 A 
ATOM     17  C   UNL     1       2.431   0.063  -0.021  0.00  0.00    +0.026 A 
ATOM     18  C   UNL     1       2.387   1.428  -0.013  0.00  0.00    +0.019 A 
ATOM     19  C   UNL     1       1.167   2.092   0.002  0.00  0.00    +0.019 A 
ATOM     20  C   UNL     1      -0.017   1.387   0.010  0.00  0.00    +0.048 A 
ATOM     21  C   UNL     1       0.002  -0.004   0.002  0.00  0.00    +0.139 A 
ATOM     22  O   UNL     1      -1.160  -0.692   0.010  0.00  0.00    -0.422 OA
ATOM     23  C   UNL     1      -1.178  -2.036   0.003  0.00  0.00    +0.350 A 
ATOM     24  O   UNL     1      -2.241  -2.628   0.011  0.00  0.00    -0.244 OA
ATOM     25 BR   UNL     1       3.997   2.420  -0.023  0.00  0.00    -0.050 Br
ENDBRANCH  11  14
BRANCH   1  26
ATOM     26  C   UNL     1       3.730  -6.659  -0.070  0.00  0.00    +0.125 C 
BRANCH  26  28
ATOM     27  C   UNL     1       5.683  -6.029   1.356  0.00  0.00    +0.005 C 
ATOM     28  C   UNL     1       4.229  -6.507   1.368  0.00  0.00    +0.018 C 
ENDBRANCH  26  28
ENDBRANCH   1  26
TORSDOF 3
