REMARK  Name = ZINC41584270
REMARK  17 active torsions:
REMARK  status: ('A' for Active; 'I' for Inactive)
REMARK    1  A    between atoms: C_1  and  C_2
REMARK    2  A    between atoms: C_2  and  C_3
REMARK    3  A    between atoms: C_3  and  C_4
REMARK    4  A    between atoms: C_4  and  N_5
REMARK    5  A    between atoms: N_5  and  C_6
REMARK    6  A    between atoms: N_5  and  C_10
REMARK    7  A    between atoms: C_6  and  C_7
REMARK    8  A    between atoms: C_7  and  C_8
REMARK    9  A    between atoms: C_8  and  C_9
REMARK   10  A    between atoms: C_10  and  C_11
REMARK   11  A    between atoms: C_12  and  O_36
REMARK   12  A    between atoms: C_18  and  C_32
REMARK   13  A    between atoms: C_19  and  C_22
REMARK   14  A    between atoms: C_25  and  O_30
REMARK   15  A    between atoms: C_26  and  O_28
REMARK   16  A    between atoms: O_28  and  C_29
REMARK   17  A    between atoms: O_30  and  C_31
REMARK                            x       y       z     vdW  Elec       q    Type
REMARK                         _______ _______ _______ _____ _____    ______ ____
ROOT
ATOM      1  C   UNL     1       2.226  -3.909  -4.119  0.00  0.00    +0.020 A 
ATOM      2  C   UNL     1       1.504  -3.694  -5.281  0.00  0.00    +0.122 A 
ATOM      3  C   UNL     1       2.012  -4.091  -6.516  0.00  0.00    +0.046 A 
ATOM      4  C   UNL     1       3.234  -4.697  -6.596  0.00  0.00    +0.019 A 
ATOM      5  C   UNL     1       3.973  -4.918  -5.434  0.00  0.00    +0.065 A 
ATOM      6  C   UNL     1       3.470  -4.521  -4.181  0.00  0.00    +0.144 A 
ATOM      7  O   UNL     1       4.183  -4.745  -3.061  0.00  0.00    -0.450 OA
ATOM      8  C   UNL     1       5.481  -5.053  -3.103  0.00  0.00    +0.219 A 
ATOM      9  C   UNL     1       6.103  -5.462  -4.239  0.00  0.00    +0.077 A 
ATOM     10  C   UNL     1       5.300  -5.561  -5.476  0.00  0.00    +0.201 A 
ATOM     11  O   UNL     1       5.713  -6.127  -6.473  0.00  0.00    -0.286 OA
ENDROOT
BRANCH   9  12
ATOM     12  C   UNL     1       7.545  -5.810  -4.235  0.00  0.00    -0.007 A 
ATOM     13  C   UNL     1       7.974  -7.000  -3.651  0.00  0.00    +0.012 A 
ATOM     14  C   UNL     1       9.316  -7.323  -3.647  0.00  0.00    +0.050 A 
ATOM     15  C   UNL     1      10.240  -6.466  -4.225  0.00  0.00    +0.162 A 
ATOM     16  C   UNL     1       9.817  -5.275  -4.810  0.00  0.00    +0.162 A 
ATOM     17  C   UNL     1       8.472  -4.950  -4.822  0.00  0.00    +0.058 A 
BRANCH  16  18
ATOM     18  O   UNL     1      10.725  -4.436  -5.376  0.00  0.00    -0.491 OA
ATOM     19  C   UNL     1      10.220  -3.232  -5.958  0.00  0.00    +0.277 C 
ENDBRANCH  16  18
BRANCH  15  20
ATOM     20  O   UNL     1      11.561  -6.788  -4.220  0.00  0.00    -0.491 OA
ATOM     21  C   UNL     1      11.925  -8.024  -3.602  0.00  0.00    +0.277 C 
ENDBRANCH  15  20
ENDBRANCH   9  12
BRANCH   8  22
ATOM     22  C   UNL     1       6.291  -4.941  -1.836  0.00  0.00    +0.451 C 
ATOM     23  F   UNL     1       7.645  -5.131  -2.131  0.00  0.00    -0.163 F 
ATOM     24  F   UNL     1       6.109  -3.672  -1.277  0.00  0.00    -0.163 F 
ATOM     25  F   UNL     1       5.870  -5.917  -0.926  0.00  0.00    -0.163 F 
ENDBRANCH   8  22
BRANCH   2  26
ATOM     26  O   UNL     1       0.290  -3.091  -5.216  0.00  0.00    -0.506 OA
ATOM     27  H   UNL     1       0.325  -2.127  -5.292  0.00  0.00    +0.292 HD
ENDBRANCH   2  26
BRANCH   1  28
ATOM     28  C   UNL     1       1.664  -3.474  -2.790  0.00  0.00    -0.036 C 
BRANCH  28  29
ATOM     29  N   UNL     1       2.234  -2.172  -2.420  0.00  0.00    +0.383 N 
ATOM     30  H   UNL     1       3.241  -2.232  -2.425  0.00  0.00    -0.081 HD
BRANCH  29  31
ATOM     31  C   UNL     1       1.799  -1.154  -3.386  0.00  0.00    -0.078 C 
BRANCH  31  32
ATOM     32  C   UNL     1       2.490   0.174  -3.074  0.00  0.00    -0.019 C 
BRANCH  32  34
ATOM     33  C   UNL     1       2.729   2.562  -3.769  0.00  0.00    +0.004 C 
ATOM     34  C   UNL     1       2.037   1.234  -4.080  0.00  0.00    -0.005 C 
ENDBRANCH  32  34
ENDBRANCH  31  32
ENDBRANCH  29  31
BRANCH  29  35
ATOM     35  C   UNL     1       1.773  -1.799  -1.075  0.00  0.00    -0.078 C 
BRANCH  35  36
ATOM     36  C   UNL     1       2.359  -2.770  -0.048  0.00  0.00    -0.019 C 
BRANCH  36  37
ATOM     37  C   UNL     1       1.808  -2.437   1.340  0.00  0.00    -0.005 C 
ATOM     38  C   UNL     1       2.297  -3.481   2.346  0.00  0.00    +0.004 C 
ENDBRANCH  36  37
ENDBRANCH  35  36
ENDBRANCH  29  35
ENDBRANCH  28  29
ENDBRANCH   1  28
TORSDOF 13
