REMARK  Name = ZINC15661791
REMARK  9 active torsions:
REMARK  status: ('A' for Active; 'I' for Inactive)
REMARK    1  A    between atoms: C_1  and  C_2
REMARK    2  A    between atoms: C_3  and  C_14
REMARK    3  A    between atoms: C_4  and  C_13
REMARK    4  A    between atoms: C_9  and  S_11
REMARK    5  A    between atoms: S_11  and  C_12
REMARK    6  A    between atoms: C_14  and  C_15
REMARK    7  A    between atoms: N_17  and  C_18
REMARK    8  A    between atoms: C_23  and  C_28
REMARK    9  A    between atoms: C_25  and  C_27
REMARK                            x       y       z     vdW  Elec       q    Type
REMARK                         _______ _______ _______ _____ _____    ______ ____
ROOT
ATOM      1  C   UNL     1      -0.018   1.503   0.010  0.00  0.00    +0.066 C 
ATOM      2  C   UNL     1       0.002  -0.004   0.002  0.00  0.00    +0.047 A 
ATOM      3  C   UNL     1      -1.202  -0.717   0.004  0.00  0.00    +0.004 A 
ATOM      4  C   UNL     1      -1.169  -2.075  -0.004  0.00  0.00    +0.049 A 
ATOM      5  N   UNL     1       0.035  -2.706  -0.014  0.00  0.00    -0.200 N 
ATOM      6  C   UNL     1       1.192  -1.980  -0.015  0.00  0.00    +0.254 A 
ATOM      7  N   UNL     1       1.151  -0.643  -0.012  0.00  0.00    -0.216 NA
ATOM      8  N   UNL     1       2.202  -2.844  -0.025  0.00  0.00    -0.183 NA
ATOM      9  C   UNL     1       1.728  -4.088  -0.030  0.00  0.00    +0.211 A 
ATOM     10  N   UNL     1       0.410  -4.055  -0.023  0.00  0.00    -0.137 NA
ATOM     11  C   UNL     1      -2.449  -2.871  -0.002  0.00  0.00    +0.066 C 
ENDROOT
BRANCH   9  12
ATOM     12  S   UNL     1       2.710  -5.551  -0.044  0.00  0.00    -0.088 S 
ATOM     13  C   UNL     1       4.416  -4.935  -0.049  0.00  0.00    +0.093 C 
ENDBRANCH   9  12
BRANCH   3  14
ATOM     14  C   UNL     1      -2.520   0.013   0.015  0.00  0.00    +0.134 C 
BRANCH  14  15
ATOM     15  C   UNL     1      -2.893   0.356   1.435  0.00  0.00    +0.218 C 
ATOM     16  O   UNL     1      -2.159   0.039   2.347  0.00  0.00    -0.275 OA
ATOM     17  N   UNL     1      -4.040   1.015   1.690  0.00  0.00    -0.312 N 
ATOM     18  H   UNL     1      -4.626   1.269   0.960  0.00  0.00    +0.149 HD
BRANCH  17  19
ATOM     19  C   UNL     1      -4.402   1.349   3.070  0.00  0.00    +0.076 C 
ATOM     20  C   UNL     1      -5.115   0.158   3.712  0.00  0.00    +0.022 C 
ATOM     21  C   UNL     1      -5.493   0.506   5.153  0.00  0.00    +0.002 C 
ATOM     22  C   UNL     1      -6.424   1.720   5.157  0.00  0.00    +0.003 C 
ATOM     23  C   UNL     1      -5.710   2.912   4.515  0.00  0.00    -0.009 C 
ATOM     24  C   UNL     1      -5.332   2.563   3.074  0.00  0.00    +0.009 C 
ATOM     25  C   UNL     1      -6.599   2.238   2.279  0.00  0.00    +0.009 C 
ATOM     26  C   UNL     1      -6.641   4.126   4.519  0.00  0.00    +0.008 C 
ENDBRANCH  17  19
ENDBRANCH  14  15
ENDBRANCH   3  14
TORSDOF 4
