REMARK  Name = ZINC09125995
REMARK  13 active torsions:
REMARK  status: ('A' for Active; 'I' for Inactive)
REMARK    1  A    between atoms: C_1  and  C_2
REMARK    2  A    between atoms: C_2  and  C_3
REMARK    3  A    between atoms: C_2  and  C_4
REMARK    4  A    between atoms: C_4  and  N_5
REMARK    5  A    between atoms: C_6  and  N_36
REMARK    6  A    between atoms: C_7  and  N_14
REMARK    7  A    between atoms: N_14  and  C_15
REMARK    8  A    between atoms: C_15  and  C_16
REMARK    9  A    between atoms: C_16  and  C_17
REMARK   10  A    between atoms: C_16  and  C_18
REMARK   11  A    between atoms: C_19  and  C_21
REMARK   12  A    between atoms: N_26  and  C_28
REMARK   13  A    between atoms: C_28  and  C_29
REMARK                            x       y       z     vdW  Elec       q    Type
REMARK                         _______ _______ _______ _____ _____    ______ ____
ROOT
ATOM      1  N   UNL     1       3.297  -1.132  -5.403  0.00  0.00    -0.264 N 
ATOM      2  C   UNL     1       3.234  -0.897  -4.076  0.00  0.00    +0.225 C 
ATOM      3  O   UNL     1       3.616  -1.740  -3.292  0.00  0.00    -0.275 OA
ENDROOT
BRANCH   1   6
ATOM      4  N   UNL     1       5.253  -3.751  -7.082  0.00  0.00    -0.280 N 
ATOM      5  C   UNL     1       4.864  -2.508  -6.639  0.00  0.00    +0.127 A 
ATOM      6  C   UNL     1       3.719  -2.392  -5.877  0.00  0.00    +0.140 A 
ATOM      7  C   UNL     1       2.976  -3.552  -5.587  0.00  0.00    +0.277 A 
ATOM      8  O   UNL     1       1.958  -3.477  -4.920  0.00  0.00    -0.266 OA
ATOM      9  N   UNL     1       3.398  -4.745  -6.050  0.00  0.00    -0.273 N 
ATOM     10  H   UNL     1       2.871  -5.569  -5.843  0.00  0.00    +0.173 HD
ATOM     11  C   UNL     1       4.519  -4.839  -6.786  0.00  0.00    +0.331 A 
ATOM     12  O   UNL     1       4.877  -5.928  -7.192  0.00  0.00    -0.246 OA
BRANCH   5  13
ATOM     13  N   UNL     1       5.610  -1.396  -6.947  0.00  0.00    -0.343 N 
ATOM     14  H   UNL     1       5.372  -0.533  -6.572  0.00  0.00    +0.144 HD
ATOM     15  H   UNL     1       6.374  -1.473  -7.539  0.00  0.00    +0.144 HD
ENDBRANCH   5  13
BRANCH   4  16
ATOM     16  C   UNL     1       6.469  -3.890  -7.886  0.00  0.00    +0.131 C 
BRANCH  16  18
ATOM     17  C   UNL     1       5.617  -2.324  -9.637  0.00  0.00    +0.009 C 
ATOM     18  C   UNL     1       6.120  -3.744  -9.368  0.00  0.00    +0.003 C 
ATOM     19  C   UNL     1       7.366  -4.012 -10.215  0.00  0.00    +0.009 C 
ENDBRANCH  16  18
ENDBRANCH   4  16
ENDBRANCH   1   6
BRANCH   2  20
ATOM     20  C   UNL     1       2.689   0.413  -3.568  0.00  0.00    +0.101 C 
ATOM     21  C   UNL     1       3.787   1.502  -3.557  0.00  0.00    +0.110 C 
ATOM     22  C   UNL     1       3.498   2.307  -2.309  0.00  0.00    +0.217 C 
ATOM     23  O   UNL     1       3.944   3.410  -2.076  0.00  0.00    -0.276 OA
ATOM     24  N   UNL     1       2.674   1.622  -1.497  0.00  0.00    -0.296 N 
ATOM     25  C   UNL     1       2.331   0.314  -2.066  0.00  0.00    +0.121 C 
BRANCH  24  26
ATOM     26  C   UNL     1       2.186   2.116  -0.207  0.00  0.00    +0.144 C 
BRANCH  26  27
ATOM     27  C   UNL     1       0.896   2.868  -0.412  0.00  0.00    -0.012 A 
ATOM     28  C   UNL     1       0.900   4.249  -0.456  0.00  0.00    +0.006 A 
ATOM     29  C   UNL     1      -0.283   4.939  -0.645  0.00  0.00    +0.000 A 
ATOM     30  C   UNL     1      -1.472   4.247  -0.790  0.00  0.00    +0.001 A 
ATOM     31  C   UNL     1      -1.476   2.865  -0.752  0.00  0.00    +0.020 A 
ATOM     32  C   UNL     1      -0.293   2.175  -0.558  0.00  0.00    +0.046 A 
ATOM     33 CL   UNL     1      -0.299   0.440  -0.503  0.00  0.00    -0.083 Cl
ENDBRANCH  26  27
ENDBRANCH  24  26
ENDBRANCH   2  20
BRANCH   1  34
ATOM     34  C   UNL     1       2.928  -0.078  -6.352  0.00  0.00    +0.117 C 
BRANCH  34  35
ATOM     35  C   UNL     1       1.416  -0.110  -6.587  0.00  0.00    +0.001 C 
ATOM     36  C   UNL     1       1.012   1.072  -7.470  0.00  0.00    +0.009 C 
ATOM     37  C   UNL     1       1.036  -1.419  -7.282  0.00  0.00    +0.009 C 
ENDBRANCH  34  35
ENDBRANCH   1  34
TORSDOF 9
