REMARK  Name = ZINC09426718
REMARK  8 active torsions:
REMARK  status: ('A' for Active; 'I' for Inactive)
REMARK    1  A    between atoms: C_1  and  C_2
REMARK    2  A    between atoms: C_4  and  S_22
REMARK    3  A    between atoms: C_7  and  O_8
REMARK    4  A    between atoms: O_8  and  C_9
REMARK    5  A    between atoms: C_9  and  C_10
REMARK    6  A    between atoms: N_12  and  C_13
REMARK    7  A    between atoms: S_22  and  N_25
REMARK    8  A    between atoms: N_25  and  C_26
REMARK                            x       y       z     vdW  Elec       q    Type
REMARK                         _______ _______ _______ _____ _____    ______ ____
ROOT
ATOM      1  C   UNL     1       7.420  -5.682   5.051  0.00  0.00    +0.047 C 
ATOM      2  C   UNL     1       8.493  -4.631   5.178  0.00  0.00    -0.007 A 
ATOM      3  C   UNL     1       9.618  -4.881   5.940  0.00  0.00    +0.035 A 
ATOM      4  C   UNL     1      10.600  -3.915   6.061  0.00  0.00    +0.109 A 
ATOM      5  C   UNL     1      10.461  -2.699   5.417  0.00  0.00    +0.032 A 
ATOM      6  C   UNL     1       9.340  -2.447   4.650  0.00  0.00    +0.048 A 
ATOM      7  C   UNL     1       8.354  -3.415   4.526  0.00  0.00    +0.124 A 
ENDROOT
BRANCH   4   8
ATOM      8  S   UNL     1      12.031  -4.234   7.039  0.00  0.00    +0.072 S 
ATOM      9  O   UNL     1      12.240  -5.639   7.007  0.00  0.00    -0.150 OA
ATOM     10  O   UNL     1      13.023  -3.307   6.621  0.00  0.00    -0.150 OA
BRANCH   8  11
ATOM     11  N   UNL     1      11.651  -3.848   8.604  0.00  0.00    -0.216 N 
ATOM     12  H   UNL     1      12.102  -3.111   9.045  0.00  0.00    +0.174 HD
BRANCH  11  13
ATOM     13  C   UNL     1      10.680  -4.583   9.289  0.00  0.00    +0.048 A 
ATOM     14  C   UNL     1       9.423  -4.035   9.514  0.00  0.00    +0.026 A 
ATOM     15  C   UNL     1       8.463  -4.766  10.186  0.00  0.00    +0.022 A 
ATOM     16  C   UNL     1       8.756  -6.038  10.645  0.00  0.00    +0.041 A 
ATOM     17  C   UNL     1      10.009  -6.584  10.427  0.00  0.00    +0.022 A 
ATOM     18  C   UNL     1      10.971  -5.860   9.750  0.00  0.00    +0.026 A 
ATOM     19 CL   UNL     1       7.550  -6.952  11.496  0.00  0.00    -0.084 Cl
ENDBRANCH  11  13
ENDBRANCH   8  11
ENDBRANCH   4   8
BRANCH   7  20
ATOM     20  O   UNL     1       7.250  -3.169   3.772  0.00  0.00    -0.482 OA
BRANCH  20  21
ATOM     21  C   UNL     1       7.171  -1.893   3.134  0.00  0.00    +0.324 C 
BRANCH  21  22
ATOM     22  C   UNL     1       5.889  -1.802   2.348  0.00  0.00    +0.255 C 
ATOM     23  O   UNL     1       5.118  -2.739   2.335  0.00  0.00    -0.272 OA
ATOM     24  N   UNL     1       5.598  -0.681   1.659  0.00  0.00    -0.283 N 
ATOM     25  H   UNL     1       6.247   0.038   1.607  0.00  0.00    +0.155 HD
BRANCH  24  26
ATOM     26  C   UNL     1       4.359  -0.554   1.018  0.00  0.00    +0.037 A 
ATOM     27  C   UNL     1       3.226  -1.130   1.577  0.00  0.00    +0.027 A 
ATOM     28  C   UNL     1       2.003  -1.005   0.947  0.00  0.00    +0.051 A 
ATOM     29  C   UNL     1       1.903  -0.305  -0.245  0.00  0.00    +0.166 A 
ATOM     30  C   UNL     1       3.038   0.274  -0.808  0.00  0.00    +0.168 A 
ATOM     31  C   UNL     1       4.263   0.148  -0.175  0.00  0.00    +0.072 A 
ATOM     32  O   UNL     1       2.679   0.900  -1.967  0.00  0.00    -0.453 OA
ATOM     33  C   UNL     1       1.249   1.047  -1.898  0.00  0.00    +0.466 C 
ATOM     34  O   UNL     1       0.833  -0.042  -1.052  0.00  0.00    -0.453 OA
ENDBRANCH  24  26
ENDBRANCH  21  22
ENDBRANCH  20  21
ENDBRANCH   7  20
TORSDOF 7
