REMARK  Name = ZINC15866437
REMARK  3 active torsions:
REMARK  status: ('A' for Active; 'I' for Inactive)
REMARK    1  A    between atoms: C_1  and  C_2
REMARK    2  A    between atoms: C_6  and  C_8
REMARK    3  A    between atoms: C_11  and  C_19
REMARK                            x       y       z     vdW  Elec       q    Type
REMARK                         _______ _______ _______ _____ _____    ______ ____
ROOT
ATOM      1  C   UNL     1       3.240   2.436   1.934  0.00  0.00    +0.144 C 
ATOM      2  C   UNL     1       3.075   1.007   1.400  0.00  0.00    +0.059 C 
ATOM      3  C   UNL     1       2.490   1.047  -0.016  0.00  0.00    +0.106 C 
ATOM      4  N   UNL     1       3.440   1.750  -0.900  0.00  0.00    -0.305 N 
ATOM      5  C   UNL     1       4.010   2.908  -0.389  0.00  0.00    +0.236 A 
ATOM      6  N   UNL     1       3.922   3.240   0.924  0.00  0.00    -0.206 N 
ATOM      7  N   UNL     1       4.600   4.452   1.049  0.00  0.00    -0.042 NA
ATOM      8  N   UNL     1       5.031   4.756  -0.132  0.00  0.00    -0.021 NA
ATOM      9  N   UNL     1       4.687   3.850  -0.983  0.00  0.00    -0.092 NA
ATOM     10  H   UNL     1       3.655   1.422  -1.787  0.00  0.00    +0.150 HD
ENDROOT
BRANCH   1  16
ATOM     11  C   UNL     1       3.688   3.380   6.829  0.00  0.00    +0.044 C 
ATOM     12  C   UNL     1       4.274   2.863   5.540  0.00  0.00    -0.050 A 
ATOM     13  C   UNL     1       5.564   2.366   5.518  0.00  0.00    +0.003 A 
ATOM     14  C   UNL     1       6.101   1.891   4.336  0.00  0.00    +0.001 A 
ATOM     15  C   UNL     1       5.347   1.909   3.177  0.00  0.00    +0.006 A 
ATOM     16  C   UNL     1       4.060   2.411   3.199  0.00  0.00    -0.023 A 
ATOM     17  C   UNL     1       3.522   2.886   4.381  0.00  0.00    +0.009 A 
ENDBRANCH   1  16
BRANCH   3  18
ATOM     18  C   UNL     1       1.175   1.783   0.000  0.00  0.00    -0.027 A 
ATOM     19  C   UNL     1      -0.013   1.076   0.008  0.00  0.00    +0.007 A 
ATOM     20  C   UNL     1      -1.219   1.750   0.017  0.00  0.00    +0.020 A 
ATOM     21  C   UNL     1      -1.237   3.134   0.030  0.00  0.00    +0.041 A 
ATOM     22  C   UNL     1      -0.048   3.841   0.023  0.00  0.00    +0.020 A 
ATOM     23  C   UNL     1       1.157   3.165   0.009  0.00  0.00    +0.007 A 
ATOM     24 CL   UNL     1      -2.752   3.982   0.048  0.00  0.00    -0.084 Cl
ENDBRANCH   3  18
TORSDOF 2
