REMARK  Name = ZINC25323888
REMARK  7 active torsions:
REMARK  status: ('A' for Active; 'I' for Inactive)
REMARK    1  A    between atoms: C_1  and  C_2
REMARK    2  A    between atoms: C_5  and  N_8
REMARK    3  A    between atoms: C_9  and  C_28
REMARK    4  A    between atoms: C_11  and  C_17
REMARK    5  A    between atoms: C_23  and  C_25
REMARK    6  A    between atoms: C_25  and  C_26
REMARK    7  A    between atoms: C_25  and  C_27
REMARK                            x       y       z     vdW  Elec       q    Type
REMARK                         _______ _______ _______ _____ _____    ______ ____
ROOT
ATOM      1  N   UNL     1       3.146   2.472  -0.150  0.00  0.00    -0.263 N 
ATOM      2  C   UNL     1       3.468   3.887  -0.289  0.00  0.00    +0.130 C 
ATOM      3  C   UNL     1       4.955   4.069  -0.597  0.00  0.00    +0.101 C 
ATOM      4  C   UNL     1       5.770   3.275   0.430  0.00  0.00    +0.024 C 
ATOM      5  C   UNL     1       5.523   1.783   0.195  0.00  0.00    +0.097 C 
ATOM      6  C   UNL     1       4.047   1.520   0.093  0.00  0.00    +0.220 C 
ATOM      7  O   UNL     1       3.655   0.381   0.236  0.00  0.00    -0.275 OA
ENDROOT
BRANCH   3   8
ATOM      8  C   UNL     1       5.251   3.556  -1.983  0.00  0.00    +0.224 C 
ATOM      9  O   UNL     1       4.704   2.552  -2.387  0.00  0.00    -0.275 OA
ATOM     10  N   UNL     1       6.122   4.214  -2.773  0.00  0.00    -0.263 N 
ATOM     11  C   UNL     1       6.395   3.741  -4.052  0.00  0.00    +0.188 A 
ATOM     12  N   UNL     1       5.915   2.680  -4.678  0.00  0.00    -0.126 NA
ATOM     13  N   UNL     1       6.268   2.383  -5.853  0.00  0.00    -0.144 NA
ATOM     14  C   UNL     1       7.138   3.130  -6.503  0.00  0.00    +0.106 A 
ATOM     15  S   UNL     1       7.456   4.386  -5.270  0.00  0.00    -0.035 S 
ATOM     16  H   UNL     1       6.617   5.125  -2.406  0.00  0.00    +0.157 HD
BRANCH  14  17
ATOM     17  C   UNL     1       7.699   2.975  -7.893  0.00  0.00    +0.040 C 
ATOM     18  C   UNL     1       8.428   1.634  -8.001  0.00  0.00    +0.014 C 
ATOM     19  C   UNL     1       6.558   3.018  -8.912  0.00  0.00    +0.014 C 
ENDBRANCH  14  17
ENDBRANCH   3   8
BRANCH   1  24
ATOM     20  C   UNL     1      -2.288   0.921  -0.650  0.00  0.00    +0.044 C 
ATOM     21  C   UNL     1      -0.845   1.333  -0.517  0.00  0.00    -0.050 A 
ATOM     22  C   UNL     1      -0.459   2.173   0.512  0.00  0.00    +0.005 A 
ATOM     23  C   UNL     1       0.863   2.552   0.636  0.00  0.00    +0.024 A 
ATOM     24  C   UNL     1       1.805   2.090  -0.273  0.00  0.00    +0.037 A 
ATOM     25  C   UNL     1       1.415   1.246  -1.305  0.00  0.00    +0.024 A 
ATOM     26  C   UNL     1       0.091   0.870  -1.423  0.00  0.00    +0.005 A 
ENDBRANCH   1  24
BRANCH   2  27
ATOM     27  C   UNL     1       2.651   4.476  -1.411  0.00  0.00    +0.011 A 
ATOM     28  C   UNL     1       2.066   5.696  -1.491  0.00  0.00    +0.013 A 
ATOM     29  C   UNL     1       1.357   6.025  -2.631  0.00  0.00    +0.008 A 
ATOM     30  C   UNL     1       1.268   5.119  -3.635  0.00  0.00    +0.045 A 
ATOM     31  S   UNL     1       2.210   3.750  -2.981  0.00  0.00    -0.100 S 
ENDBRANCH   2  27
TORSDOF 4
