REMARK  Name = ZINC08801915
REMARK  4 active torsions:
REMARK  status: ('A' for Active; 'I' for Inactive)
REMARK    1  A    between atoms: C_1  and  C_2
REMARK    2  A    between atoms: C_5  and  N_8
REMARK    3  A    between atoms: C_14  and  C_15
REMARK    4  A    between atoms: C_14  and  N_20
REMARK                            x       y       z     vdW  Elec       q    Type
REMARK                         _______ _______ _______ _____ _____    ______ ____
ROOT
ATOM      1  N   UNL     1       0.154  -4.138   0.004  0.00  0.00    -0.232 N 
ATOM      2  C   UNL     1       0.238  -4.734  -1.177  0.00  0.00    +0.235 C 
ATOM      3  O   UNL     1       0.043  -4.164  -2.229  0.00  0.00    -0.274 OA
ATOM      4  C   UNL     1       0.605  -6.208  -1.076  0.00  0.00    +0.172 C 
ATOM      5  S   UNL     1       0.743  -6.375   0.750  0.00  0.00    -0.098 S 
ATOM      6  C   UNL     1       0.381  -4.787   1.170  0.00  0.00    +0.107 C 
ATOM      7  C   UNL     1       0.320  -4.218   2.531  0.00  0.00    +0.175 C 
ENDROOT
BRANCH   1  12
ATOM      8  C   UNL     1      -1.188   1.370   0.178  0.00  0.00    +0.044 C 
ATOM      9  C   UNL     1      -0.832  -0.094   0.131  0.00  0.00    -0.050 A 
ATOM     10  C   UNL     1       0.496  -0.479   0.075  0.00  0.00    +0.005 A 
ATOM     11  C   UNL     1       0.826  -1.819   0.033  0.00  0.00    +0.024 A 
ATOM     12  C   UNL     1      -0.176  -2.781   0.047  0.00  0.00    +0.042 A 
ATOM     13  C   UNL     1      -1.509  -2.390   0.104  0.00  0.00    +0.024 A 
ATOM     14  C   UNL     1      -1.832  -1.049   0.151  0.00  0.00    +0.005 A 
ENDBRANCH   1  12
BRANCH   7  15
ATOM     15  C   UNL     1       0.451  -5.032   3.615  0.00  0.00    +0.103 C 
ATOM     16  C   UNL     1       0.396  -4.491   4.909  0.00  0.00    +0.127 C 
ATOM     17 CL   UNL     1       0.001  -2.815   5.133  0.00  0.00    -0.069 Cl
ATOM     18 CL   UNL     1       0.722  -5.497   6.285  0.00  0.00    -0.069 Cl
ATOM     19 CL   UNL     1       0.685  -6.738   3.397  0.00  0.00    -0.079 Cl
ENDBRANCH   7  15
BRANCH   7  20
ATOM     20  N   UNL     1       0.117  -2.764   2.717  0.00  0.00    +0.060 N 
ATOM     21  O   UNL     1      -1.103  -2.271   2.776  0.00  0.00    -0.126 OA
ATOM     22  O   UNL     1       1.157  -1.962   2.822  0.00  0.00    -0.126 OA
ENDBRANCH   7  20
TORSDOF 3
