REMARK  Name = ZINC65076183
REMARK  6 active torsions:
REMARK  status: ('A' for Active; 'I' for Inactive)
REMARK    1  A    between atoms: C_10  and  C_12
REMARK    2  A    between atoms: N_18  and  C_20
REMARK    3  A    between atoms: C_20  and  C_21
REMARK    4  A    between atoms: N_23  and  C_24
REMARK    5  A    between atoms: C_24  and  C_25
REMARK    6  A    between atoms: C_25  and  C_26
REMARK                            x       y       z     vdW  Elec       q    Type
REMARK                         _______ _______ _______ _____ _____    ______ ____
ROOT
ATOM      1  C   UNL     1       4.981   0.821  -0.051  0.00  0.00    +0.182 C 
ATOM      2  C   UNL     1       4.358   1.686  -1.119  0.00  0.00    +0.007 C 
ATOM      3  C   UNL     1       5.066   1.955  -2.220  0.00  0.00    +0.066 C 
ATOM      4  C   UNL     1       6.424   1.387  -2.320  0.00  0.00    +0.253 C 
ATOM      5  O   UNL     1       6.987   1.314  -3.395  0.00  0.00    -0.269 OA
ATOM      6  N   UNL     1       7.031   0.950  -1.197  0.00  0.00    -0.224 N 
ATOM      7  N   UNL     1       6.423   1.069   0.013  0.00  0.00    -0.221 NA
ATOM      8  H   UNL     1       6.617   1.968   0.428  0.00  0.00    +0.146 HD
ENDROOT
BRANCH   1  18
ATOM      9  C   UNL     1       5.006  -5.741   0.186  0.00  0.00    +0.000 A 
ATOM     10  C   UNL     1       4.207  -5.012  -0.675  0.00  0.00    +0.002 A 
ATOM     11  C   UNL     1       4.273  -3.635  -0.684  0.00  0.00    +0.024 A 
ATOM     12  C   UNL     1       5.147  -2.966   0.176  0.00  0.00    +0.040 A 
ATOM     13  C   UNL     1       5.943  -3.706   1.035  0.00  0.00    -0.024 A 
ATOM     14  C   UNL     1       5.873  -5.086   1.041  0.00  0.00    +0.005 A 
ATOM     15  C   UNL     1       6.787  -2.752   1.850  0.00  0.00    +0.056 C 
ATOM     16  C   UNL     1       6.381  -1.355   1.354  0.00  0.00    +0.118 C 
ATOM     17  N   UNL     1       5.366  -1.593   0.325  0.00  0.00    -0.269 N 
ATOM     18  C   UNL     1       4.737  -0.630  -0.377  0.00  0.00    +0.242 C 
ATOM     19  O   UNL     1       3.974  -0.930  -1.271  0.00  0.00    -0.273 OA
ENDBRANCH   1  18
BRANCH   6  20
ATOM     20  C   UNL     1       8.360   0.340  -1.284  0.00  0.00    +0.222 C 
BRANCH  20  21
ATOM     21  C   UNL     1       8.218  -1.149  -1.470  0.00  0.00    +0.232 C 
ATOM     22  O   UNL     1       7.118  -1.659  -1.465  0.00  0.00    -0.274 OA
ATOM     23  N   UNL     1       9.314  -1.914  -1.641  0.00  0.00    -0.314 N 
ATOM     24  H   UNL     1      10.195  -1.506  -1.645  0.00  0.00    +0.149 HD
BRANCH  23  25
ATOM     25  C   UNL     1       9.177  -3.361  -1.822  0.00  0.00    +0.108 C 
BRANCH  25  26
ATOM     26  C   UNL     1      10.562  -3.988  -1.994  0.00  0.00    +0.065 C 
BRANCH  26  27
ATOM     27  C   UNL     1      10.418  -5.499  -2.183  0.00  0.00    +0.175 C 
ATOM     28  N   UNL     1       9.829  -6.103  -0.981  0.00  0.00    -0.363 N 
ATOM     29  C   UNL     1      10.691  -6.957  -0.510  0.00  0.00    +0.060 A 
ATOM     30  C   UNL     1      10.676  -7.854   0.654  0.00  0.00    +0.027 A 
ATOM     31  C   UNL     1      11.740  -8.644   0.899  0.00  0.00    +0.002 A 
ATOM     32  C   UNL     1      12.884  -8.650   0.081  0.00  0.00    +0.002 A 
ATOM     33  C   UNL     1      13.002  -7.867  -1.010  0.00  0.00    +0.027 A 
ATOM     34  C   UNL     1      11.902  -6.964  -1.376  0.00  0.00    +0.060 A 
ATOM     35  N   UNL     1      11.741  -6.115  -2.349  0.00  0.00    -0.363 N 
ATOM     36  H   UNL     1       8.957  -5.903  -0.607  0.00  0.00    +0.162 HD
ATOM     37  H   UNL     1      12.378  -5.924  -3.056  0.00  0.00    +0.162 HD
ENDBRANCH  26  27
ENDBRANCH  25  26
ENDBRANCH  23  25
ENDBRANCH  20  21
ENDBRANCH   6  20
TORSDOF 6
