REMARK  Name = ZINC66775239
REMARK  9 active torsions:
REMARK  status: ('A' for Active; 'I' for Inactive)
REMARK    1  A    between atoms: C_6  and  C_7
REMARK    2  A    between atoms: C_7  and  C_8
REMARK    3  A    between atoms: C_8  and  C_10
REMARK    4  A    between atoms: C_8  and  N_16
REMARK    5  A    between atoms: C_17  and  C_19
REMARK    6  A    between atoms: C_19  and  C_20
REMARK    7  A    between atoms: C_20  and  C_21
REMARK    8  A    between atoms: C_21  and  C_22
REMARK    9  A    between atoms: C_22  and  N_23
REMARK                            x       y       z     vdW  Elec       q    Type
REMARK                         _______ _______ _______ _____ _____    ______ ____
ROOT
ATOM      1  C   UNL     1      -1.745  -1.028  -1.429  0.00  0.00    +0.080 C 
ENDROOT
BRANCH   1   2
ATOM      2  C   UNL     1      -3.120  -1.700  -1.421  0.00  0.00    +0.010 C 
ATOM      3  C   UNL     1      -4.130  -0.787  -0.722  0.00  0.00    +0.005 C 
ATOM      4  C   UNL     1      -5.504  -1.459  -0.714  0.00  0.00    +0.000 C 
ATOM      5  C   UNL     1      -5.957  -1.713  -2.153  0.00  0.00    +0.000 C 
ATOM      6  C   UNL     1      -4.947  -2.625  -2.852  0.00  0.00    +0.000 C 
ATOM      7  C   UNL     1      -3.572  -1.953  -2.860  0.00  0.00    +0.005 C 
ENDBRANCH   1   2
BRANCH   1   8
ATOM      8  N   UNL     1      -0.778  -1.902  -2.098  0.00  0.00    -0.312 N 
ATOM      9  C   UNL     1      -0.658  -1.871  -3.440  0.00  0.00    +0.213 C 
ATOM     10  O   UNL     1      -1.351  -1.120  -4.094  0.00  0.00    -0.276 OA
ATOM     11  H   UNL     1      -0.225  -2.503  -1.575  0.00  0.00    +0.149 HD
BRANCH   9  12
ATOM     12  C   UNL     1       0.336  -2.770  -4.129  0.00  0.00    +0.096 C 
BRANCH  12  13
ATOM     13  C   UNL     1       0.272  -2.539  -5.640  0.00  0.00    +0.011 C 
BRANCH  13  14
ATOM     14  C   UNL     1       1.281  -3.451  -6.339  0.00  0.00    +0.019 C 
BRANCH  14  15
ATOM     15  C   UNL     1       1.217  -3.221  -7.850  0.00  0.00    +0.106 C 
BRANCH  15  16
ATOM     16  N   UNL     1       2.183  -4.095  -8.519  0.00  0.00    -0.300 N 
ATOM     17  C   UNL     1       2.304  -4.063  -9.861  0.00  0.00    +0.297 C 
ATOM     18  O   UNL     1       1.610  -3.310 -10.516  0.00  0.00    -0.253 OA
ATOM     19  N   UNL     1       3.193  -4.867 -10.477  0.00  0.00    -0.313 N 
ATOM     20  H   UNL     1       2.737  -4.695  -7.996  0.00  0.00    +0.150 HD
ATOM     21  H   UNL     1       3.747  -5.468  -9.954  0.00  0.00    +0.146 HD
ATOM     22  H   UNL     1       3.280  -4.845 -11.443  0.00  0.00    +0.146 HD
ENDBRANCH  15  16
ENDBRANCH  14  15
ENDBRANCH  13  14
ENDBRANCH  12  13
ENDBRANCH   9  12
ENDBRANCH   1   8
BRANCH   1  23
ATOM     23  C   UNL     1      -1.293  -0.775   0.011  0.00  0.00    +0.057 C 
BRANCH  23  29
ATOM     24  C   UNL     1      -0.017   1.378   0.010  0.00  0.00    +0.005 A 
ATOM     25  C   UNL     1       1.171   2.086   0.002  0.00  0.00    +0.020 A 
ATOM     26  C   UNL     1       2.378   1.410  -0.013  0.00  0.00    +0.041 A 
ATOM     27  C   UNL     1       2.396   0.027  -0.021  0.00  0.00    +0.020 A 
ATOM     28  C   UNL     1       1.208  -0.679  -0.013  0.00  0.00    +0.005 A 
ATOM     29  C   UNL     1       0.002  -0.004   0.002  0.00  0.00    -0.046 A 
ATOM     30 CL   UNL     1       3.870   2.298  -0.023  0.00  0.00    -0.084 Cl
ENDBRANCH  23  29
ENDBRANCH   1  23
TORSDOF 9
