REMARK  Name = ZINC38974978
REMARK  7 active torsions:
REMARK  status: ('A' for Active; 'I' for Inactive)
REMARK    1  A    between atoms: C_1  and  C_2
REMARK    2  A    between atoms: C_5  and  O_29
REMARK    3  A    between atoms: C_6  and  N_8
REMARK    4  A    between atoms: N_8  and  C_9
REMARK    5  A    between atoms: N_12  and  S_13
REMARK    6  A    between atoms: S_13  and  C_16
REMARK    7  A    between atoms: O_29  and  C_30
REMARK                            x       y       z     vdW  Elec       q    Type
REMARK                         _______ _______ _______ _____ _____    ______ ____
ROOT
ATOM      1  C   UNL     1       0.159  -2.072   3.668  0.00  0.00    +0.235 C 
ATOM      2  C   UNL     1       1.329  -2.650   4.431  0.00  0.00    +0.170 C 
ATOM      3  N   UNL     1       2.521  -2.651   3.909  0.00  0.00    -0.111 NA
ATOM      4  N   UNL     1       1.121  -3.162   5.654  0.00  0.00    -0.338 N 
ATOM      5  C   UNL     1      -0.075  -3.173   6.203  0.00  0.00    +0.064 A 
ATOM      6  C   UNL     1      -0.259  -3.722   7.498  0.00  0.00    +0.028 A 
ATOM      7  C   UNL     1      -1.485  -3.736   8.066  0.00  0.00    +0.002 A 
ATOM      8  C   UNL     1      -2.624  -3.221   7.427  0.00  0.00    +0.002 A 
ATOM      9  C   UNL     1      -2.561  -2.675   6.192  0.00  0.00    +0.027 A 
ATOM     10  C   UNL     1      -1.262  -2.621   5.505  0.00  0.00    +0.061 A 
ATOM     11  N   UNL     1      -1.163  -2.102   4.314  0.00  0.00    -0.359 N 
ATOM     12  H   UNL     1      -1.943  -1.742   3.863  0.00  0.00    +0.162 HD
ATOM     13  H   UNL     1       1.870  -3.533   6.145  0.00  0.00    +0.167 HD
ENDROOT
BRANCH   3  14
ATOM     14  S   UNL     1       3.794  -3.287   4.755  0.00  0.00    +0.107 S 
ATOM     15  O   UNL     1       3.990  -2.448   5.886  0.00  0.00    -0.146 OA
ATOM     16  O   UNL     1       3.547  -4.681   4.875  0.00  0.00    -0.146 OA
BRANCH  14  17
ATOM     17  C   UNL     1       5.228  -3.115   3.746  0.00  0.00    +0.150 A 
ATOM     18  C   UNL     1       6.114  -2.090   3.688  0.00  0.00    +0.037 A 
ATOM     19  C   UNL     1       7.178  -2.172   2.810  0.00  0.00    +0.010 A 
ATOM     20  C   UNL     1       7.305  -3.276   2.033  0.00  0.00    +0.047 A 
ATOM     21  S   UNL     1       5.896  -4.248   2.539  0.00  0.00    -0.076 S 
ENDBRANCH  14  17
ENDBRANCH   3  14
BRANCH   1  22
ATOM     22  N   UNL     1       0.052  -2.794   2.398  0.00  0.00    -0.315 N 
ATOM     23  H   UNL     1       0.029  -3.764   2.392  0.00  0.00    +0.149 HD
BRANCH  22  29
ATOM     24  C   UNL     1      -0.300   1.499   0.029  0.00  0.00    +0.044 C 
ATOM     25  C   UNL     1      -0.187  -0.003   0.014  0.00  0.00    -0.048 A 
ATOM     26  C   UNL     1      -0.151  -0.680  -1.191  0.00  0.00    +0.007 A 
ATOM     27  C   UNL     1      -0.047  -2.059  -1.211  0.00  0.00    +0.048 A 
ATOM     28  C   UNL     1       0.021  -2.766  -0.021  0.00  0.00    +0.141 A 
ATOM     29  C   UNL     1      -0.016  -2.085   1.193  0.00  0.00    +0.071 A 
ATOM     30  C   UNL     1      -0.115  -0.701   1.205  0.00  0.00    +0.030 A 
BRANCH  28  31
ATOM     31  O   UNL     1       0.122  -4.122  -0.040  0.00  0.00    -0.493 OA
ATOM     32  C   UNL     1       0.154  -4.753  -1.321  0.00  0.00    +0.277 C 
ENDBRANCH  28  31
ENDBRANCH  22  29
ENDBRANCH   1  22
TORSDOF 5
