REMARK  Name = ZINC01455228
REMARK  5 active torsions:
REMARK  status: ('A' for Active; 'I' for Inactive)
REMARK    1  A    between atoms: C_4  and  N_7
REMARK    2  A    between atoms: C_8  and  C_10
REMARK    3  A    between atoms: C_10  and  N_17
REMARK    4  A    between atoms: C_11  and  C_12
REMARK    5  A    between atoms: C_18  and  C_20
REMARK                            x       y       z     vdW  Elec       q    Type
REMARK                         _______ _______ _______ _____ _____    ______ ____
ROOT
ATOM      1  C   UNL     1      -1.257   7.359  -0.157  0.00  0.00    +0.100 C 
ATOM      2  C   UNL     1      -0.086   8.049  -0.160  0.00  0.00    +0.074 C 
ENDROOT
BRANCH   2   3
ATOM      3  C   UNL     1      -0.098   9.465  -0.149  0.00  0.00    +0.130 A 
ATOM      4  C   UNL     1       1.004  10.288  -0.249  0.00  0.00    +0.049 A 
ATOM      5  C   UNL     1       0.524  11.607  -0.196  0.00  0.00    +0.042 A 
ATOM      6  C   UNL     1      -0.819  11.538  -0.069  0.00  0.00    +0.195 A 
ATOM      7  O   UNL     1      -1.191  10.250  -0.046  0.00  0.00    -0.463 OA
ENDBRANCH   2   3
BRANCH   1   9
ATOM      8  N   UNL     1      -0.075   5.237   0.032  0.00  0.00    -0.280 N 
ATOM      9  C   UNL     1      -1.246   5.897  -0.057  0.00  0.00    +0.263 C 
ATOM     10  O   UNL     1      -2.295   5.279  -0.053  0.00  0.00    -0.268 OA
ATOM     11  H   UNL     1       0.756   5.731   0.115  0.00  0.00    +0.155 HD
BRANCH   8  15
ATOM     12  C   UNL     1      -0.020   1.073  -0.049  0.00  0.00    +0.000 A 
ATOM     13  C   UNL     1      -1.054   1.762  -0.657  0.00  0.00    +0.002 A 
ATOM     14  C   UNL     1      -1.078   3.142  -0.627  0.00  0.00    +0.023 A 
ATOM     15  C   UNL     1      -0.056   3.839   0.005  0.00  0.00    +0.034 A 
ATOM     16  C   UNL     1       0.984   3.145   0.610  0.00  0.00    +0.023 A 
ATOM     17  C   UNL     1       0.999   1.764   0.581  0.00  0.00    +0.002 A 
ENDBRANCH   8  15
ENDBRANCH   1   9
BRANCH   1  18
ATOM     18  N   UNL     1      -2.474   8.044  -0.249  0.00  0.00    -0.277 N 
ATOM     19  C   UNL     1      -3.311   7.797  -1.276  0.00  0.00    +0.248 C 
ATOM     20  O   UNL     1      -3.051   6.917  -2.073  0.00  0.00    -0.270 OA
ATOM     21  H   UNL     1      -2.715   8.698   0.427  0.00  0.00    +0.155 HD
BRANCH  19  22
ATOM     22  C   UNL     1      -4.543   8.597  -1.433  0.00  0.00    +0.037 A 
ATOM     23  C   UNL     1      -4.795   9.672  -0.580  0.00  0.00    +0.014 A 
ATOM     24  C   UNL     1      -5.945  10.418  -0.735  0.00  0.00    +0.021 A 
ATOM     25  C   UNL     1      -6.854  10.095  -1.728  0.00  0.00    +0.041 A 
ATOM     26  C   UNL     1      -6.613   9.025  -2.574  0.00  0.00    +0.021 A 
ATOM     27  C   UNL     1      -5.464   8.276  -2.433  0.00  0.00    +0.014 A 
ATOM     28 CL   UNL     1      -8.302  11.034  -1.913  0.00  0.00    -0.084 Cl
ENDBRANCH  19  22
ENDBRANCH   1  18
TORSDOF 5
