REMARK  Name = ZINC51329674
REMARK  3 active torsions:
REMARK  status: ('A' for Active; 'I' for Inactive)
REMARK    1  A    between atoms: C_4  and  C_7
REMARK    2  A    between atoms: C_16  and  C_18
REMARK    3  A    between atoms: C_28  and  C_29
REMARK                            x       y       z     vdW  Elec       q    Type
REMARK                         _______ _______ _______ _____ _____    ______ ____
ROOT
ATOM      1  C   UNL     1       3.790  -0.770   1.732  0.00  0.00    +0.028 C 
ATOM      2  C   UNL     1       3.797  -2.104   1.484  0.00  0.00    +0.081 A 
ATOM      3  C   UNL     1       2.680  -2.995   1.134  0.00  0.00    +0.268 A 
ATOM      4  O   UNL     1       1.546  -2.567   1.027  0.00  0.00    -0.266 OA
ATOM      5  N   UNL     1       2.949  -4.293   0.937  0.00  0.00    -0.275 N 
ATOM      6  C   UNL     1       4.255  -4.723   1.070  0.00  0.00    +0.178 A 
ATOM      7  N   UNL     1       4.631  -5.953   0.902  0.00  0.00    -0.223 NA
ATOM      8  C   UNL     1       3.795  -6.979   0.576  0.00  0.00    +0.071 C 
ATOM      9  C   UNL     1       2.478  -6.760   0.408  0.00  0.00    -0.017 C 
ATOM     10  C   UNL     1       1.961  -5.348   0.580  0.00  0.00    +0.151 C 
ATOM     11  C   UNL     1       1.512  -7.858   0.068  0.00  0.00    +0.035 C 
ATOM     12  C   UNL     1       2.219  -9.037  -0.596  0.00  0.00    +0.009 C 
ATOM     13  C   UNL     1       3.378  -9.495   0.301  0.00  0.00    +0.037 C 
ATOM     14  C   UNL     1       4.351  -8.339   0.400  0.00  0.00    -0.021 C 
ATOM     15  C   UNL     1       5.677  -8.541   0.330  0.00  0.00    +0.013 C 
ATOM     16  S   UNL     1       5.167  -3.251   1.489  0.00  0.00    -0.046 S 
ENDROOT
BRANCH   1  20
ATOM     17  C   UNL     1       0.108   1.308   2.050  0.00  0.00    +0.000 A 
ATOM     18  C   UNL     1       0.222   0.027   2.564  0.00  0.00    +0.001 A 
ATOM     19  C   UNL     1       1.416  -0.655   2.464  0.00  0.00    +0.008 A 
ATOM     20  C   UNL     1       2.514  -0.050   1.842  0.00  0.00    -0.024 A 
ATOM     21  C   UNL     1       2.389   1.244   1.325  0.00  0.00    +0.008 A 
ATOM     22  C   UNL     1       1.189   1.913   1.433  0.00  0.00    +0.001 A 
ENDBRANCH   1  20
BRANCH  10  23
ATOM     23  C   UNL     1       1.296  -4.939  -0.709  0.00  0.00    -0.020 A 
ATOM     24  C   UNL     1       2.043  -4.367  -1.722  0.00  0.00    +0.006 A 
ATOM     25  C   UNL     1       1.432  -3.993  -2.904  0.00  0.00    +0.000 A 
ATOM     26  C   UNL     1       0.075  -4.190  -3.074  0.00  0.00    +0.000 A 
ATOM     27  C   UNL     1      -0.672  -4.763  -2.062  0.00  0.00    +0.000 A 
ATOM     28  C   UNL     1      -0.061  -5.141  -0.881  0.00  0.00    +0.006 A 
ENDBRANCH  10  23
BRANCH  15  29
ATOM     29  C   UNL     1       6.214  -9.914   0.329  0.00  0.00    -0.025 A 
ATOM     30  C   UNL     1       7.287 -10.247  -0.502  0.00  0.00    +0.008 A 
ATOM     31  C   UNL     1       7.784 -11.534  -0.497  0.00  0.00    +0.001 A 
ATOM     32  C   UNL     1       7.223 -12.493   0.328  0.00  0.00    +0.000 A 
ATOM     33  C   UNL     1       6.160 -12.170   1.154  0.00  0.00    +0.001 A 
ATOM     34  C   UNL     1       5.656 -10.886   1.164  0.00  0.00    +0.008 A 
ENDBRANCH  15  29
TORSDOF 3
