REMARK  Name = ZINC40139231
REMARK  9 active torsions:
REMARK  status: ('A' for Active; 'I' for Inactive)
REMARK    1  A    between atoms: C_1  and  C_2
REMARK    2  A    between atoms: N_11  and  C_15
REMARK    3  A    between atoms: C_15  and  N_16
REMARK    4  A    between atoms: N_19  and  C_22
REMARK    5  A    between atoms: C_22  and  C_23
REMARK    6  A    between atoms: C_26  and  C_28
REMARK    7  A    between atoms: C_28  and  C_29
REMARK    8  A    between atoms: C_28  and  C_30
REMARK    9  A    between atoms: C_28  and  C_31
REMARK                            x       y       z     vdW  Elec       q    Type
REMARK                         _______ _______ _______ _____ _____    ______ ____
ROOT
ATOM      1  N   UNL     1       1.257   0.629   5.472  0.00  0.00    -0.290 NA
ATOM      2  C   UNL     1       0.143  -0.267   5.811  0.00  0.00    +0.067 C 
ATOM      3  C   UNL     1       0.572  -1.202   6.945  0.00  0.00    -0.063 C 
ATOM      4  N   UNL     1       0.957  -0.405   8.117  0.00  0.00    +0.385 N 
ATOM      5  C   UNL     1       2.087   0.467   7.769  0.00  0.00    -0.063 C 
ATOM      6  C   UNL     1       1.671   1.415   6.643  0.00  0.00    +0.067 C 
ATOM      7  H   UNL     1       0.174   0.160   8.412  0.00  0.00    -0.081 HD
ENDROOT
BRANCH   1   8
ATOM      8  C   UNL     1       0.904   1.505   4.347  0.00  0.00    +0.204 C 
BRANCH   8  18
ATOM      9  C   UNL     1      -0.019   1.526   0.010  0.00  0.00    +0.010 C 
ATOM     10  C   UNL     1       0.002  -0.004   0.002  0.00  0.00    +0.018 C 
ATOM     11  C   UNL     1      -1.434  -0.533   0.012  0.00  0.00    +0.006 C 
ATOM     12  C   UNL     1      -1.413  -2.063   0.024  0.00  0.00    +0.000 C 
ATOM     13  C   UNL     1      -0.690  -2.554   1.280  0.00  0.00    +0.003 C 
ATOM     14  C   UNL     1       0.749  -2.033   1.276  0.00  0.00    +0.035 C 
ATOM     15  C   UNL     1       0.741  -0.509   1.237  0.00  0.00    +0.115 C 
ATOM     16  C   UNL     1       0.111   0.049   2.493  0.00  0.00    +0.248 C 
ATOM     17  O   UNL     1      -1.023  -0.123   2.884  0.00  0.00    -0.273 OA
ATOM     18  N   UNL     1       1.078   0.778   3.087  0.00  0.00    -0.211 N 
ATOM     19  C   UNL     1       2.217   0.755   2.383  0.00  0.00    +0.310 C 
ATOM     20  O   UNL     1       3.230   1.337   2.717  0.00  0.00    -0.252 OA
ATOM     21  N   UNL     1       2.113   0.013   1.264  0.00  0.00    -0.285 N 
ATOM     22  H   UNL     1       2.808  -0.145   0.606  0.00  0.00    +0.151 HD
ENDBRANCH   8  18
ENDBRANCH   1   8
BRANCH   4  23
ATOM     23  C   UNL     1       1.351  -1.303   9.211  0.00  0.00    -0.022 C 
BRANCH  23  24
ATOM     24  C   UNL     1       1.628  -0.493  10.451  0.00  0.00    +0.032 A 
ATOM     25  C   UNL     1       0.678  -0.303  11.402  0.00  0.00    +0.068 A 
ATOM     26  S   UNL     1       1.580   0.699  12.573  0.00  0.00    -0.080 S 
ATOM     27  C   UNL     1       3.042   0.767  11.741  0.00  0.00    +0.084 A 
ATOM     28  N   UNL     1       2.806   0.059  10.665  0.00  0.00    -0.250 NA
BRANCH  27  29
ATOM     29  C   UNL     1       4.315   1.467  12.141  0.00  0.00    +0.011 C 
ATOM     30  C   UNL     1       4.679   2.508  11.081  0.00  0.00    +0.017 C 
ATOM     31  C   UNL     1       4.114   2.160  13.490  0.00  0.00    +0.017 C 
ATOM     32  C   UNL     1       5.445   0.442  12.258  0.00  0.00    +0.017 C 
ENDBRANCH  27  29
ENDBRANCH  23  24
ENDBRANCH   4  23
TORSDOF 5
