REMARK  Name = ZINC36244410
REMARK  5 active torsions:
REMARK  status: ('A' for Active; 'I' for Inactive)
REMARK    1  A    between atoms: C_1  and  C_2
REMARK    2  A    between atoms: C_2  and  C_3
REMARK    3  A    between atoms: C_2  and  C_4
REMARK    4  A    between atoms: C_2  and  C_5
REMARK    5  A    between atoms: C_6  and  C_15
REMARK                            x       y       z     vdW  Elec       q    Type
REMARK                         _______ _______ _______ _____ _____    ______ ____
ROOT
ATOM      1  C   UNL     1       0.707  -0.490  -1.238  0.00  0.00    +0.083 A 
ATOM      2  C   UNL     1       0.913  -1.814  -1.589  0.00  0.00    +0.148 A 
ATOM      3  N   UNL     1       1.595  -1.799  -2.791  0.00  0.00    -0.278 N 
ATOM      4  C   UNL     1       1.779  -0.486  -3.128  0.00  0.00    +0.140 A 
ATOM      5  N   UNL     1       1.233   0.275  -2.183  0.00  0.00    -0.231 NA
ATOM      6  C   UNL     1       2.453  -0.164  -4.320  0.00  0.00    +0.047 A 
ATOM      7  C   UNL     1       2.912  -1.166  -5.121  0.00  0.00    +0.006 A 
ATOM      8  C   UNL     1       2.708  -2.501  -4.748  0.00  0.00    +0.034 A 
ATOM      9  C   UNL     1       2.056  -2.793  -3.597  0.00  0.00    +0.092 A 
ATOM     10 BR   UNL     1       1.786  -4.599  -3.106  0.00  0.00    -0.030 Br
ENDROOT
BRANCH   1  12
ATOM     11  C   UNL     1      -0.019   1.526   0.010  0.00  0.00    +0.017 C 
ATOM     12  C   UNL     1       0.002  -0.004   0.002  0.00  0.00    +0.007 C 
ATOM     13  C   UNL     1       0.742  -0.511   1.242  0.00  0.00    +0.017 C 
ATOM     14  C   UNL     1      -1.433  -0.534   0.013  0.00  0.00    +0.017 C 
ENDBRANCH   1  12
BRANCH   2  15
ATOM     15  C   UNL     1       0.501  -2.970  -0.851  0.00  0.00    +0.120 C 
ATOM     16  N   UNL     1       0.175  -3.887  -0.265  0.00  0.00    -0.189 NA
ENDBRANCH   2  15
TORSDOF 2
