REMARK  Name = ZINC19926474
REMARK  10 active torsions:
REMARK  status: ('A' for Active; 'I' for Inactive)
REMARK    1  A    between atoms: C_1  and  C_2
REMARK    2  A    between atoms: C_5  and  S_8
REMARK    3  A    between atoms: S_8  and  N_11
REMARK    4  A    between atoms: N_11  and  C_12
REMARK    5  A    between atoms: N_11  and  C_26
REMARK    6  A    between atoms: C_12  and  C_13
REMARK    7  A    between atoms: N_15  and  N_16
REMARK    8  A    between atoms: C_17  and  C_18
REMARK    9  A    between atoms: C_23  and  O_24
REMARK   10  A    between atoms: O_24  and  C_25
REMARK                            x       y       z     vdW  Elec       q    Type
REMARK                         _______ _______ _______ _____ _____    ______ ____
ROOT
ATOM      1  N   UNL     1       1.651  -4.999  -0.034  0.00  0.00    -0.194 N 
ENDROOT
BRANCH   1   2
ATOM      2  C   UNL     1       2.284  -5.292  -1.244  0.00  0.00    +0.055 A 
ATOM      3  C   UNL     1       3.515  -4.721  -1.541  0.00  0.00    +0.044 A 
ATOM      4  C   UNL     1       4.140  -5.013  -2.739  0.00  0.00    +0.044 A 
ATOM      5  C   UNL     1       3.540  -5.872  -3.643  0.00  0.00    +0.040 A 
ATOM      6  C   UNL     1       2.313  -6.442  -3.350  0.00  0.00    +0.044 A 
ATOM      7  C   UNL     1       1.687  -6.158  -2.151  0.00  0.00    +0.044 A 
ATOM      8 CL   UNL     1       1.563  -7.519  -4.487  0.00  0.00    -0.083 Cl
ATOM      9 CL   UNL     1       5.678  -4.299  -3.111  0.00  0.00    -0.083 Cl
ENDBRANCH   1   2
BRANCH   1  10
ATOM     10  S   UNL     1       0.149  -4.301  -0.033  0.00  0.00    +0.075 S 
ATOM     11  O   UNL     1      -0.501  -4.738   1.152  0.00  0.00    -0.150 OA
ATOM     12  O   UNL     1      -0.399  -4.515  -1.326  0.00  0.00    -0.150 OA
BRANCH  10  17
ATOM     13  C   UNL     1       0.950   1.653   0.536  0.00  0.00    +0.044 C 
ATOM     14  C   UNL     1       0.750   0.166   0.394  0.00  0.00    -0.050 A 
ATOM     15  C   UNL     1       0.708  -0.409  -0.863  0.00  0.00    +0.005 A 
ATOM     16  C   UNL     1       0.525  -1.773  -0.993  0.00  0.00    +0.029 A 
ATOM     17  C   UNL     1       0.384  -2.562   0.133  0.00  0.00    +0.109 A 
ATOM     18  C   UNL     1       0.427  -1.988   1.390  0.00  0.00    +0.029 A 
ATOM     19  C   UNL     1       0.614  -0.624   1.520  0.00  0.00    +0.005 A 
ENDBRANCH  10  17
ENDBRANCH   1  10
BRANCH   1  20
ATOM     20  C   UNL     1       2.315  -5.311   1.234  0.00  0.00    +0.228 C 
BRANCH  20  21
ATOM     21  C   UNL     1       2.042  -6.746   1.604  0.00  0.00    +0.251 C 
ATOM     22  O   UNL     1       1.361  -7.441   0.880  0.00  0.00    -0.272 OA
ATOM     23  N   UNL     1       2.556  -7.258   2.740  0.00  0.00    -0.206 N 
ATOM     24  H   UNL     1       3.102  -6.703   3.319  0.00  0.00    +0.177 HD
BRANCH  23  25
ATOM     25  N   UNL     1       2.303  -8.592   3.084  0.00  0.00    -0.188 NA
ATOM     26  C   UNL     1       2.798  -9.085   4.178  0.00  0.00    +0.142 C 
BRANCH  26  27
ATOM     27  C   UNL     1       2.532 -10.489   4.540  0.00  0.00    +0.036 A 
ATOM     28  C   UNL     1       3.058 -11.022   5.720  0.00  0.00    +0.013 A 
ATOM     29  C   UNL     1       2.804 -12.336   6.053  0.00  0.00    +0.001 A 
ATOM     30  C   UNL     1       2.030 -13.130   5.224  0.00  0.00    +0.004 A 
ATOM     31  C   UNL     1       1.505 -12.614   4.054  0.00  0.00    +0.046 A 
ATOM     32  C   UNL     1       1.745 -11.295   3.707  0.00  0.00    +0.129 A 
BRANCH  32  33
ATOM     33  O   UNL     1       1.224 -10.786   2.560  0.00  0.00    -0.494 OA
ATOM     34  C   UNL     1       0.432 -11.666   1.761  0.00  0.00    +0.277 C 
ENDBRANCH  32  33
ENDBRANCH  26  27
ENDBRANCH  23  25
ENDBRANCH  20  21
ENDBRANCH   1  20
TORSDOF 8
