REMARK  Name = ZINC03168018
REMARK  9 active torsions:
REMARK  status: ('A' for Active; 'I' for Inactive)
REMARK    1  A    between atoms: C_1  and  C_2
REMARK    2  A    between atoms: C_5  and  N_8
REMARK    3  A    between atoms: C_9  and  C_22
REMARK    4  A    between atoms: N_23  and  C_24
REMARK    5  A    between atoms: C_27  and  N_30
REMARK    6  A    between atoms: N_30  and  C_31
REMARK    7  A    between atoms: N_30  and  C_34
REMARK    8  A    between atoms: C_31  and  C_32
REMARK    9  A    between atoms: C_34  and  C_35
REMARK                            x       y       z     vdW  Elec       q    Type
REMARK                         _______ _______ _______ _____ _____    ______ ____
ROOT
ATOM      1  N   UNL     1       0.058  -4.146  -0.021  0.00  0.00    -0.308 N 
ATOM      2  C   UNL     1      -0.985  -4.812  -0.514  0.00  0.00    +0.065 A 
ATOM      3  C   UNL     1      -1.007  -6.213  -0.541  0.00  0.00    +0.028 A 
ATOM      4  C   UNL     1       0.060  -6.917  -0.052  0.00  0.00    +0.012 A 
ATOM      5  C   UNL     1       1.151  -6.206   0.464  0.00  0.00    +0.007 A 
ATOM      6  C   UNL     1       1.127  -4.793   0.463  0.00  0.00    +0.055 A 
ATOM      7  C   UNL     1       2.229  -4.075   0.979  0.00  0.00    +0.027 A 
ATOM      8  C   UNL     1       3.315  -4.706   1.472  0.00  0.00    +0.010 A 
ATOM      9  C   UNL     1       3.401  -6.117   1.494  0.00  0.00    -0.017 A 
ATOM     10  C   UNL     1       2.326  -6.894   1.003  0.00  0.00    -0.009 A 
ATOM     11  C   UNL     1       2.412  -8.287   1.028  0.00  0.00    +0.009 A 
ATOM     12  C   UNL     1       3.526  -8.888   1.540  0.00  0.00    +0.001 A 
ATOM     13  C   UNL     1       4.577  -8.128   2.040  0.00  0.00    +0.001 A 
ATOM     14  C   UNL     1       4.533  -6.764   2.008  0.00  0.00    +0.008 A 
ENDROOT
BRANCH   1  19
ATOM     15  C   UNL     1      -0.018   1.503   0.010  0.00  0.00    +0.044 C 
ATOM     16  C   UNL     1       0.002  -0.004   0.002  0.00  0.00    -0.050 A 
ATOM     17  C   UNL     1       0.006  -0.686  -1.202  0.00  0.00    +0.005 A 
ATOM     18  C   UNL     1       0.024  -2.066  -1.216  0.00  0.00    +0.026 A 
ATOM     19  C   UNL     1       0.040  -2.773  -0.013  0.00  0.00    +0.047 A 
ATOM     20  C   UNL     1       0.037  -2.079   1.198  0.00  0.00    +0.026 A 
ATOM     21  C   UNL     1       0.023  -0.699   1.198  0.00  0.00    +0.005 A 
ENDBRANCH   1  19
BRANCH   2  22
ATOM     22  C   UNL     1      -2.136  -4.062  -1.041  0.00  0.00    +0.137 C 
ATOM     23  N   UNL     1      -3.163  -4.701  -1.526  0.00  0.00    -0.254 NA
BRANCH  23  24
ATOM     24  C   UNL     1      -4.231  -4.005  -2.015  0.00  0.00    +0.064 A 
ATOM     25  C   UNL     1      -4.745  -2.917  -1.302  0.00  0.00    +0.029 A 
ATOM     26  C   UNL     1      -5.823  -2.218  -1.798  0.00  0.00    +0.025 A 
ATOM     27  C   UNL     1      -6.400  -2.592  -3.007  0.00  0.00    +0.030 A 
ATOM     28  C   UNL     1      -5.892  -3.674  -3.720  0.00  0.00    +0.025 A 
ATOM     29  C   UNL     1      -4.811  -4.374  -3.233  0.00  0.00    +0.029 A 
BRANCH  27  30
ATOM     30  N   UNL     1      -7.491  -1.881  -3.506  0.00  0.00    -0.328 N 
BRANCH  30  31
ATOM     31  C   UNL     1      -8.101  -2.273  -4.779  0.00  0.00    +0.121 C 
BRANCH  31  32
ATOM     32  C   UNL     1      -9.210  -3.294  -4.520  0.00  0.00    +0.127 C 
ATOM     33 CL   UNL     1      -9.960  -3.777  -6.087  0.00  0.00    -0.124 Cl
ENDBRANCH  31  32
ENDBRANCH  30  31
BRANCH  30  34
ATOM     34  C   UNL     1      -8.028  -0.742  -2.757  0.00  0.00    +0.121 C 
BRANCH  34  35
ATOM     35  C   UNL     1      -7.317   0.539  -3.199  0.00  0.00    +0.127 C 
ATOM     36 CL   UNL     1      -7.978   1.941  -2.277  0.00  0.00    -0.124 Cl
ENDBRANCH  34  35
ENDBRANCH  30  34
ENDBRANCH  27  30
ENDBRANCH  23  24
ENDBRANCH   2  22
TORSDOF 8
