REMARK  Name = ZINC01375674
REMARK  10 active torsions:
REMARK  status: ('A' for Active; 'I' for Inactive)
REMARK    1  A    between atoms: C_1  and  C_2
REMARK    2  A    between atoms: C_11  and  S_18
REMARK    3  A    between atoms: C_13  and  C_15
REMARK    4  A    between atoms: C_15  and  C_16
REMARK    5  A    between atoms: C_15  and  C_17
REMARK    6  A    between atoms: S_18  and  C_19
REMARK    7  A    between atoms: C_19  and  C_20
REMARK    8  A    between atoms: N_22  and  C_23
REMARK    9  A    between atoms: C_26  and  N_29
REMARK   10  A    between atoms: C_30  and  C_32
REMARK                            x       y       z     vdW  Elec       q    Type
REMARK                         _______ _______ _______ _____ _____    ______ ____
ROOT
ATOM      1  C   UNL     1      -4.073  14.218   1.172  0.00  0.00    +0.008 C 
ATOM      2  C   UNL     1      -4.888  12.956   1.461  0.00  0.00    -0.009 C 
ATOM      3  C   UNL     1      -4.415  11.816   0.555  0.00  0.00    +0.008 C 
ATOM      4  C   UNL     1      -5.046  10.498   1.006  0.00  0.00    +0.037 C 
ATOM      5  C   UNL     1      -6.558  10.682   1.098  0.00  0.00    -0.025 A 
ATOM      6  C   UNL     1      -7.099  11.915   1.171  0.00  0.00    -0.004 A 
ATOM      7  S   UNL     1      -8.850  11.649   1.260  0.00  0.00    -0.073 S 
ATOM      8  C   UNL     1      -8.853   9.876   1.200  0.00  0.00    +0.113 A 
ATOM      9  C   UNL     1      -7.485   9.549   1.110  0.00  0.00    +0.043 A 
ATOM     10  C   UNL     1      -7.193   8.158   1.045  0.00  0.00    +0.109 A 
ATOM     11  N   UNL     1      -8.191   7.288   1.067  0.00  0.00    -0.225 NA
ATOM     12  C   UNL     1      -9.453   7.668   1.158  0.00  0.00    +0.134 A 
ATOM     13  N   UNL     1      -9.785   8.943   1.221  0.00  0.00    -0.225 NA
ATOM     14  C   UNL     1      -6.373  13.226   1.176  0.00  0.00    +0.046 C 
ENDROOT
BRANCH  12  15
ATOM     15  C   UNL     1     -10.537   6.622   1.184  0.00  0.00    +0.051 C 
ATOM     16  C   UNL     1     -10.476   5.792  -0.100  0.00  0.00    +0.015 C 
ATOM     17  C   UNL     1     -10.334   5.706   2.393  0.00  0.00    +0.015 C 
ENDBRANCH  12  15
BRANCH  10  18
ATOM     18  S   UNL     1      -5.525   7.600   0.930  0.00  0.00    -0.096 S 
BRANCH  18  19
ATOM     19  C   UNL     1      -5.795   5.811   0.884  0.00  0.00    +0.171 C 
BRANCH  19  20
ATOM     20  C   UNL     1      -4.467   5.105   0.783  0.00  0.00    +0.227 C 
ATOM     21  O   UNL     1      -3.440   5.749   0.747  0.00  0.00    -0.275 OA
ATOM     22  N   UNL     1      -4.421   3.759   0.734  0.00  0.00    -0.285 N 
ATOM     23  H   UNL     1      -5.237   3.242   0.830  0.00  0.00    +0.155 HD
BRANCH  22  24
ATOM     24  C   UNL     1      -3.197   3.107   0.543  0.00  0.00    +0.034 A 
ATOM     25  C   UNL     1      -3.143   1.935  -0.200  0.00  0.00    +0.025 A 
ATOM     26  C   UNL     1      -1.936   1.292  -0.388  0.00  0.00    +0.025 A 
ATOM     27  C   UNL     1      -0.776   1.817   0.166  0.00  0.00    +0.033 A 
ATOM     28  C   UNL     1      -0.831   2.986   0.914  0.00  0.00    +0.025 A 
ATOM     29  C   UNL     1      -2.037   3.631   1.097  0.00  0.00    +0.025 A 
BRANCH  27  30
ATOM     30  N   UNL     1       0.449   1.164  -0.025  0.00  0.00    -0.286 N 
ATOM     31  C   UNL     1       0.703   0.535  -1.189  0.00  0.00    +0.214 C 
ATOM     32  O   UNL     1      -0.157   0.465  -2.042  0.00  0.00    -0.276 OA
ATOM     33  C   UNL     1       2.056  -0.083  -1.432  0.00  0.00    +0.109 C 
ATOM     34  H   UNL     1       1.113   1.162   0.682  0.00  0.00    +0.155 HD
ENDBRANCH  27  30
ENDBRANCH  22  24
ENDBRANCH  19  20
ENDBRANCH  18  19
ENDBRANCH  10  18
TORSDOF 6
