REMARK  Name = ZINC12904304
REMARK  6 active torsions:
REMARK  status: ('A' for Active; 'I' for Inactive)
REMARK    1  A    between atoms: C_1  and  C_2
REMARK    2  A    between atoms: C_2  and  C_3
REMARK    3  A    between atoms: C_2  and  C_4
REMARK    4  A    between atoms: C_2  and  C_5
REMARK    5  A    between atoms: C_8  and  C_11
REMARK    6  A    between atoms: C_11  and  N_12
REMARK                            x       y       z     vdW  Elec       q    Type
REMARK                         _______ _______ _______ _____ _____    ______ ____
ROOT
ATOM      1  C   UNL     1       2.707  -1.868  -4.752  0.00  0.00    +0.151 C 
ENDROOT
BRANCH   1   2
ATOM      2  N   UNL     1       2.520  -0.898  -5.833  0.00  0.00    -0.237 N 
ATOM      3  C   UNL     1       1.486  -0.947  -6.695  0.00  0.00    +0.226 C 
ATOM      4  O   UNL     1       0.493  -1.634  -6.587  0.00  0.00    -0.275 OA
ATOM      5  C   UNL     1       1.798   0.032  -7.839  0.00  0.00    +0.091 C 
ATOM      6  C   UNL     1       2.590  -0.794  -8.855  0.00  0.00    +0.040 C 
ATOM      7  C   UNL     1       3.642  -0.011  -9.562  0.00  0.00    -0.030 C 
ATOM      8  C   UNL     1       4.113   1.122  -9.161  0.00  0.00    -0.030 C 
ATOM      9  C   UNL     1       3.619   1.831  -7.939  0.00  0.00    +0.040 C 
ATOM     10  C   UNL     1       2.705   1.011  -7.076  0.00  0.00    +0.091 C 
ATOM     11  C   UNL     1       3.367   0.132  -6.055  0.00  0.00    +0.226 C 
ATOM     12  O   UNL     1       4.447   0.310  -5.534  0.00  0.00    -0.275 OA
ENDBRANCH   1   2
BRANCH   1  16
ATOM     13  C   UNL     1       0.707  -0.490  -1.238  0.00  0.00    -0.042 A 
ATOM     14  C   UNL     1       0.036  -1.284  -2.148  0.00  0.00    +0.004 A 
ATOM     15  C   UNL     1       0.683  -1.730  -3.286  0.00  0.00    +0.005 A 
ATOM     16  C   UNL     1       2.001  -1.381  -3.513  0.00  0.00    -0.030 A 
ATOM     17  C   UNL     1       2.672  -0.586  -2.603  0.00  0.00    +0.005 A 
ATOM     18  C   UNL     1       2.024  -0.137  -1.467  0.00  0.00    +0.004 A 
BRANCH  13  20
ATOM     19  C   UNL     1      -0.019   1.526   0.010  0.00  0.00    +0.015 C 
ATOM     20  C   UNL     1       0.002  -0.004   0.002  0.00  0.00    -0.013 C 
ATOM     21  C   UNL     1       0.742  -0.511   1.242  0.00  0.00    +0.015 C 
ATOM     22  C   UNL     1      -1.433  -0.534   0.013  0.00  0.00    +0.015 C 
ENDBRANCH  13  20
ENDBRANCH   1  16
TORSDOF 3
