REMARK  Name = ZINC63789284
REMARK  7 active torsions:
REMARK  status: ('A' for Active; 'I' for Inactive)
REMARK    1  A    between atoms: C_1  and  O_2
REMARK    2  A    between atoms: O_2  and  C_3
REMARK    3  A    between atoms: C_5  and  C_21
REMARK    4  A    between atoms: C_8  and  O_9
REMARK    5  A    between atoms: O_9  and  C_10
REMARK    6  A    between atoms: C_10  and  C_11
REMARK    7  A    between atoms: N_13  and  C_14
REMARK                            x       y       z     vdW  Elec       q    Type
REMARK                         _______ _______ _______ _____ _____    ______ ____
ROOT
ATOM      1  C   UNL     1       0.662  -0.617   1.018  0.00  0.00    +0.162 A 
ATOM      2  C   UNL     1       1.248   0.139   2.020  0.00  0.00    +0.054 A 
ATOM      3  C   UNL     1       1.886  -0.487   3.075  0.00  0.00    -0.024 A 
ATOM      4  C   UNL     1       1.943  -1.867   3.132  0.00  0.00    +0.009 A 
ATOM      5  C   UNL     1       1.361  -2.627   2.135  0.00  0.00    +0.050 A 
ATOM      6  C   UNL     1       0.714  -2.006   1.078  0.00  0.00    +0.163 A 
ENDROOT
BRANCH   3   7
ATOM      7  C   UNL     1       2.523   0.337   4.164  0.00  0.00    +0.111 C 
ATOM      8  C   UNL     1       4.034   0.418   3.934  0.00  0.00    +0.128 C 
ATOM      9  C   UNL     1       4.615   1.114   5.160  0.00  0.00    -0.035 C 
ATOM     10  C   UNL     1       5.324   2.139   4.707  0.00  0.00    -0.001 A 
ATOM     11  C   UNL     1       6.180   3.120   5.394  0.00  0.00    +0.010 A 
ATOM     12  C   UNL     1       6.758   4.066   4.608  0.00  0.00    +0.001 A 
ATOM     13  C   UNL     1       6.573   4.133   3.223  0.00  0.00    +0.002 A 
ATOM     14  C   UNL     1       5.809   3.270   2.509  0.00  0.00    +0.026 A 
ATOM     15  C   UNL     1       5.153   2.226   3.224  0.00  0.00    +0.043 A 
ATOM     16  N   UNL     1       4.385   1.249   2.784  0.00  0.00    -0.376 N 
ATOM     17  C   UNL     1       4.274   0.668   6.561  0.00  0.00    +0.048 C 
ATOM     18  C   UNL     1       2.742   0.513   6.601  0.00  0.00    +0.086 C 
ATOM     19  N   UNL     1       2.286  -0.299   5.470  0.00  0.00    -0.307 NA
ATOM     20  H   UNL     1       1.316  -0.556   5.576  0.00  0.00    +0.123 HD
ATOM     21  H   UNL     1       4.096   1.103   1.869  0.00  0.00    +0.160 HD
ENDBRANCH   3   7
BRANCH   1  23
ATOM     22  C   UNL     1       0.020   1.426  -0.016  0.00  0.00    +0.277 C 
ATOM     23  O   UNL     1       0.034  -0.003  -0.020  0.00  0.00    -0.491 OA
ENDBRANCH   1  23
BRANCH   6  24
ATOM     24  O   UNL     1       0.136  -2.753   0.100  0.00  0.00    -0.479 OA
BRANCH  24  25
ATOM     25  C   UNL     1       0.228  -4.173   0.227  0.00  0.00    +0.325 C 
BRANCH  25  26
ATOM     26  C   UNL     1      -0.464  -4.829  -0.940  0.00  0.00    +0.255 C 
ATOM     27  O   UNL     1      -0.985  -4.146  -1.797  0.00  0.00    -0.272 OA
ATOM     28  N   UNL     1      -0.504  -6.173  -1.032  0.00  0.00    -0.280 N 
ATOM     29  H   UNL     1      -0.033  -6.717  -0.383  0.00  0.00    +0.155 HD
BRANCH  28  30
ATOM     30  C   UNL     1      -1.226  -6.783  -2.065  0.00  0.00    +0.069 A 
ATOM     31  C   UNL     1      -1.289  -6.186  -3.317  0.00  0.00    +0.026 A 
ATOM     32  C   UNL     1      -2.002  -6.790  -4.335  0.00  0.00    +0.002 A 
ATOM     33  C   UNL     1      -2.653  -7.988  -4.108  0.00  0.00    +0.003 A 
ATOM     34  C   UNL     1      -2.595  -8.587  -2.863  0.00  0.00    +0.040 A 
ATOM     35  C   UNL     1      -1.878  -7.990  -1.841  0.00  0.00    +0.144 A 
ATOM     36  F   UNL     1      -1.816  -8.578  -0.626  0.00  0.00    -0.204 F 
ENDBRANCH  28  30
ENDBRANCH  25  26
ENDBRANCH  24  25
ENDBRANCH   6  24
TORSDOF 6
