REMARK  Name = ZINC66690175
REMARK  3 active torsions:
REMARK  status: ('A' for Active; 'I' for Inactive)
REMARK    1  A    between atoms: C_5  and  C_7
REMARK    2  A    between atoms: C_14  and  C_16
REMARK    3  A    between atoms: C_18  and  C_22
REMARK                            x       y       z     vdW  Elec       q    Type
REMARK                         _______ _______ _______ _____ _____    ______ ____
ROOT
ATOM      1  C   UNL     1       1.272  -2.173  -0.022  0.00  0.00    +0.168 C 
ATOM      2  C   UNL     1       1.349  -2.687  -1.464  0.00  0.00    +0.144 C 
ATOM      3  N   UNL     1       1.187  -4.150  -1.445  0.00  0.00    -0.291 N 
ATOM      4  C   UNL     1       0.045  -4.710  -0.705  0.00  0.00    +0.136 C 
ATOM      5  C   UNL     1       0.032  -4.097   0.700  0.00  0.00    +0.179 C 
ATOM      6  O   UNL     1       0.083  -2.672   0.594  0.00  0.00    -0.369 OA
ATOM      7  C   UNL     1       2.059  -4.953  -2.086  0.00  0.00    +0.267 C 
ATOM      8  O   UNL     1       2.953  -4.469  -2.753  0.00  0.00    -0.268 OA
ENDROOT
BRANCH   1  13
ATOM      9  C   UNL     1       0.007   1.384   0.016  0.00  0.00    +0.001 A 
ATOM     10  C   UNL     1       1.190   2.099  -0.033  0.00  0.00    +0.003 A 
ATOM     11  C   UNL     1       2.399   1.433  -0.078  0.00  0.00    +0.039 A 
ATOM     12  C   UNL     1       2.428   0.049  -0.074  0.00  0.00    +0.129 A 
ATOM     13  C   UNL     1       1.243  -0.666  -0.025  0.00  0.00    +0.018 A 
ATOM     14  C   UNL     1       0.034   0.002   0.020  0.00  0.00    +0.009 A 
ATOM     15  F   UNL     1       3.610  -0.603  -0.119  0.00  0.00    -0.205 F 
ENDBRANCH   1  13
BRANCH   7  16
ATOM     16  C   UNL     1       1.929  -6.420  -1.978  0.00  0.00    +0.148 A 
ATOM     17  C   UNL     1       2.833  -7.379  -2.483  0.00  0.00    +0.065 A 
ATOM     18  C   UNL     1       2.301  -8.595  -2.146  0.00  0.00    +0.101 A 
ATOM     19  N   UNL     1       1.139  -8.343  -1.475  0.00  0.00    -0.273 N 
ATOM     20  H   UNL     1       0.546  -9.021  -1.115  0.00  0.00    +0.189 HD
ATOM     21  N   UNL     1       0.950  -7.076  -1.387  0.00  0.00    -0.169 NA
BRANCH  18  22
ATOM     22  C   UNL     1       2.872  -9.919  -2.449  0.00  0.00    +0.152 A 
ATOM     23  C   UNL     1       2.327 -11.121  -2.112  0.00  0.00    +0.051 A 
ATOM     24  C   UNL     1       3.202 -12.113  -2.597  0.00  0.00    +0.042 A 
ATOM     25  C   UNL     1       4.226 -11.477  -3.200  0.00  0.00    +0.196 A 
ATOM     26  O   UNL     1       4.020 -10.152  -3.114  0.00  0.00    -0.461 OA
ENDBRANCH  18  22
ENDBRANCH   7  16
TORSDOF 3
