REMARK  Name = ZINC17186384
REMARK  9 active torsions:
REMARK  status: ('A' for Active; 'I' for Inactive)
REMARK    1  A    between atoms: C_1  and  C_2
REMARK    2  A    between atoms: C_2  and  C_3
REMARK    3  A    between atoms: C_6  and  C_9
REMARK    4  A    between atoms: C_12  and  C_14
REMARK    5  A    between atoms: C_14  and  C_25
REMARK    6  A    between atoms: C_15  and  N_16
REMARK    7  A    between atoms: N_16  and  C_17
REMARK    8  A    between atoms: C_20  and  C_24
REMARK    9  A    between atoms: C_22  and  C_23
REMARK                            x       y       z     vdW  Elec       q    Type
REMARK                         _______ _______ _______ _____ _____    ______ ____
ROOT
ATOM      1  C   UNL     1       2.044  -2.780  -8.279  0.00  0.00    +0.098 C 
ATOM      2  C   UNL     1       2.857  -3.135  -9.314  0.00  0.00    +0.093 C 
ENDROOT
BRANCH   1   6
ATOM      3  C   UNL     1       3.997  -2.805  -5.114  0.00  0.00    +0.079 A 
ATOM      4  C   UNL     1       3.364  -1.768  -4.482  0.00  0.00    +0.075 A 
ATOM      5  S   UNL     1       2.159  -1.310  -5.722  0.00  0.00    -0.074 S 
ATOM      6  C   UNL     1       2.618  -2.534  -6.942  0.00  0.00    +0.120 A 
ATOM      7  N   UNL     1       3.612  -3.158  -6.328  0.00  0.00    -0.238 NA
BRANCH   3  11
ATOM      8  C   UNL     1       7.186  -4.859  -3.193  0.00  0.00    -0.048 A 
ATOM      9  C   UNL     1       6.790  -5.236  -4.463  0.00  0.00    +0.004 A 
ATOM     10  C   UNL     1       5.755  -4.573  -5.091  0.00  0.00    +0.010 A 
ATOM     11  C   UNL     1       5.109  -3.522  -4.443  0.00  0.00    +0.001 A 
ATOM     12  C   UNL     1       5.513  -3.146  -3.163  0.00  0.00    +0.010 A 
ATOM     13  C   UNL     1       6.545  -3.820  -2.542  0.00  0.00    +0.004 A 
BRANCH   8  15
ATOM     14  C   UNL     1       7.755  -6.768  -1.716  0.00  0.00    +0.009 C 
ATOM     15  C   UNL     1       8.316  -5.588  -2.511  0.00  0.00    +0.032 C 
ENDBRANCH   8  15
ENDBRANCH   3  11
ENDBRANCH   1   6
BRANCH   2  16
ATOM     16  N   UNL     1       4.197  -3.299  -9.105  0.00  0.00    -0.319 N 
ATOM     17  H   UNL     1       4.558  -3.247  -8.206  0.00  0.00    +0.152 HD
BRANCH  16  18
ATOM     18  C   UNL     1       5.048  -3.540 -10.187  0.00  0.00    +0.034 A 
ATOM     19  C   UNL     1       4.534  -3.609 -11.476  0.00  0.00    +0.024 A 
ATOM     20  C   UNL     1       5.378  -3.847 -12.542  0.00  0.00    +0.005 A 
ATOM     21  C   UNL     1       6.734  -4.017 -12.329  0.00  0.00    -0.050 A 
ATOM     22  C   UNL     1       7.249  -3.950 -11.047  0.00  0.00    +0.008 A 
ATOM     23  C   UNL     1       6.411  -3.706  -9.977  0.00  0.00    -0.029 A 
ATOM     24  C   UNL     1       6.974  -3.626  -8.581  0.00  0.00    +0.045 C 
ATOM     25  C   UNL     1       7.651  -4.277 -13.495  0.00  0.00    +0.044 C 
ENDBRANCH  16  18
ENDBRANCH   2  16
BRANCH   1  26
ATOM     26  C   UNL     1       0.634  -2.645  -8.489  0.00  0.00    +0.103 C 
ATOM     27  N   UNL     1      -0.484  -2.539  -8.656  0.00  0.00    -0.191 NA
ENDBRANCH   1  26
TORSDOF 6
