REMARK  Name = ZINC62172965
REMARK  5 active torsions:
REMARK  status: ('A' for Active; 'I' for Inactive)
REMARK    1  A    between atoms: C_1  and  C_2
REMARK    2  A    between atoms: C_2  and  C_3
REMARK    3  A    between atoms: C_9  and  O_24
REMARK    4  A    between atoms: C_11  and  N_15
REMARK    5  A    between atoms: C_18  and  C_21
REMARK                            x       y       z     vdW  Elec       q    Type
REMARK                         _______ _______ _______ _____ _____    ______ ____
ROOT
ATOM      1  C   UNL     1      -1.412  -0.526   0.013  0.00  0.00    -0.047 A 
ATOM      2  C   UNL     1      -2.051  -0.766   1.215  0.00  0.00    +0.007 A 
ATOM      3  C   UNL     1      -3.346  -1.242   1.224  0.00  0.00    +0.046 A 
ATOM      4  C   UNL     1      -4.012  -1.482   0.026  0.00  0.00    +0.126 A 
ATOM      5  C   UNL     1      -3.368  -1.244  -1.176  0.00  0.00    +0.021 A 
ATOM      6  C   UNL     1      -2.071  -0.758  -1.178  0.00  0.00    +0.013 A 
ATOM      7  C   UNL     1      -4.049  -1.501  -2.496  0.00  0.00    +0.138 C 
ATOM      8  C   UNL     1      -5.563  -1.594  -2.287  0.00  0.00    +0.003 C 
ATOM      9  C   UNL     1      -5.828  -2.538  -1.107  0.00  0.00    +0.217 C 
ATOM     10  O   UNL     1      -5.288  -1.945   0.075  0.00  0.00    -0.493 OA
ENDROOT
BRANCH   8  11
ATOM     11  N   UNL     1      -6.199  -2.125  -3.499  0.00  0.00    +0.386 N 
ATOM     12  C   UNL     1      -5.910  -1.236  -4.631  0.00  0.00    -0.077 C 
ATOM     13  C   UNL     1      -6.502  -1.826  -5.913  0.00  0.00    -0.004 C 
ATOM     14  C   UNL     1      -8.018  -1.971  -5.749  0.00  0.00    +0.099 C 
ATOM     15  C   UNL     1      -8.308  -2.840  -4.522  0.00  0.00    -0.004 C 
ATOM     16  C   UNL     1      -7.649  -2.212  -3.292  0.00  0.00    -0.077 C 
ATOM     17  H   UNL     1      -5.832  -3.045  -3.695  0.00  0.00    -0.081 HD
BRANCH  14  18
ATOM     18  C   UNL     1      -8.597  -2.624  -6.977  0.00  0.00    +0.359 C 
ATOM     19  O   UNL     1      -9.598  -3.314  -6.886  0.00  0.00    -0.246 OA
ATOM     20  O   UNL     1      -8.065  -2.462  -8.062  0.00  0.00    -0.246 OA
ENDBRANCH  14  18
ENDBRANCH   8  11
BRANCH   1  22
ATOM     21  C   UNL     1      -0.019   1.526   0.010  0.00  0.00    +0.009 C 
ATOM     22  C   UNL     1       0.002  -0.004   0.002  0.00  0.00    +0.032 C 
ENDBRANCH   1  22
BRANCH   7  23
ATOM     23  O   UNL     1      -3.570  -2.729  -3.047  0.00  0.00    -0.389 OA
ATOM     24  H   UNL     1      -2.617  -2.742  -3.210  0.00  0.00    +0.210 HD
ENDBRANCH   7  23
TORSDOF 4
