REMARK  Name = ZINC14757428
REMARK  12 active torsions:
REMARK  status: ('A' for Active; 'I' for Inactive)
REMARK    1  A    between atoms: C_1  and  C_2
REMARK    2  A    between atoms: C_7  and  N_8
REMARK    3  A    between atoms: C_9  and  C_30
REMARK    4  A    between atoms: C_12  and  S_13
REMARK    5  A    between atoms: S_13  and  C_14
REMARK    6  A    between atoms: C_14  and  C_16
REMARK    7  A    between atoms: C_14  and  C_17
REMARK    8  A    between atoms: C_17  and  C_19
REMARK    9  A    between atoms: C_20  and  C_29
REMARK   10  A    between atoms: C_21  and  C_26
REMARK   11  A    between atoms: C_22  and  C_25
REMARK   12  A    between atoms: C_26  and  C_28
REMARK                            x       y       z     vdW  Elec       q    Type
REMARK                         _______ _______ _______ _____ _____    ______ ____
ROOT
ATOM      1  N   UNL     1       0.124  11.082   4.482  0.00  0.00    -0.270 N 
ATOM      2  C   UNL     1       0.586  12.003   3.567  0.00  0.00    +0.171 A 
ATOM      3  N   UNL     1       0.521  11.436   2.385  0.00  0.00    -0.128 NA
ATOM      4  N   UNL     1       0.063  10.240   2.495  0.00  0.00    -0.122 NA
ATOM      5  C   UNL     1      -0.203   9.972   3.754  0.00  0.00    +0.197 A 
ENDROOT
BRANCH   1  12
ATOM      6  C   UNL     1      -2.310  12.132   5.520  0.00  0.00    +0.046 C 
ATOM      7  C   UNL     1      -1.158  11.758   6.417  0.00  0.00    -0.026 A 
ATOM      8  C   UNL     1      -1.267  11.918   7.785  0.00  0.00    +0.005 A 
ATOM      9  C   UNL     1      -0.208  11.580   8.608  0.00  0.00    +0.000 A 
ATOM     10  C   UNL     1       0.960  11.078   8.065  0.00  0.00    +0.002 A 
ATOM     11  C   UNL     1       1.073  10.912   6.699  0.00  0.00    +0.026 A 
ATOM     12  C   UNL     1       0.012  11.249   5.870  0.00  0.00    +0.053 A 
ENDBRANCH   1  12
BRANCH   2  13
ATOM     13  C   UNL     1       1.063  13.370   3.860  0.00  0.00    +0.038 A 
ATOM     14  C   UNL     1       1.791  14.091   2.905  0.00  0.00    +0.014 A 
ATOM     15  C   UNL     1       2.215  15.367   3.230  0.00  0.00    +0.020 A 
ATOM     16  C   UNL     1       1.910  15.886   4.475  0.00  0.00    +0.111 A 
ATOM     17  N   UNL     1       1.222  15.184   5.356  0.00  0.00    -0.263 NA
ATOM     18  C   UNL     1       0.792  13.968   5.092  0.00  0.00    +0.122 A 
ENDBRANCH   2  13
BRANCH   5  19
ATOM     19  S   UNL     1      -0.851   8.460   4.386  0.00  0.00    -0.074 S 
BRANCH  19  20
ATOM     20  C   UNL     1      -1.011   7.519   2.848  0.00  0.00    +0.124 C 
ATOM     21  C   UNL     1      -2.054   8.186   1.949  0.00  0.00    +0.028 C 
BRANCH  20  22
ATOM     22  C   UNL     1      -1.447   6.111   3.163  0.00  0.00    +0.192 C 
ATOM     23  O   UNL     1      -2.056   5.879   4.188  0.00  0.00    -0.289 OA
BRANCH  22  24
ATOM     24  C   UNL     1      -1.147   5.059   2.265  0.00  0.00    +0.087 A 
ATOM     25  C   UNL     1      -1.484   3.734   2.430  0.00  0.00    -0.012 A 
ATOM     26  C   UNL     1      -0.989   3.043   1.301  0.00  0.00    +0.041 A 
ATOM     27  C   UNL     1      -0.361   3.979   0.492  0.00  0.00    +0.024 A 
ATOM     28  N   UNL     1      -0.464   5.183   1.071  0.00  0.00    -0.355 N 
ATOM     29  H   UNL     1      -0.111   6.011   0.711  0.00  0.00    +0.166 HD
ATOM     30  C   UNL     1       0.321   3.691  -0.821  0.00  0.00    +0.064 C 
ATOM     31  C   UNL     1      -2.236   3.136   3.591  0.00  0.00    +0.047 C 
BRANCH  26  32
ATOM     32  C   UNL     1      -1.110   1.605   1.037  0.00  0.00    +0.162 C 
ATOM     33  O   UNL     1      -0.243   0.844   1.412  0.00  0.00    -0.292 OA
ATOM     34  C   UNL     1      -2.312   1.073   0.300  0.00  0.00    +0.091 C 
ENDBRANCH  26  32
ENDBRANCH  22  24
ENDBRANCH  20  22
ENDBRANCH  19  20
ENDBRANCH   5  19
TORSDOF 7
