REMARK  Name = ZINC20207957
REMARK  10 active torsions:
REMARK  status: ('A' for Active; 'I' for Inactive)
REMARK    1  A    between atoms: C_1  and  O_2
REMARK    2  A    between atoms: O_2  and  C_3
REMARK    3  A    between atoms: C_6  and  C_9
REMARK    4  A    between atoms: C_9  and  O_11
REMARK    5  A    between atoms: O_11  and  C_12
REMARK    6  A    between atoms: C_15  and  C_20
REMARK    7  A    between atoms: C_17  and  O_18
REMARK    8  A    between atoms: O_18  and  C_19
REMARK    9  A    between atoms: C_30  and  S_32
REMARK   10  A    between atoms: S_32  and  C_35
REMARK                            x       y       z     vdW  Elec       q    Type
REMARK                         _______ _______ _______ _____ _____    ______ ____
ROOT
ATOM      1  C   UNL     1      -6.516  -4.056   0.719  0.00  0.00    +0.173 A 
ATOM      2  C   UNL     1      -7.700  -3.332   0.781  0.00  0.00    +0.051 A 
ATOM      3  C   UNL     1      -8.906  -3.958   0.561  0.00  0.00    +0.012 A 
ATOM      4  C   UNL     1      -8.941  -5.330   0.273  0.00  0.00    -0.021 A 
ATOM      5  C   UNL     1      -7.745  -6.058   0.210  0.00  0.00    +0.057 A 
ATOM      6  C   UNL     1      -6.540  -5.420   0.427  0.00  0.00    +0.163 A 
ENDROOT
BRANCH   4   7
ATOM      7  C   UNL     1     -10.223  -5.999   0.038  0.00  0.00    +0.024 C 
ATOM      8  C   UNL     1     -11.207  -5.368  -0.688  0.00  0.00    +0.081 C 
ATOM      9  C   UNL     1     -10.953  -4.086  -1.406  0.00  0.00    +0.153 C 
ATOM     10  N   UNL     1      -9.801  -3.780  -1.940  0.00  0.00    -0.283 NA
ATOM     11  N   UNL     1     -12.079  -3.237  -1.451  0.00  0.00    -0.150 N 
ATOM     12  C   UNL     1     -13.321  -3.820  -1.314  0.00  0.00    +0.182 C 
ATOM     13  N   UNL     1     -13.590  -5.073  -1.049  0.00  0.00    -0.152 NA
ATOM     14  C   UNL     1     -12.576  -5.929  -0.802  0.00  0.00    +0.273 C 
ATOM     15  O   UNL     1     -12.777  -7.126  -0.674  0.00  0.00    -0.268 OA
ATOM     16  S   UNL     1     -14.408  -2.441  -1.566  0.00  0.00    -0.015 S 
ATOM     17  C   UNL     1     -13.151  -1.180  -1.733  0.00  0.00    +0.235 C 
ATOM     18  N   UNL     1     -12.052  -1.871  -1.633  0.00  0.00    -0.145 NA
ATOM     19  H   UNL     1      -9.667  -2.903  -2.334  0.00  0.00    +0.188 HD
BRANCH  17  20
ATOM     20  S   UNL     1     -13.350   0.554  -1.972  0.00  0.00    +0.019 S 
ATOM     21  O   UNL     1     -14.564   0.875  -1.307  0.00  0.00    -0.168 OA
ATOM     22  O   UNL     1     -12.119   1.122  -1.547  0.00  0.00    -0.168 OA
ATOM     23  C   UNL     1     -13.546   0.758  -3.764  0.00  0.00    +0.202 C 
ENDBRANCH  17  20
ENDBRANCH   4   7
BRANCH   6  24
ATOM     24  O   UNL     1      -5.378  -6.122   0.362  0.00  0.00    -0.491 OA
ATOM     25  C   UNL     1      -5.477  -7.515   0.059  0.00  0.00    +0.277 C 
ENDBRANCH   6  24
BRANCH   1  26
ATOM     26  O   UNL     1      -5.330  -3.432   0.937  0.00  0.00    -0.419 OA
BRANCH  26  27
ATOM     27  C   UNL     1      -4.641  -2.989  -0.134  0.00  0.00    +0.345 C 
ATOM     28  O   UNL     1      -5.039  -3.234  -1.256  0.00  0.00    -0.245 OA
BRANCH  27  32
ATOM     29  C   UNL     1      -1.083  -0.738   0.412  0.00  0.00    +0.120 A 
ATOM     30  C   UNL     1      -1.536  -1.018  -0.872  0.00  0.00    +0.046 A 
ATOM     31  C   UNL     1      -2.690  -1.747  -1.053  0.00  0.00    +0.018 A 
ATOM     32  C   UNL     1      -3.405  -2.207   0.056  0.00  0.00    +0.060 A 
ATOM     33  C   UNL     1      -2.946  -1.924   1.346  0.00  0.00    +0.018 A 
ATOM     34  C   UNL     1      -1.789  -1.198   1.518  0.00  0.00    +0.046 A 
BRANCH  29  36
ATOM     35  C   UNL     1       0.729   0.424  -0.592  0.00  0.00    +0.277 C 
ATOM     36  O   UNL     1       0.054  -0.018   0.587  0.00  0.00    -0.495 OA
ENDBRANCH  29  36
ENDBRANCH  27  32
ENDBRANCH  26  27
ENDBRANCH   1  26
TORSDOF 7
