REMARK  Name = ZINC45795731
REMARK  10 active torsions:
REMARK  status: ('A' for Active; 'I' for Inactive)
REMARK    1  A    between atoms: C_1  and  C_2
REMARK    2  A    between atoms: C_4  and  C_33
REMARK    3  A    between atoms: C_5  and  S_9
REMARK    4  A    between atoms: C_6  and  C_8
REMARK    5  A    between atoms: S_9  and  N_12
REMARK    6  A    between atoms: C_16  and  C_18
REMARK    7  A    between atoms: C_18  and  O_20
REMARK    8  A    between atoms: O_20  and  C_21
REMARK    9  A    between atoms: C_21  and  C_22
REMARK   10  A    between atoms: C_30  and  N_32
REMARK                            x       y       z     vdW  Elec       q    Type
REMARK                         _______ _______ _______ _____ _____    ______ ____
ROOT
ATOM      1  N   UNL     1       0.369  -5.327   0.231  0.00  0.00    -0.163 NA
ATOM      2  C   UNL     1       1.124  -5.888  -0.905  0.00  0.00    +0.110 C 
ATOM      3  C   UNL     1       2.547  -6.144  -0.348  0.00  0.00    +0.019 C 
ATOM      4  C   UNL     1       2.236  -6.615   1.097  0.00  0.00    +0.033 C 
ATOM      5  C   UNL     1       1.011  -5.758   1.482  0.00  0.00    +0.188 C 
ENDROOT
BRANCH   1   6
ATOM      6  S   UNL     1      -0.974  -4.366   0.117  0.00  0.00    +0.062 S 
ATOM      7  O   UNL     1      -1.680  -4.508   1.342  0.00  0.00    -0.153 OA
ATOM      8  O   UNL     1      -1.569  -4.647  -1.142  0.00  0.00    -0.153 OA
BRANCH   6  13
ATOM      9  C   UNL     1       0.941   1.351  -0.118  0.00  0.00    +0.044 C 
ATOM     10  C   UNL     1       0.462  -0.077  -0.059  0.00  0.00    -0.050 A 
ATOM     11  C   UNL     1       0.208  -0.671   1.163  0.00  0.00    +0.008 A 
ATOM     12  C   UNL     1      -0.230  -1.981   1.217  0.00  0.00    -0.024 A 
ATOM     13  C   UNL     1      -0.416  -2.696   0.048  0.00  0.00    +0.111 A 
ATOM     14  C   UNL     1      -0.163  -2.102  -1.174  0.00  0.00    -0.024 A 
ATOM     15  C   UNL     1       0.272  -0.791  -1.228  0.00  0.00    +0.008 A 
ATOM     16  C   UNL     1      -0.364  -2.882  -2.447  0.00  0.00    +0.046 C 
ATOM     17  C   UNL     1      -0.506  -2.629   2.549  0.00  0.00    +0.046 C 
ENDBRANCH   6  13
ENDBRANCH   1   6
BRANCH   5  18
ATOM     18  C   UNL     1       0.047  -6.582   2.295  0.00  0.00    +0.327 C 
ATOM     19  O   UNL     1      -1.067  -6.794   1.879  0.00  0.00    -0.249 OA
BRANCH  18  20
ATOM     20  O   UNL     1       0.427  -7.081   3.482  0.00  0.00    -0.456 OA
BRANCH  20  21
ATOM     21  C   UNL     1      -0.538  -7.853   4.200  0.00  0.00    +0.308 C 
BRANCH  21  22
ATOM     22  C   UNL     1       0.062  -8.327   5.498  0.00  0.00    +0.169 A 
ATOM     23  N   UNL     1       0.693  -9.477   5.514  0.00  0.00    -0.228 NA
ATOM     24  C   UNL     1       1.242  -9.935   6.649  0.00  0.00    +0.076 A 
ATOM     25  C   UNL     1       1.923 -11.159   6.702  0.00  0.00    +0.028 A 
ATOM     26  C   UNL     1       2.463 -11.577   7.882  0.00  0.00    +0.002 A 
ATOM     27  C   UNL     1       2.349 -10.808   9.037  0.00  0.00    +0.001 A 
ATOM     28  C   UNL     1       1.692  -9.613   9.020  0.00  0.00    +0.013 A 
ATOM     29  C   UNL     1       1.127  -9.154   7.825  0.00  0.00    +0.040 A 
ATOM     30  C   UNL     1       0.434  -7.922   7.744  0.00  0.00    +0.128 A 
ATOM     31  N   UNL     1      -0.067  -7.561   6.570  0.00  0.00    -0.214 NA
BRANCH  30  32
ATOM     32  N   UNL     1       0.289  -7.117   8.854  0.00  0.00    -0.343 N 
ATOM     33  H   UNL     1       0.663  -7.393   9.705  0.00  0.00    +0.144 HD
ATOM     34  H   UNL     1      -0.188  -6.275   8.783  0.00  0.00    +0.144 HD
ENDBRANCH  30  32
ENDBRANCH  21  22
ENDBRANCH  20  21
ENDBRANCH  18  20
ENDBRANCH   5  18
TORSDOF 7
