REMARK  Name = ZINC09041501
REMARK  7 active torsions:
REMARK  status: ('A' for Active; 'I' for Inactive)
REMARK    1  A    between atoms: C_2  and  C_3
REMARK    2  A    between atoms: C_3  and  N_4
REMARK    3  A    between atoms: C_8  and  C_30
REMARK    4  A    between atoms: C_13  and  S_14
REMARK    5  A    between atoms: S_14  and  C_15
REMARK    6  A    between atoms: C_15  and  C_16
REMARK    7  A    between atoms: N_18  and  N_19
REMARK                            x       y       z     vdW  Elec       q    Type
REMARK                         _______ _______ _______ _____ _____    ______ ____
ROOT
ATOM      1  N   UNL     1      -9.555   5.005   0.062  0.00  0.00    -0.283 N 
ATOM      2  C   UNL     1     -10.272   6.143   0.076  0.00  0.00    +0.264 A 
ATOM      3  O   UNL     1     -11.490   6.105   0.080  0.00  0.00    -0.267 OA
ATOM      4  C   UNL     1      -9.587   7.397   0.080  0.00  0.00    +0.080 A 
ATOM      5  C   UNL     1     -10.140   8.748   0.089  0.00  0.00    +0.004 A 
ATOM      6  C   UNL     1      -9.288   9.800   0.091  0.00  0.00    +0.056 A 
ATOM      7  S   UNL     1      -7.680   9.031   0.081  0.00  0.00    -0.076 S 
ATOM      8  C   UNL     1      -8.183   7.330   0.074  0.00  0.00    +0.117 A 
ATOM      9  N   UNL     1      -7.534   6.171   0.066  0.00  0.00    -0.216 NA
ATOM     10  C   UNL     1      -8.190   5.028   0.062  0.00  0.00    +0.173 A 
ENDROOT
BRANCH   5  11
ATOM     11  C   UNL     1     -11.606   8.964   0.095  0.00  0.00    -0.017 A 
ATOM     12  C   UNL     1     -12.414   8.309  -0.834  0.00  0.00    +0.008 A 
ATOM     13  C   UNL     1     -13.779   8.509  -0.820  0.00  0.00    +0.001 A 
ATOM     14  C   UNL     1     -14.345   9.368   0.105  0.00  0.00    +0.000 A 
ATOM     15  C   UNL     1     -13.548  10.026   1.025  0.00  0.00    +0.001 A 
ATOM     16  C   UNL     1     -12.183   9.829   1.025  0.00  0.00    +0.008 A 
ENDBRANCH   5  11
BRANCH   1  17
ATOM     17  C   UNL     1     -10.251   3.716   0.052  0.00  0.00    +0.154 C 
BRANCH  17  19
ATOM     18  C   UNL     1     -11.704   2.971   1.868  0.00  0.00    +0.005 C 
ATOM     19  C   UNL     1     -10.490   3.263   1.470  0.00  0.00    -0.013 C 
ENDBRANCH  17  19
ENDBRANCH   1  17
BRANCH  10  20
ATOM     20  S   UNL     1      -7.294   3.511   0.050  0.00  0.00    -0.078 S 
BRANCH  20  21
ATOM     21  C   UNL     1      -5.599   4.148   0.047  0.00  0.00    +0.174 C 
BRANCH  21  22
ATOM     22  C   UNL     1      -4.630   2.994   0.037  0.00  0.00    +0.242 C 
ATOM     23  O   UNL     1      -5.043   1.854   0.032  0.00  0.00    -0.273 OA
ATOM     24  N   UNL     1      -3.302   3.229   0.033  0.00  0.00    -0.206 N 
ATOM     25  H   UNL     1      -2.971   4.141   0.037  0.00  0.00    +0.177 HD
BRANCH  24  26
ATOM     26  N   UNL     1      -2.401   2.157   0.023  0.00  0.00    -0.175 NA
ATOM     27  C   UNL     1      -1.110   2.386   0.019  0.00  0.00    +0.152 C 
ATOM     28  C   UNL     1      -0.017   1.386   0.010  0.00  0.00    +0.028 A 
ATOM     29  C   UNL     1       0.002  -0.004   0.002  0.00  0.00    +0.012 A 
ATOM     30  C   UNL     1       1.210  -0.672  -0.013  0.00  0.00    +0.001 A 
ATOM     31  C   UNL     1       2.397   0.040  -0.021  0.00  0.00    +0.002 A 
ATOM     32  C   UNL     1       2.389   1.421  -0.013  0.00  0.00    +0.024 A 
ATOM     33  C   UNL     1       1.182   2.111   0.002  0.00  0.00    +0.043 A 
ATOM     34  N   UNL     1       0.896   3.472   0.012  0.00  0.00    -0.280 N 
ATOM     35  C   UNL     1      -0.429   3.696   0.026  0.00  0.00    +0.269 C 
ATOM     36  O   UNL     1      -0.971   4.785   0.037  0.00  0.00    -0.268 OA
ATOM     37  H   UNL     1       1.568   4.171   0.009  0.00  0.00    +0.155 HD
ENDBRANCH  24  26
ENDBRANCH  21  22
ENDBRANCH  20  21
ENDBRANCH  10  20
TORSDOF 7
