REMARK  Name = ZINC63090983
REMARK  7 active torsions:
REMARK  status: ('A' for Active; 'I' for Inactive)
REMARK    1  A    between atoms: C_1  and  C_2
REMARK    2  A    between atoms: C_2  and  C_3
REMARK    3  A    between atoms: C_2  and  O_18
REMARK    4  A    between atoms: N_8  and  C_11
REMARK    5  A    between atoms: C_16  and  O_17
REMARK    6  A    between atoms: O_18  and  C_19
REMARK    7  A    between atoms: C_23  and  C_25
REMARK                            x       y       z     vdW  Elec       q    Type
REMARK                         _______ _______ _______ _____ _____    ______ ____
ROOT
ATOM      1  C   UNL     1       0.627  -0.286  -1.344  0.00  0.00    +0.256 C 
ATOM      2  O   UNL     1      -0.042  -0.760  -2.237  0.00  0.00    -0.272 OA
ATOM      3  N   UNL     1       1.929  -0.004  -1.554  0.00  0.00    -0.295 N 
ATOM      4  C   UNL     1       2.754   0.565  -0.479  0.00  0.00    +0.127 C 
ATOM      5  C   UNL     1       3.979  -0.334  -0.274  0.00  0.00    +0.124 C 
ATOM      6  N   UNL     1       4.598  -0.591  -1.582  0.00  0.00    -0.324 N 
ATOM      7  C   UNL     1       3.773  -1.160  -2.656  0.00  0.00    +0.124 C 
ATOM      8  C   UNL     1       2.549  -0.266  -2.860  0.00  0.00    +0.127 C 
ENDROOT
BRANCH   6   9
ATOM      9  C   UNL     1       5.949  -0.298  -1.800  0.00  0.00    +0.072 A 
ATOM     10  C   UNL     1       6.918  -1.260  -1.556  0.00  0.00    +0.027 A 
ATOM     11  C   UNL     1       8.251  -0.969  -1.773  0.00  0.00    +0.002 A 
ATOM     12  C   UNL     1       8.623   0.281  -2.233  0.00  0.00    +0.004 A 
ATOM     13  C   UNL     1       7.663   1.246  -2.478  0.00  0.00    +0.047 A 
ATOM     14  C   UNL     1       6.324   0.960  -2.269  0.00  0.00    +0.138 A 
BRANCH  14  15
ATOM     15  O   UNL     1       5.379   1.906  -2.514  0.00  0.00    -0.505 OA
ATOM     16  H   UNL     1       5.178   2.468  -1.754  0.00  0.00    +0.292 HD
ENDBRANCH  14  15
ENDBRANCH   6   9
BRANCH   1  18
ATOM     17  C   UNL     1       0.004   1.495   0.265  0.00  0.00    +0.062 C 
ATOM     18  C   UNL     1       0.005  -0.012   0.001  0.00  0.00    +0.256 C 
BRANCH  18  19
ATOM     19  O   UNL     1      -1.339  -0.499   0.012  0.00  0.00    -0.480 OA
BRANCH  19  20
ATOM     20  C   UNL     1      -1.869  -0.818   1.222  0.00  0.00    +0.123 A 
ATOM     21  C   UNL     1      -1.156  -0.555   2.384  0.00  0.00    +0.046 A 
ATOM     22  C   UNL     1      -1.690  -0.877   3.617  0.00  0.00    +0.005 A 
ATOM     23  C   UNL     1      -2.938  -1.462   3.702  0.00  0.00    +0.019 A 
ATOM     24  C   UNL     1      -3.663  -1.730   2.540  0.00  0.00    +0.055 A 
ATOM     25  C   UNL     1      -3.124  -1.399   1.296  0.00  0.00    +0.064 A 
BRANCH  24  26
ATOM     26  C   UNL     1      -4.957  -2.337   2.624  0.00  0.00    +0.099 C 
ATOM     27  N   UNL     1      -5.984  -2.818   2.691  0.00  0.00    -0.191 NA
ENDBRANCH  24  26
ENDBRANCH  19  20
ENDBRANCH  18  19
ENDBRANCH   1  18
TORSDOF 6
