REMARK  Name = ZINC40450204
REMARK  4 active torsions:
REMARK  status: ('A' for Active; 'I' for Inactive)
REMARK    1  A    between atoms: C_1  and  C_2
REMARK    2  A    between atoms: C_10  and  S_14
REMARK    3  A    between atoms: S_14  and  N_17
REMARK    4  A    between atoms: C_23  and  C_25
REMARK                            x       y       z     vdW  Elec       q    Type
REMARK                         _______ _______ _______ _____ _____    ______ ____
ROOT
ATOM      1  S   UNL     1       1.433  -6.328  -0.055  0.00  0.00    +0.062 S 
ATOM      2  O   UNL     1       0.816  -7.249  -0.944  0.00  0.00    -0.153 OA
ATOM      3  O   UNL     1       2.812  -5.994  -0.141  0.00  0.00    -0.153 OA
ENDROOT
BRANCH   1  13
ATOM      4  C   UNL     1       2.722   0.658  -0.755  0.00  0.00    +0.109 C 
ATOM      5  C   UNL     1       2.317  -0.786  -0.609  0.00  0.00    +0.217 C 
ATOM      6  O   UNL     1       3.165  -1.649  -0.533  0.00  0.00    -0.276 OA
ATOM      7  N   UNL     1       1.011  -1.119  -0.564  0.00  0.00    -0.271 N 
ATOM      8  C   UNL     1      -0.101  -0.169  -0.652  0.00  0.00    +0.118 C 
ATOM      9  C   UNL     1      -1.373  -1.027  -0.553  0.00  0.00    +0.056 C 
ATOM     10  C   UNL     1      -0.866  -2.445  -0.412  0.00  0.00    -0.023 A 
ATOM     11  C   UNL     1       0.520  -2.422  -0.431  0.00  0.00    +0.041 A 
ATOM     12  C   UNL     1       1.220  -3.624  -0.320  0.00  0.00    +0.053 A 
ATOM     13  C   UNL     1       0.539  -4.816  -0.196  0.00  0.00    +0.121 A 
ATOM     14  C   UNL     1      -0.844  -4.830  -0.182  0.00  0.00    +0.045 A 
ATOM     15  C   UNL     1      -1.545  -3.641  -0.284  0.00  0.00    +0.022 A 
ATOM     16 BR   UNL     1      -1.775  -6.467  -0.013  0.00  0.00    -0.048 Br
ENDBRANCH   1  13
BRANCH   1  17
ATOM     17  N   UNL     1       1.181  -6.906   1.476  0.00  0.00    -0.174 NA
ATOM     18  C   UNL     1       1.930  -6.357   2.615  0.00  0.00    +0.128 C 
ATOM     19  C   UNL     1       0.930  -5.875   3.673  0.00  0.00    +0.125 C 
ATOM     20  N   UNL     1      -0.048  -6.945   3.917  0.00  0.00    -0.292 N 
ATOM     21  C   UNL     1      -0.797  -7.494   2.778  0.00  0.00    +0.125 C 
ATOM     22  C   UNL     1       0.200  -7.972   1.721  0.00  0.00    +0.128 C 
ATOM     23  C   UNL     1      -0.253  -7.415   5.164  0.00  0.00    +0.282 C 
ATOM     24  O   UNL     1      -0.965  -8.387   5.338  0.00  0.00    -0.267 OA
BRANCH  23  25
ATOM     25  C   UNL     1       0.382  -6.756   6.310  0.00  0.00    +0.189 A 
ATOM     26  C   UNL     1       0.376  -7.206   7.599  0.00  0.00    +0.054 A 
ATOM     27  C   UNL     1       1.098  -6.271   8.357  0.00  0.00    +0.042 A 
ATOM     28  C   UNL     1       1.507  -5.303   7.508  0.00  0.00    +0.196 A 
ATOM     29  O   UNL     1       1.078  -5.601   6.274  0.00  0.00    -0.458 OA
ENDBRANCH  23  25
ENDBRANCH   1  17
TORSDOF 3
