REMARK  Name = ZINC06757014
REMARK  6 active torsions:
REMARK  status: ('A' for Active; 'I' for Inactive)
REMARK    1  A    between atoms: C_4  and  N_7
REMARK    2  A    between atoms: N_7  and  C_8
REMARK    3  A    between atoms: N_7  and  C_14
REMARK    4  A    between atoms: C_14  and  N_16
REMARK    5  A    between atoms: C_17  and  C_19
REMARK    6  A    between atoms: C_24  and  N_25
REMARK                            x       y       z     vdW  Elec       q    Type
REMARK                         _______ _______ _______ _____ _____    ______ ____
ROOT
ATOM      1  C   UNL     1      -4.804   0.444   0.398  0.00  0.00    +0.148 C 
ATOM      2  S   UNL     1      -4.999   2.120   0.112  0.00  0.00    -0.018 S 
ENDROOT
BRANCH   1   3
ATOM      3  N   UNL     1      -3.576  -0.109   0.354  0.00  0.00    -0.263 N 
ATOM      4  C   UNL     1      -2.490   0.674   0.193  0.00  0.00    +0.252 C 
ATOM      5  O   UNL     1      -2.619   1.877   0.087  0.00  0.00    -0.270 OA
ATOM      6  H   UNL     1      -3.473  -1.070   0.439  0.00  0.00    +0.157 HD
BRANCH   4   7
ATOM      7  C   UNL     1      -1.143   0.068   0.145  0.00  0.00    +0.067 A 
ATOM      8  C   UNL     1      -0.705  -0.751   1.188  0.00  0.00    +0.015 A 
ATOM      9  C   UNL     1       0.554  -1.313   1.137  0.00  0.00    +0.001 A 
ATOM     10  C   UNL     1       1.381  -1.067   0.055  0.00  0.00    +0.002 A 
ATOM     11  C   UNL     1       0.951  -0.262  -0.984  0.00  0.00    +0.033 A 
ATOM     12  C   UNL     1      -0.303   0.311  -0.943  0.00  0.00    +0.138 A 
BRANCH  12  13
ATOM     13  N   UNL     1      -0.759   1.178  -2.053  0.00  0.00    +0.057 N 
ATOM     14  O   UNL     1       0.011   1.480  -2.946  0.00  0.00    -0.126 OA
ATOM     15  O   UNL     1      -1.907   1.585  -2.075  0.00  0.00    -0.126 OA
ENDBRANCH  12  13
ENDBRANCH   4   7
ENDBRANCH   1   3
BRANCH   1  16
ATOM     16  N   UNL     1      -5.879  -0.324   0.667  0.00  0.00    -0.251 N 
BRANCH  16  20
ATOM     17  C   UNL     1      -9.622   1.437   1.168  0.00  0.00    +0.000 A 
ATOM     18  C   UNL     1      -9.447   0.446   0.220  0.00  0.00    +0.002 A 
ATOM     19  C   UNL     1      -8.208  -0.140   0.051  0.00  0.00    +0.024 A 
ATOM     20  C   UNL     1      -7.136   0.268   0.835  0.00  0.00    +0.040 A 
ATOM     21  C   UNL     1      -7.317   1.259   1.791  0.00  0.00    +0.024 A 
ATOM     22  C   UNL     1      -8.557   1.845   1.950  0.00  0.00    +0.002 A 
ENDBRANCH  16  20
BRANCH  16  23
ATOM     23  C   UNL     1      -5.738  -1.712   0.778  0.00  0.00    +0.040 A 
ATOM     24  C   UNL     1      -5.192  -2.442  -0.270  0.00  0.00    +0.024 A 
ATOM     25  C   UNL     1      -5.048  -3.810  -0.156  0.00  0.00    +0.002 A 
ATOM     26  C   UNL     1      -5.459  -4.456   0.997  0.00  0.00    +0.000 A 
ATOM     27  C   UNL     1      -6.008  -3.733   2.040  0.00  0.00    +0.002 A 
ATOM     28  C   UNL     1      -6.149  -2.363   1.933  0.00  0.00    +0.024 A 
ENDBRANCH  16  23
ENDBRANCH   1  16
TORSDOF 6
