REMARK  Name = ZINC20343919
REMARK  5 active torsions:
REMARK  status: ('A' for Active; 'I' for Inactive)
REMARK    1  A    between atoms: C_1  and  C_2
REMARK    2  A    between atoms: N_9  and  C_10
REMARK    3  A    between atoms: N_18  and  C_19
REMARK    4  A    between atoms: C_19  and  C_20
REMARK    5  A    between atoms: C_20  and  C_21
REMARK                            x       y       z     vdW  Elec       q    Type
REMARK                         _______ _______ _______ _____ _____    ______ ____
ROOT
ATOM      1  C   UNL     1      -3.279   6.138   3.507  0.00  0.00    +0.053 C 
ATOM      2  C   UNL     1      -3.137   4.720   3.019  0.00  0.00    +0.007 A 
ATOM      3  C   UNL     1      -2.498   3.688   3.615  0.00  0.00    +0.058 A 
ATOM      4  C   UNL     1      -2.517   2.463   2.953  0.00  0.00    +0.140 A 
ATOM      5  N   UNL     1      -1.929   1.396   3.455  0.00  0.00    -0.283 NA
ATOM      6  N   UNL     1      -3.178   2.423   1.745  0.00  0.00    -0.237 N 
ATOM      7  S   UNL     1      -3.752   4.021   1.560  0.00  0.00    -0.008 S 
ATOM      8  C   UNL     1      -3.341   1.352   0.896  0.00  0.00    +0.186 C 
ATOM      9  N   UNL     1      -2.392   1.039   0.045  0.00  0.00    -0.286 N 
ATOM     10  N   UNL     1      -4.497   0.612   0.938  0.00  0.00    -0.358 N 
ATOM     11  H   UNL     1      -1.409   1.468   4.271  0.00  0.00    +0.188 HD
ATOM     12  H   UNL     1      -5.293   0.875   1.650  0.00  0.00    +0.162 HD
ATOM     13  H   UNL     1      -2.540   0.212  -0.665  0.00  0.00    +0.155 HD
ENDROOT
BRANCH   9  14
ATOM     14  C   UNL     1      -1.215   1.741   0.042  0.00  0.00    +0.035 A 
ATOM     15  C   UNL     1      -1.225   3.123  -0.158  0.00  0.00    +0.026 A 
ATOM     16  C   UNL     1      -0.037   3.825  -0.165  0.00  0.00    +0.041 A 
ATOM     17  C   UNL     1       1.164   3.163   0.031  0.00  0.00    +0.142 A 
ATOM     18  C   UNL     1       1.179   1.792   0.235  0.00  0.00    +0.078 A 
ATOM     19  C   UNL     1      -0.003   1.079   0.245  0.00  0.00    +0.046 A 
ATOM     20 CL   UNL     1       2.689   0.969   0.480  0.00  0.00    -0.081 Cl
ATOM     21  F   UNL     1       2.324   3.855   0.023  0.00  0.00    -0.204 F 
ENDBRANCH   9  14
BRANCH  10  22
ATOM     22  C   UNL     1      -4.670  -0.528   0.033  0.00  0.00    +0.119 C 
BRANCH  22  23
ATOM     23  C   UNL     1      -6.034  -1.174   0.284  0.00  0.00    +0.051 C 
BRANCH  23  24
ATOM     24  C   UNL     1      -6.213  -2.346  -0.647  0.00  0.00    -0.072 C 
ATOM     25  C   UNL     1      -5.906  -3.524  -0.205  0.00  0.00    -0.028 C 
ATOM     26  C   UNL     1      -6.021  -4.782  -1.015  0.00  0.00    +0.027 C 
ATOM     27  C   UNL     1      -6.922  -4.546  -2.229  0.00  0.00    +0.004 C 
ATOM     28  C   UNL     1      -6.454  -3.271  -2.941  0.00  0.00    +0.005 C 
ATOM     29  C   UNL     1      -6.741  -2.077  -2.025  0.00  0.00    +0.030 C 
ENDBRANCH  23  24
ENDBRANCH  22  23
ENDBRANCH  10  22
TORSDOF 4
