REMARK  Name = ZINC21232722
REMARK  7 active torsions:
REMARK  status: ('A' for Active; 'I' for Inactive)
REMARK    1  A    between atoms: C_1  and  O_2
REMARK    2  A    between atoms: O_2  and  C_3
REMARK    3  A    between atoms: C_6  and  O_37
REMARK    4  A    between atoms: C_7  and  C_9
REMARK    5  A    between atoms: C_14  and  C_24
REMARK    6  A    between atoms: C_28  and  N_30
REMARK    7  A    between atoms: O_37  and  C_38
REMARK                            x       y       z     vdW  Elec       q    Type
REMARK                         _______ _______ _______ _____ _____    ______ ____
ROOT
ATOM      1  C   UNL     1      -4.346   5.176   2.626  0.00  0.00    +0.036 C 
ATOM      2  C   UNL     1      -3.971   5.087   1.148  0.00  0.00    +0.060 C 
ATOM      3  C   UNL     1      -3.363   3.727   0.849  0.00  0.00    +0.017 C 
ATOM      4  C   UNL     1      -3.767   2.636   1.523  0.00  0.00    +0.036 C 
ATOM      5  C   UNL     1      -3.257   1.230   1.319  0.00  0.00    +0.136 C 
ATOM      6  N   UNL     1      -2.448   1.048   0.133  0.00  0.00    -0.331 N 
ATOM      7  C   UNL     1      -1.216   1.688  -0.007  0.00  0.00    +0.049 A 
ATOM      8  C   UNL     1      -0.028   0.976  -0.014  0.00  0.00    +0.025 A 
ATOM      9  C   UNL     1       1.175   1.662  -0.042  0.00  0.00    +0.002 A 
ATOM     10  C   UNL     1       1.191   3.045  -0.063  0.00  0.00    +0.002 A 
ATOM     11  C   UNL     1       0.004   3.757  -0.076  0.00  0.00    +0.025 A 
ATOM     12  C   UNL     1      -1.199   3.073  -0.059  0.00  0.00    +0.052 A 
ATOM     13  N   UNL     1      -2.425   3.723  -0.132  0.00  0.00    -0.316 N 
ATOM     14  C   UNL     1      -4.750   2.748   2.534  0.00  0.00    +0.163 C 
ATOM     15  O   UNL     1      -5.114   1.743   3.112  0.00  0.00    -0.292 OA
ATOM     16  C   UNL     1      -5.359   4.063   2.918  0.00  0.00    +0.088 C 
ATOM     17  H   UNL     1      -2.801   0.395  -0.679  0.00  0.00    +0.147 HD
ATOM     18  H   UNL     1      -2.611   4.263  -1.072  0.00  0.00    +0.152 HD
ENDROOT
BRANCH   5  19
ATOM     19  C   UNL     1      -2.433   0.843   2.520  0.00  0.00    -0.021 A 
ATOM     20  C   UNL     1      -1.272   1.535   2.813  0.00  0.00    +0.007 A 
ATOM     21  C   UNL     1      -0.516   1.181   3.914  0.00  0.00    +0.022 A 
ATOM     22  C   UNL     1      -0.920   0.133   4.723  0.00  0.00    +0.071 A 
ATOM     23  C   UNL     1      -2.081  -0.559   4.429  0.00  0.00    +0.145 A 
ATOM     24  C   UNL     1      -2.840  -0.200   3.330  0.00  0.00    +0.040 A 
ATOM     25 CL   UNL     1       0.030  -0.312   6.106  0.00  0.00    -0.081 Cl
BRANCH  23  26
ATOM     26  N   UNL     1      -2.513  -1.680   5.293  0.00  0.00    +0.058 N 
ATOM     27  O   UNL     1      -3.536  -2.289   5.034  0.00  0.00    -0.126 OA
ATOM     28  O   UNL     1      -1.847  -1.993   6.263  0.00  0.00    -0.126 OA
ENDBRANCH  23  26
ENDBRANCH   5  19
BRANCH   1  33
ATOM     29  C   UNL     1      -6.684   8.143   2.525  0.00  0.00    +0.121 A 
ATOM     30  C   UNL     1      -6.095   8.992   3.450  0.00  0.00    +0.049 A 
ATOM     31  C   UNL     1      -4.943   8.606   4.106  0.00  0.00    +0.049 A 
ATOM     32  C   UNL     1      -4.375   7.369   3.840  0.00  0.00    +0.124 A 
ATOM     33  C   UNL     1      -4.964   6.520   2.915  0.00  0.00    +0.002 A 
ATOM     34  C   UNL     1      -6.114   6.908   2.255  0.00  0.00    +0.053 A 
BRANCH  29  36
ATOM     35  C   UNL     1      -8.349   9.810   2.201  0.00  0.00    +0.277 C 
ATOM     36  O   UNL     1      -7.819   8.523   1.878  0.00  0.00    -0.495 OA
ENDBRANCH  29  36
BRANCH  32  37
ATOM     37  O   UNL     1      -3.240   6.989   4.486  0.00  0.00    -0.495 OA
ATOM     38  C   UNL     1      -2.688   7.913   5.425  0.00  0.00    +0.277 C 
ENDBRANCH  32  37
ENDBRANCH   1  33
TORSDOF 5
