REMARK  Name = ZINC12882361
REMARK  7 active torsions:
REMARK  status: ('A' for Active; 'I' for Inactive)
REMARK    1  A    between atoms: C_1  and  C_2
REMARK    2  A    between atoms: C_2  and  C_3
REMARK    3  A    between atoms: C_14  and  C_16
REMARK    4  A    between atoms: C_16  and  C_17
REMARK    5  A    between atoms: N_25  and  C_28
REMARK    6  A    between atoms: C_28  and  C_29
REMARK    7  A    between atoms: C_29  and  C_30
REMARK                            x       y       z     vdW  Elec       q    Type
REMARK                         _______ _______ _______ _____ _____    ______ ____
ROOT
ATOM      1  C   UNL     1      -5.119   3.429   6.193  0.00  0.00    -0.047 A 
ATOM      2  C   UNL     1      -6.387   3.042   5.803  0.00  0.00    +0.005 A 
ATOM      3  C   UNL     1      -6.561   2.247   4.689  0.00  0.00    +0.024 A 
ATOM      4  C   UNL     1      -5.459   1.828   3.948  0.00  0.00    +0.036 A 
ATOM      5  C   UNL     1      -4.187   2.225   4.349  0.00  0.00    -0.027 A 
ATOM      6  C   UNL     1      -4.018   3.018   5.463  0.00  0.00    +0.008 A 
ATOM      7  C   UNL     1      -3.235   1.619   3.357  0.00  0.00    +0.050 C 
ATOM      8  C   UNL     1      -2.409   2.695   2.641  0.00  0.00    +0.088 C 
ATOM      9  C   UNL     1      -1.054   2.719   3.402  0.00  0.00    +0.073 C 
ATOM     10  C   UNL     1      -1.198   1.645   4.501  0.00  0.00    -0.053 C 
ATOM     11  C   UNL     1      -0.063   2.242   2.365  0.00  0.00    +0.224 C 
ATOM     12  O   UNL     1       1.127   2.103   2.545  0.00  0.00    -0.275 OA
ATOM     13  N   UNL     1      -0.704   1.998   1.216  0.00  0.00    -0.241 N 
ATOM     14  C   UNL     1      -2.022   2.226   1.256  0.00  0.00    +0.225 C 
ATOM     15  O   UNL     1      -2.787   2.078   0.328  0.00  0.00    -0.275 OA
ATOM     16  C   UNL     1      -4.105   0.862   2.392  0.00  0.00    +0.211 C 
ATOM     17  O   UNL     1      -3.734   0.222   1.431  0.00  0.00    -0.277 OA
ATOM     18  N   UNL     1      -5.377   1.033   2.802  0.00  0.00    -0.286 N 
ATOM     19  H   UNL     1      -6.147   0.649   2.354  0.00  0.00    +0.155 HD
ATOM     20  N   UNL     1      -2.257   0.767   4.012  0.00  0.00    +0.394 N 
ATOM     21  H   UNL     1      -1.874   0.088   3.343  0.00  0.00    -0.083 HD
ATOM     22  H   UNL     1      -2.692   0.266   4.796  0.00  0.00    -0.083 HD
ENDROOT
BRANCH   1  24
ATOM     23  C   UNL     1      -4.766   3.411   8.648  0.00  0.00    +0.009 C 
ATOM     24  C   UNL     1      -4.935   4.297   7.412  0.00  0.00    +0.032 C 
ENDBRANCH   1  24
BRANCH  10  25
ATOM     25  C   UNL     1       0.123   0.897   4.690  0.00  0.00    +0.020 C 
BRANCH  25  26
ATOM     26  C   UNL     1      -0.002  -0.059   5.848  0.00  0.00    -0.049 A 
ATOM     27  C   UNL     1       0.322   0.356   7.126  0.00  0.00    +0.003 A 
ATOM     28  C   UNL     1       0.202  -0.520   8.188  0.00  0.00    +0.000 A 
ATOM     29  C   UNL     1      -0.232  -1.815   7.971  0.00  0.00    +0.000 A 
ATOM     30  C   UNL     1      -0.551  -2.231   6.693  0.00  0.00    +0.000 A 
ATOM     31  C   UNL     1      -0.436  -1.354   5.631  0.00  0.00    +0.003 A 
ENDBRANCH  25  26
ENDBRANCH  10  25
BRANCH  13  32
ATOM     32  C   UNL     1      -0.019   1.526   0.010  0.00  0.00    +0.121 C 
BRANCH  32  33
ATOM     33  C   UNL     1       0.002  -0.004   0.002  0.00  0.00    +0.054 C 
BRANCH  33  34
ATOM     34  C   UNL     1       0.707  -0.490  -1.238  0.00  0.00    -0.046 A 
ATOM     35  C   UNL     1      -0.012  -0.729  -2.394  0.00  0.00    +0.004 A 
ATOM     36  C   UNL     1       0.635  -1.170  -3.532  0.00  0.00    +0.000 A 
ATOM     37  C   UNL     1       2.001  -1.383  -3.512  0.00  0.00    +0.000 A 
ATOM     38  C   UNL     1       2.720  -1.148  -2.355  0.00  0.00    +0.000 A 
ATOM     39  C   UNL     1       2.073  -0.702  -1.218  0.00  0.00    +0.004 A 
ENDBRANCH  33  34
ENDBRANCH  32  33
ENDBRANCH  13  32
TORSDOF 6
