REMARK  Name = ZINC03205711
REMARK  8 active torsions:
REMARK  status: ('A' for Active; 'I' for Inactive)
REMARK    1  A    between atoms: C_1  and  C_2
REMARK    2  A    between atoms: C_5  and  N_8
REMARK    3  A    between atoms: N_8  and  C_9
REMARK    4  A    between atoms: C_9  and  N_11
REMARK    5  A    between atoms: N_11  and  N_12
REMARK    6  A    between atoms: N_12  and  P_13
REMARK    7  A    between atoms: C_16  and  C_26
REMARK    8  A    between atoms: C_18  and  C_20
REMARK                            x       y       z     vdW  Elec       q    Type
REMARK                         _______ _______ _______ _____ _____    ______ ____
ROOT
ATOM      1  P   UNL     1       1.119  -5.752  -1.602  0.00  0.00    +0.214 P 
ATOM      2  O   UNL     1       2.236  -6.722  -1.645  0.00  0.00    -0.294 OA
ATOM      3  C   UNL     1       1.110  -4.728  -3.115  0.00  0.00    +0.107 C 
ATOM      4  C   UNL     1      -0.077  -4.602  -3.727  0.00  0.00    +0.140 C 
ATOM      5  O   UNL     1      -1.213  -5.155  -3.298  0.00  0.00    -0.454 OA
ATOM      6  C   UNL     1      -1.397  -6.185  -2.468  0.00  0.00    +0.140 C 
ATOM      7  C   UNL     1      -0.483  -6.631  -1.600  0.00  0.00    +0.107 C 
ENDROOT
BRANCH   6   8
ATOM      8  C   UNL     1      -2.704  -6.880  -2.512  0.00  0.00    +0.017 A 
ATOM      9  C   UNL     1      -2.948  -7.966  -1.671  0.00  0.00    +0.011 A 
ATOM     10  C   UNL     1      -4.169  -8.607  -1.714  0.00  0.00    +0.001 A 
ATOM     11  C   UNL     1      -5.146  -8.182  -2.595  0.00  0.00    +0.000 A 
ATOM     12  C   UNL     1      -4.908  -7.109  -3.436  0.00  0.00    +0.001 A 
ATOM     13  C   UNL     1      -3.693  -6.457  -3.399  0.00  0.00    +0.011 A 
ENDBRANCH   6   8
BRANCH   4  14
ATOM     14  C   UNL     1      -0.130  -3.794  -4.967  0.00  0.00    +0.017 A 
ATOM     15  C   UNL     1       1.027  -3.189  -5.457  0.00  0.00    +0.011 A 
ATOM     16  C   UNL     1       0.973  -2.441  -6.616  0.00  0.00    +0.001 A 
ATOM     17  C   UNL     1      -0.228  -2.283  -7.285  0.00  0.00    +0.000 A 
ATOM     18  C   UNL     1      -1.379  -2.877  -6.800  0.00  0.00    +0.001 A 
ATOM     19  C   UNL     1      -1.337  -3.631  -5.646  0.00  0.00    +0.011 A 
ENDBRANCH   4  14
BRANCH   1  20
ATOM     20  N   UNL     1       1.250  -4.775  -0.237  0.00  0.00    -0.182 NA
ATOM     21  H   UNL     1       1.159  -5.320   0.607  0.00  0.00    +0.153 HD
BRANCH  20  22
ATOM     22  N   UNL     1       2.424  -4.077  -0.245  0.00  0.00    -0.256 N 
ATOM     23  H   UNL     1       3.268  -4.548  -0.329  0.00  0.00    +0.168 HD
BRANCH  22  24
ATOM     24  C   UNL     1       2.410  -2.734  -0.137  0.00  0.00    +0.149 C 
ATOM     25  S   UNL     1       3.881  -1.859  -0.147  0.00  0.00    -0.017 S 
BRANCH  24  26
ATOM     26  N   UNL     1       1.237  -2.079  -0.021  0.00  0.00    -0.296 N 
ATOM     27  H   UNL     1       0.410  -2.578   0.066  0.00  0.00    +0.154 HD
BRANCH  26  32
ATOM     28  C   UNL     1       1.141   3.593  -0.038  0.00  0.00    +0.044 C 
ATOM     29  C   UNL     1       1.166   2.086  -0.033  0.00  0.00    -0.050 A 
ATOM     30  C   UNL     1       1.985   1.407  -0.918  0.00  0.00    +0.005 A 
ATOM     31  C   UNL     1       2.011   0.026  -0.916  0.00  0.00    +0.023 A 
ATOM     32  C   UNL     1       1.214  -0.680  -0.025  0.00  0.00    +0.033 A 
ATOM     33  C   UNL     1       0.393   0.004   0.862  0.00  0.00    +0.023 A 
ATOM     34  C   UNL     1       0.372   1.385   0.855  0.00  0.00    +0.005 A 
ENDBRANCH  26  32
ENDBRANCH  24  26
ENDBRANCH  22  24
ENDBRANCH  20  22
ENDBRANCH   1  20
TORSDOF 7
