REMARK  Name = ZINC14198493
REMARK  10 active torsions:
REMARK  status: ('A' for Active; 'I' for Inactive)
REMARK    1  A    between atoms: C_1  and  C_2
REMARK    2  A    between atoms: C_2  and  C_3
REMARK    3  A    between atoms: C_3  and  C_5
REMARK    4  A    between atoms: C_3  and  C_6
REMARK    5  A    between atoms: C_6  and  C_7
REMARK    6  A    between atoms: C_8  and  C_29
REMARK    7  A    between atoms: C_16  and  S_18
REMARK    8  A    between atoms: S_18  and  C_19
REMARK    9  A    between atoms: C_19  and  C_20
REMARK   10  A    between atoms: C_23  and  C_26
REMARK                            x       y       z     vdW  Elec       q    Type
REMARK                         _______ _______ _______ _____ _____    ______ ____
ROOT
ATOM      1  C   UNL     1       1.271  -8.624  -0.575  0.00  0.00    -0.023 A 
ATOM      2  C   UNL     1       1.286  -8.895   0.739  0.00  0.00    -0.007 A 
ATOM      3  S   UNL     1       1.279  -7.280   1.495  0.00  0.00    -0.073 S 
ATOM      4  C   UNL     1       1.256  -6.287   0.024  0.00  0.00    +0.117 A 
ATOM      5  C   UNL     1       1.254  -7.239  -1.013  0.00  0.00    +0.075 A 
ATOM      6  C   UNL     1       1.237  -6.710  -2.342  0.00  0.00    +0.261 A 
ATOM      7  O   UNL     1       1.235  -7.459  -3.305  0.00  0.00    -0.267 OA
ATOM      8  N   UNL     1       1.219  -5.376  -2.517  0.00  0.00    -0.301 N 
ATOM      9  H   UNL     1       1.203  -5.014  -3.417  0.00  0.00    +0.171 HD
ATOM     10  C   UNL     1       1.227  -4.523  -1.452  0.00  0.00    +0.170 A 
ATOM     11  N   UNL     1       1.243  -4.982  -0.217  0.00  0.00    -0.216 NA
ATOM     12  C   UNL     1       1.304 -10.242   1.414  0.00  0.00    +0.052 C 
ENDROOT
BRANCH   1  13
ATOM     13  C   UNL     1       1.272  -9.743  -1.584  0.00  0.00    +0.040 C 
BRANCH  13  14
ATOM     14  C   UNL     1      -0.170 -10.135  -1.912  0.00  0.00    -0.010 C 
ATOM     15  C   UNL     1      -0.838 -10.716  -0.664  0.00  0.00    +0.008 C 
BRANCH  14  17
ATOM     16  C   UNL     1      -1.615 -11.483  -3.441  0.00  0.00    +0.004 C 
ATOM     17  C   UNL     1      -0.173 -11.183  -3.026  0.00  0.00    +0.000 C 
ENDBRANCH  14  17
ENDBRANCH  13  14
ENDBRANCH   1  13
BRANCH  10  18
ATOM     18  S   UNL     1       1.210  -2.783  -1.732  0.00  0.00    -0.083 S 
BRANCH  18  19
ATOM     19  C   UNL     1       1.221  -2.189  -0.022  0.00  0.00    +0.112 C 
BRANCH  19  20
ATOM     20  C   UNL     1       1.208  -0.682  -0.013  0.00  0.00    -0.037 A 
ATOM     21  C   UNL     1       0.002  -0.004   0.002  0.00  0.00    +0.005 A 
ATOM     22  C   UNL     1      -0.017   1.375   0.010  0.00  0.00    +0.013 A 
ATOM     23  C   UNL     1       1.184   2.087   0.002  0.00  0.00    +0.037 A 
ATOM     24  C   UNL     1       2.397   1.396  -0.013  0.00  0.00    +0.013 A 
ATOM     25  C   UNL     1       2.402   0.016  -0.021  0.00  0.00    +0.005 A 
BRANCH  23  26
ATOM     26  C   UNL     1       1.172   3.565   0.011  0.00  0.00    +0.242 C 
ATOM     27  O   UNL     1       0.114   4.164   0.024  0.00  0.00    -0.270 OA
ATOM     28  N   UNL     1       2.333   4.249   0.003  0.00  0.00    -0.325 N 
ATOM     29  H   UNL     1       3.177   3.771  -0.008  0.00  0.00    +0.145 HD
ATOM     30  H   UNL     1       2.325   5.219   0.009  0.00  0.00    +0.145 HD
ENDBRANCH  23  26
ENDBRANCH  19  20
ENDBRANCH  18  19
ENDBRANCH  10  18
TORSDOF 7
