REMARK  Name = ZINC64368161
REMARK  8 active torsions:
REMARK  status: ('A' for Active; 'I' for Inactive)
REMARK    1  A    between atoms: C_1  and  C_2
REMARK    2  A    between atoms: C_2  and  C_3
REMARK    3  A    between atoms: C_3  and  C_4
REMARK    4  A    between atoms: C_3  and  S_11
REMARK    5  A    between atoms: S_11  and  C_12
REMARK    6  A    between atoms: N_16  and  N_17
REMARK    7  A    between atoms: C_19  and  C_24
REMARK    8  A    between atoms: C_21  and  C_23
REMARK                            x       y       z     vdW  Elec       q    Type
REMARK                         _______ _______ _______ _____ _____    ______ ____
ROOT
ATOM      1  C   UNL     1      -2.066   1.826  -1.281  0.00  0.00    +0.210 A 
ATOM      2  N   UNL     1      -1.502   2.509  -0.314  0.00  0.00    -0.119 NA
ATOM      3  N   UNL     1      -1.551   3.766  -0.577  0.00  0.00    -0.106 NA
ATOM      4  C   UNL     1      -2.148   3.961  -1.724  0.00  0.00    +0.270 A 
ATOM      5  N   UNL     1      -2.493   2.729  -2.216  0.00  0.00    -0.208 N 
ATOM      6  N   UNL     1      -2.386   5.193  -2.336  0.00  0.00    -0.201 N 
ATOM      7  C   UNL     1      -2.031   6.410  -1.848  0.00  0.00    +0.045 A 
ATOM      8  C   UNL     1      -2.441   7.343  -2.738  0.00  0.00    +0.048 A 
ATOM      9  C   UNL     1      -3.064   6.681  -3.802  0.00  0.00    +0.061 A 
ATOM     10  N   UNL     1      -3.026   5.394  -3.565  0.00  0.00    -0.169 NA
ATOM     11  C   UNL     1      -3.670   7.337  -5.016  0.00  0.00    +0.067 C 
ATOM     12  C   UNL     1      -1.313   6.674  -0.549  0.00  0.00    +0.066 C 
ENDROOT
BRANCH   5  13
ATOM     13  N   UNL     1      -3.132   2.459  -3.393  0.00  0.00    -0.293 N 
ATOM     14  H   UNL     1      -4.133   2.448  -3.267  0.00  0.00    +0.163 HD
ATOM     15  H   UNL     1      -2.865   3.119  -4.109  0.00  0.00    +0.163 HD
ENDBRANCH   5  13
BRANCH   1  16
ATOM     16  S   UNL     1      -2.236   0.074  -1.365  0.00  0.00    -0.076 S 
BRANCH  16  17
ATOM     17  C   UNL     1      -1.385  -0.520   0.123  0.00  0.00    +0.084 C 
BRANCH  17  18
ATOM     18  C   UNL     1      -2.160  -0.102   1.346  0.00  0.00    -0.034 A 
ATOM     19  C   UNL     1      -3.463  -0.530   1.518  0.00  0.00    +0.006 A 
ATOM     20  C   UNL     1      -4.174  -0.147   2.639  0.00  0.00    +0.020 A 
ATOM     21  C   UNL     1      -3.582   0.666   3.590  0.00  0.00    +0.041 A 
ATOM     22  C   UNL     1      -2.278   1.094   3.417  0.00  0.00    +0.020 A 
ATOM     23  C   UNL     1      -1.566   0.706   2.298  0.00  0.00    +0.006 A 
ATOM     24 CL   UNL     1      -4.475   1.149   4.998  0.00  0.00    -0.084 Cl
ENDBRANCH  17  18
BRANCH  17  26
ATOM     25  C   UNL     1      -0.383  -2.466  -1.082  0.00  0.00    +0.005 C 
ATOM     26  C   UNL     1      -1.287  -2.046   0.079  0.00  0.00    +0.016 C 
ENDBRANCH  17  26
ENDBRANCH  16  17
ENDBRANCH   1  16
TORSDOF 5
