REMARK  Name = ZINC35471842
REMARK  4 active torsions:
REMARK  status: ('A' for Active; 'I' for Inactive)
REMARK    1  A    between atoms: C_1  and  C_2
REMARK    2  A    between atoms: C_5  and  N_8
REMARK    3  A    between atoms: C_14  and  C_21
REMARK    4  A    between atoms: N_19  and  C_20
REMARK                            x       y       z     vdW  Elec       q    Type
REMARK                         _______ _______ _______ _____ _____    ______ ____
ROOT
ATOM      1  N   UNL     1       0.059  -4.169  -0.021  0.00  0.00    -0.262 N 
ATOM      2  C   UNL     1       0.071  -5.048   1.158  0.00  0.00    +0.165 C 
ATOM      3  C   UNL     1       0.089  -6.452   0.596  0.00  0.00    +0.042 C 
ATOM      4  C   UNL     1       0.087  -6.323  -0.746  0.00  0.00    +0.058 C 
ATOM      5  C   UNL     1       0.064  -4.961  -1.108  0.00  0.00    +0.251 C 
ATOM      6  O   UNL     1       0.053  -4.554  -2.256  0.00  0.00    -0.270 OA
ATOM      7  C   UNL     1       0.103  -7.591  -1.575  0.00  0.00    +0.142 C 
ATOM      8  N   UNL     1       0.120  -8.868  -0.841  0.00  0.00    -0.288 N 
ATOM      9  C   UNL     1       0.121  -8.834   0.506  0.00  0.00    +0.307 C 
ATOM     10  O   UNL     1       0.135  -9.882   1.121  0.00  0.00    -0.252 OA
ATOM     11  N   UNL     1       0.106  -7.682   1.190  0.00  0.00    -0.260 N 
ATOM     12  C   UNL     1       0.108  -7.745   2.653  0.00  0.00    +0.139 C 
ATOM     13  H   UNL     1       0.131  -9.713  -1.316  0.00  0.00    +0.151 HD
ENDROOT
BRANCH   1  18
ATOM     14  C   UNL     1      -0.018   1.503   0.010  0.00  0.00    +0.044 C 
ATOM     15  C   UNL     1       0.002  -0.004   0.002  0.00  0.00    -0.050 A 
ATOM     16  C   UNL     1       0.006  -0.687  -1.200  0.00  0.00    +0.005 A 
ATOM     17  C   UNL     1       0.025  -2.068  -1.211  0.00  0.00    +0.024 A 
ATOM     18  C   UNL     1       0.041  -2.771  -0.013  0.00  0.00    +0.037 A 
ATOM     19  C   UNL     1       0.037  -2.081   1.192  0.00  0.00    +0.024 A 
ATOM     20  C   UNL     1       0.023  -0.700   1.197  0.00  0.00    +0.005 A 
ENDBRANCH   1  18
BRANCH   7  21
ATOM     21  C   UNL     1       1.321  -7.551  -2.463  0.00  0.00    -0.022 A 
ATOM     22  C   UNL     1       2.559  -7.893  -1.953  0.00  0.00    +0.008 A 
ATOM     23  C   UNL     1       3.676  -7.856  -2.767  0.00  0.00    +0.038 A 
ATOM     24  C   UNL     1       3.554  -7.477  -4.092  0.00  0.00    +0.123 A 
ATOM     25  C   UNL     1       2.313  -7.134  -4.602  0.00  0.00    +0.038 A 
ATOM     26  C   UNL     1       1.197  -7.177  -3.788  0.00  0.00    +0.008 A 
ATOM     27  F   UNL     1       4.645  -7.440  -4.888  0.00  0.00    -0.205 F 
ENDBRANCH   7  21
TORSDOF 2
