REMARK  Name = ZINC45724973
REMARK  12 active torsions:
REMARK  status: ('A' for Active; 'I' for Inactive)
REMARK    1  A    between atoms: C_1  and  C_2
REMARK    2  A    between atoms: C_2  and  C_3
REMARK    3  A    between atoms: C_3  and  C_4
REMARK    4  A    between atoms: C_4  and  C_5
REMARK    5  A    between atoms: C_8  and  C_11
REMARK    6  A    between atoms: C_11  and  C_13
REMARK    7  A    between atoms: C_11  and  N_16
REMARK    8  A    between atoms: C_13  and  C_14
REMARK    9  A    between atoms: C_13  and  C_15
REMARK   10  A    between atoms: N_19  and  C_20
REMARK   11  A    between atoms: C_25  and  C_26
REMARK   12  A    between atoms: C_26  and  C_27
REMARK                            x       y       z     vdW  Elec       q    Type
REMARK                         _______ _______ _______ _____ _____    ______ ____
ROOT
ATOM      1  N   UNL     1       4.444  -4.894  -5.642  0.00  0.00    -0.292 N 
ATOM      2  C   UNL     1       4.850  -5.811  -6.542  0.00  0.00    +0.304 C 
ATOM      3  O   UNL     1       4.375  -5.817  -7.661  0.00  0.00    -0.252 OA
ATOM      4  N   UNL     1       5.784  -6.722  -6.202  0.00  0.00    -0.269 N 
ATOM      5  H   UNL     1       4.823  -4.890  -4.749  0.00  0.00    +0.151 HD
ATOM      6  H   UNL     1       6.222  -6.668  -5.338  0.00  0.00    +0.156 HD
ENDROOT
BRANCH   4   7
ATOM      7  C   UNL     1       6.121  -7.745  -7.095  0.00  0.00    +0.038 A 
ATOM      8  C   UNL     1       5.209  -8.157  -8.058  0.00  0.00    +0.023 A 
ATOM      9  C   UNL     1       5.545  -9.167  -8.938  0.00  0.00    +0.002 A 
ATOM     10  C   UNL     1       6.787  -9.769  -8.860  0.00  0.00    +0.000 A 
ATOM     11  C   UNL     1       7.697  -9.362  -7.901  0.00  0.00    +0.006 A 
ATOM     12  C   UNL     1       7.369  -8.348  -7.022  0.00  0.00    -0.017 A 
BRANCH  12  13
ATOM     13  C   UNL     1       8.364  -7.901  -5.982  0.00  0.00    +0.132 C 
BRANCH  13  14
ATOM     14  C   UNL     1       8.099  -8.628  -4.689  0.00  0.00    +0.215 C 
ATOM     15  O   UNL     1       7.192  -9.430  -4.619  0.00  0.00    -0.276 OA
ATOM     16  N   UNL     1       8.870  -8.386  -3.610  0.00  0.00    -0.329 N 
ATOM     17  H   UNL     1       9.595  -7.745  -3.666  0.00  0.00    +0.145 HD
ATOM     18  H   UNL     1       8.699  -8.854  -2.777  0.00  0.00    +0.145 HD
ENDBRANCH  13  14
ENDBRANCH  12  13
ENDBRANCH   4   7
BRANCH   1  19
ATOM     19  C   UNL     1       3.429  -3.904  -6.012  0.00  0.00    +0.107 C 
BRANCH  19  23
ATOM     20  C   UNL     1       1.406  -2.560  -2.498  0.00  0.00    -0.047 A 
ATOM     21  C   UNL     1       0.694  -2.784  -3.662  0.00  0.00    +0.004 A 
ATOM     22  C   UNL     1       1.349  -3.219  -4.799  0.00  0.00    +0.006 A 
ATOM     23  C   UNL     1       2.715  -3.429  -4.773  0.00  0.00    -0.027 A 
ATOM     24  C   UNL     1       3.426  -3.204  -3.609  0.00  0.00    +0.006 A 
ATOM     25  C   UNL     1       2.772  -2.765  -2.473  0.00  0.00    +0.004 A 
BRANCH  20  26
ATOM     26  C   UNL     1       0.692  -2.086  -1.259  0.00  0.00    +0.035 C 
BRANCH  26  27
ATOM     27  C   UNL     1       0.663  -0.556  -1.240  0.00  0.00    +0.004 C 
BRANCH  27  29
ATOM     28  C   UNL     1      -0.090   1.455   0.037  0.00  0.00    +0.004 C 
ATOM     29  C   UNL     1      -0.061  -0.074   0.018  0.00  0.00    -0.003 C 
ENDBRANCH  27  29
ENDBRANCH  26  27
ENDBRANCH  20  26
ENDBRANCH  19  23
BRANCH  19  30
ATOM     30  C   UNL     1       4.103  -2.715  -6.700  0.00  0.00    +0.008 C 
ATOM     31  C   UNL     1       5.199  -2.155  -5.791  0.00  0.00    +0.009 C 
ATOM     32  C   UNL     1       4.722  -3.174  -8.022  0.00  0.00    +0.009 C 
ENDBRANCH  19  30
ENDBRANCH   1  19
TORSDOF 9
