REMARK  Name = ZINC10296930
REMARK  4 active torsions:
REMARK  status: ('A' for Active; 'I' for Inactive)
REMARK    1  A    between atoms: C_6  and  C_7
REMARK    2  A    between atoms: N_11  and  C_19
REMARK    3  A    between atoms: C_13  and  C_14
REMARK    4  A    between atoms: C_13  and  C_16
REMARK                            x       y       z     vdW  Elec       q    Type
REMARK                         _______ _______ _______ _____ _____    ______ ____
ROOT
ATOM      1  C   UNL     1       1.296   3.364   0.341  0.00  0.00    +0.028 C 
ATOM      2  C   UNL     1       2.405   4.144   0.275  0.00  0.00    +0.079 A 
ATOM      3  C   UNL     1       2.514   5.605   0.098  0.00  0.00    +0.266 A 
ATOM      4  O   UNL     1       1.528   6.309  -0.017  0.00  0.00    -0.266 OA
ATOM      5  N   UNL     1       3.735   6.114   0.069  0.00  0.00    -0.297 N 
ATOM      6  C   UNL     1       4.836   5.307   0.200  0.00  0.00    +0.112 A 
ATOM      7  C   UNL     1       6.185   5.671   0.194  0.00  0.00    +0.158 C 
ATOM      8  S   UNL     1       4.127   3.679   0.388  0.00  0.00    -0.064 S 
ENDROOT
BRANCH   1  14
ATOM      9  C   UNL     1       2.583   1.479   1.328  0.00  0.00    +0.009 A 
ATOM     10  C   UNL     1       2.686   0.151   1.681  0.00  0.00    +0.016 A 
ATOM     11  C   UNL     1       1.635  -0.718   1.435  0.00  0.00    +0.018 A 
ATOM     12  C   UNL     1       0.475  -0.261   0.833  0.00  0.00    +0.016 A 
ATOM     13  C   UNL     1       0.357   1.065   0.474  0.00  0.00    +0.009 A 
ATOM     14  C   UNL     1       1.414   1.949   0.720  0.00  0.00    -0.024 A 
ATOM     15 BR   UNL     1       1.787  -2.539   1.923  0.00  0.00    -0.050 Br
ENDBRANCH   1  14
BRANCH   5  16
ATOM     16  C   UNL     1       3.913   7.558  -0.104  0.00  0.00    +0.091 C 
ATOM     17  C   UNL     1       3.074   8.249  -1.182  0.00  0.00    +0.027 C 
ATOM     18  C   UNL     1       4.574   8.038  -1.397  0.00  0.00    +0.027 C 
ENDBRANCH   5  16
BRANCH   7  19
ATOM     19  C   UNL     1       7.199   4.660   0.196  0.00  0.00    +0.113 C 
ATOM     20  N   UNL     1       8.004   3.858   0.198  0.00  0.00    -0.190 NA
ENDBRANCH   7  19
BRANCH   7  21
ATOM     21  C   UNL     1       6.553   7.055   0.185  0.00  0.00    +0.113 C 
ATOM     22  N   UNL     1       6.845   8.152   0.178  0.00  0.00    -0.190 NA
ENDBRANCH   7  21
TORSDOF 4
