REMARK  Name = ZINC05022500
REMARK  7 active torsions:
REMARK  status: ('A' for Active; 'I' for Inactive)
REMARK    1  A    between atoms: C_1  and  C_2
REMARK    2  A    between atoms: C_3  and  N_9
REMARK    3  A    between atoms: C_4  and  C_8
REMARK    4  A    between atoms: N_11  and  C_28
REMARK    5  A    between atoms: N_16  and  C_26
REMARK    6  A    between atoms: C_19  and  O_24
REMARK    7  A    between atoms: O_24  and  C_25
REMARK                            x       y       z     vdW  Elec       q    Type
REMARK                         _______ _______ _______ _____ _____    ______ ____
ROOT
ATOM      1  N   UNL     1       1.818   3.050   0.003  0.00  0.00    -0.222 NA
ATOM      2  C   UNL     1       1.996   3.681   1.142  0.00  0.00    +0.168 C 
ATOM      3  N   UNL     1       2.353   4.998   1.360  0.00  0.00    -0.249 N 
ATOM      4  C   UNL     1       2.480   5.450   2.595  0.00  0.00    +0.261 C 
ATOM      5  O   UNL     1       2.791   6.613   2.802  0.00  0.00    -0.269 OA
ATOM      6  C   UNL     1       2.257   4.569   3.668  0.00  0.00    +0.106 C 
ATOM      7  C   UNL     1       2.334   4.810   5.032  0.00  0.00    +0.092 C 
ATOM      8  N   UNL     1       2.787   5.928   5.683  0.00  0.00    -0.296 N 
ATOM      9  C   UNL     1       2.782   5.975   7.066  0.00  0.00    +0.052 A 
ATOM     10  C   UNL     1       3.207   7.035   7.885  0.00  0.00    +0.070 A 
ATOM     11  C   UNL     1       3.143   6.938   9.258  0.00  0.00    +0.122 A 
ATOM     12  C   UNL     1       2.657   5.792   9.874  0.00  0.00    +0.047 A 
ATOM     13  C   UNL     1       2.232   4.735   9.089  0.00  0.00    +0.020 A 
ATOM     14  C   UNL     1       2.297   4.834   7.720  0.00  0.00    +0.035 A 
ATOM     15  S   UNL     1       1.861   3.745   6.385  0.00  0.00    -0.071 S 
ATOM     16  C   UNL     1       3.276   7.074   4.913  0.00  0.00    +0.136 C 
ATOM     17  S   UNL     1       1.847   3.057   2.809  0.00  0.00    -0.046 S 
ATOM     18  C   UNL     1       2.587   5.893   0.224  0.00  0.00    +0.140 C 
ENDROOT
BRANCH   1  21
ATOM     19  C   UNL     1      -1.079   2.031   0.019  0.00  0.00    +0.067 C 
ATOM     20  C   UNL     1       0.193   1.223   0.011  0.00  0.00    +0.059 A 
ATOM     21  C   UNL     1       1.465   1.720   0.002  0.00  0.00    +0.109 A 
ATOM     22  C   UNL     1       2.350   0.624  -0.010  0.00  0.00    +0.085 A 
ATOM     23  N   UNL     1       1.643  -0.476  -0.008  0.00  0.00    -0.177 NA
ATOM     24  N   UNL     1       0.285  -0.133   0.005  0.00  0.00    -0.280 N 
ATOM     25  H   UNL     1      -0.482  -0.774   0.009  0.00  0.00    +0.189 HD
ATOM     26  C   UNL     1       3.855   0.706  -0.022  0.00  0.00    +0.070 C 
ENDBRANCH   1  21
BRANCH  11  27
ATOM     27  O   UNL     1       3.562   7.981  10.023  0.00  0.00    -0.495 OA
ATOM     28  C   UNL     1       3.472   7.824  11.440  0.00  0.00    +0.277 C 
ENDBRANCH  11  27
TORSDOF 2
