REMARK  Name = ZINC05697588
REMARK  9 active torsions:
REMARK  status: ('A' for Active; 'I' for Inactive)
REMARK    1  A    between atoms: C_1  and  C_2
REMARK    2  A    between atoms: C_4  and  O_12
REMARK    3  A    between atoms: C_5  and  C_9
REMARK    4  A    between atoms: C_9  and  C_10
REMARK    5  A    between atoms: C_9  and  C_11
REMARK    6  A    between atoms: O_12  and  C_13
REMARK    7  A    between atoms: C_13  and  C_14
REMARK    8  A    between atoms: N_16  and  N_17
REMARK    9  A    between atoms: C_18  and  C_19
REMARK                            x       y       z     vdW  Elec       q    Type
REMARK                         _______ _______ _______ _____ _____    ______ ____
ROOT
ATOM      1  C   UNL     1      -5.827   2.678   0.041  0.00  0.00    +0.270 C 
ATOM      2  O   UNL     1      -5.595   3.868   0.046  0.00  0.00    -0.270 OA
ATOM      3  N   UNL     1      -4.811   1.793   0.032  0.00  0.00    -0.204 N 
ATOM      4  H   UNL     1      -4.996   0.841   0.027  0.00  0.00    +0.177 HD
ENDROOT
BRANCH   3   5
ATOM      5  N   UNL     1      -3.486   2.248   0.029  0.00  0.00    -0.186 NA
ATOM      6  C   UNL     1      -2.505   1.394   0.020  0.00  0.00    +0.156 C 
BRANCH   6   7
ATOM      7  C   UNL     1      -1.117   1.871   0.017  0.00  0.00    +0.060 A 
ATOM      8  C   UNL     1      -0.013   1.076   0.008  0.00  0.00    +0.037 A 
ATOM      9  C   UNL     1       1.149   1.961   0.002  0.00  0.00    +0.000 A 
ATOM     10  C   UNL     1       2.531   1.744  -0.013  0.00  0.00    +0.010 A 
ATOM     11  C   UNL     1       3.385   2.810  -0.015  0.00  0.00    +0.001 A 
ATOM     12  C   UNL     1       2.892   4.108  -0.004  0.00  0.00    +0.002 A 
ATOM     13  C   UNL     1       1.535   4.346   0.010  0.00  0.00    +0.026 A 
ATOM     14  C   UNL     1       0.645   3.277   0.013  0.00  0.00    +0.047 A 
ATOM     15  N   UNL     1      -0.730   3.194   0.026  0.00  0.00    -0.353 N 
ATOM     16  H   UNL     1      -1.334   3.952   0.036  0.00  0.00    +0.166 HD
ENDBRANCH   6   7
ENDBRANCH   3   5
BRANCH   1  17
ATOM     17  C   UNL     1      -7.252   2.188   0.044  0.00  0.00    +0.326 C 
BRANCH  17  18
ATOM     18  O   UNL     1      -8.141   3.308   0.053  0.00  0.00    -0.482 OA
BRANCH  18  22
ATOM     19  C   UNL     1     -11.752   0.024   0.051  0.00  0.00    +0.045 C 
ATOM     20  C   UNL     1     -11.270   1.452   0.057  0.00  0.00    -0.029 A 
ATOM     21  C   UNL     1      -9.915   1.724   0.052  0.00  0.00    +0.050 A 
ATOM     22  C   UNL     1      -9.473   3.038   0.058  0.00  0.00    +0.125 A 
ATOM     23  C   UNL     1     -10.392   4.078   0.073  0.00  0.00    -0.002 A 
ATOM     24  C   UNL     1     -11.745   3.802   0.073  0.00  0.00    +0.027 A 
ATOM     25  C   UNL     1     -12.185   2.490   0.067  0.00  0.00    +0.044 A 
ATOM     26 CL   UNL     1     -13.886   2.146   0.073  0.00  0.00    -0.083 Cl
BRANCH  23  27
ATOM     27  C   UNL     1      -9.913   5.507   0.085  0.00  0.00    +0.016 C 
ATOM     28  C   UNL     1     -10.442   6.232  -1.154  0.00  0.00    +0.012 C 
ATOM     29  C   UNL     1     -10.429   6.207   1.344  0.00  0.00    +0.012 C 
ENDBRANCH  23  27
ENDBRANCH  18  22
ENDBRANCH  17  18
ENDBRANCH   1  17
TORSDOF 6
