REMARK  Name = ZINC03527666
REMARK  8 active torsions:
REMARK  status: ('A' for Active; 'I' for Inactive)
REMARK    1  A    between atoms: C_1  and  C_2
REMARK    2  A    between atoms: N_11  and  C_15
REMARK    3  A    between atoms: C_15  and  C_16
REMARK    4  A    between atoms: N_18  and  C_19
REMARK    5  A    between atoms: C_24  and  C_25
REMARK    6  A    between atoms: C_25  and  C_26
REMARK    7  A    between atoms: C_25  and  C_27
REMARK    8  A    between atoms: C_25  and  C_28
REMARK                            x       y       z     vdW  Elec       q    Type
REMARK                         _______ _______ _______ _____ _____    ______ ____
ROOT
ATOM      1  C   UNL     1       2.333   1.042   0.092  0.00  0.00    +0.214 C 
ENDROOT
BRANCH   1  11
ATOM      2  C   UNL     1      -1.380   1.455  -2.325  0.00  0.00    +0.010 C 
ATOM      3  C   UNL     1      -2.192   0.999  -1.112  0.00  0.00    +0.018 C 
ATOM      4  C   UNL     1      -3.484   1.815  -1.026  0.00  0.00    +0.006 C 
ATOM      5  C   UNL     1      -4.286   1.372   0.199  0.00  0.00    +0.000 C 
ATOM      6  C   UNL     1      -3.459   1.610   1.464  0.00  0.00    +0.003 C 
ATOM      7  C   UNL     1      -2.167   0.792   1.389  0.00  0.00    +0.035 C 
ATOM      8  C   UNL     1      -1.371   1.206   0.156  0.00  0.00    +0.115 C 
ATOM      9  C   UNL     1      -0.077   0.429   0.079  0.00  0.00    +0.247 C 
ATOM     10  O   UNL     1       0.052  -0.772  -0.022  0.00  0.00    -0.273 OA
ATOM     11  N   UNL     1       0.903   1.354   0.140  0.00  0.00    -0.215 N 
ATOM     12  C   UNL     1       0.406   2.592   0.249  0.00  0.00    +0.310 C 
ATOM     13  O   UNL     1       1.093   3.592   0.320  0.00  0.00    -0.252 OA
ATOM     14  N   UNL     1      -0.941   2.605   0.270  0.00  0.00    -0.285 N 
ATOM     15  H   UNL     1      -1.513   3.385   0.343  0.00  0.00    +0.151 HD
ENDBRANCH   1  11
BRANCH   1  16
ATOM     16  C   UNL     1       2.802   1.051  -1.340  0.00  0.00    +0.235 C 
ATOM     17  O   UNL     1       2.018   1.295  -2.233  0.00  0.00    -0.274 OA
ATOM     18  N   UNL     1       4.092   0.789  -1.628  0.00  0.00    -0.284 N 
ATOM     19  H   UNL     1       4.737   0.682  -0.912  0.00  0.00    +0.155 HD
BRANCH  18  20
ATOM     20  C   UNL     1       4.501   0.671  -2.961  0.00  0.00    +0.037 A 
ATOM     21  C   UNL     1       3.608   0.943  -3.990  0.00  0.00    +0.023 A 
ATOM     22  C   UNL     1       4.015   0.826  -5.304  0.00  0.00    +0.002 A 
ATOM     23  C   UNL     1       5.310   0.439  -5.597  0.00  0.00    +0.000 A 
ATOM     24  C   UNL     1       6.202   0.169  -4.576  0.00  0.00    +0.006 A 
ATOM     25  C   UNL     1       5.803   0.289  -3.259  0.00  0.00    -0.021 A 
BRANCH  25  26
ATOM     26  C   UNL     1       6.777   0.000  -2.146  0.00  0.00    -0.011 C 
ATOM     27  C   UNL     1       8.118  -0.431  -2.742  0.00  0.00    +0.015 C 
ATOM     28  C   UNL     1       6.976   1.261  -1.302  0.00  0.00    +0.015 C 
ATOM     29  C   UNL     1       6.226  -1.122  -1.264  0.00  0.00    +0.015 C 
ENDBRANCH  25  26
ENDBRANCH  18  20
ENDBRANCH   1  16
TORSDOF 4
