REMARK  Name = ZINC36897329
REMARK  9 active torsions:
REMARK  status: ('A' for Active; 'I' for Inactive)
REMARK    1  A    between atoms: C_1  and  C_2
REMARK    2  A    between atoms: C_2  and  C_3
REMARK    3  A    between atoms: C_3  and  C_4
REMARK    4  A    between atoms: C_4  and  N_5
REMARK    5  A    between atoms: N_5  and  C_6
REMARK    6  A    between atoms: N_5  and  C_7
REMARK    7  A    between atoms: C_7  and  C_9
REMARK    8  A    between atoms: C_7  and  C_11
REMARK    9  A    between atoms: C_9  and  N_10
REMARK                            x       y       z     vdW  Elec       q    Type
REMARK                         _______ _______ _______ _____ _____    ______ ____
ROOT
ATOM      1  C   UNL     1       1.446  -3.969  -2.476  0.00  0.00    -0.056 C 
ENDROOT
BRANCH   1   2
ATOM      2  C   UNL     1       2.300  -4.578  -3.558  0.00  0.00    -0.058 A 
ATOM      3  C   UNL     1       3.123  -5.650  -3.266  0.00  0.00    +0.051 A 
ATOM      4  C   UNL     1       3.909  -6.212  -4.258  0.00  0.00    +0.168 A 
ATOM      5  C   UNL     1       3.868  -5.694  -5.551  0.00  0.00    +0.180 A 
ATOM      6  C   UNL     1       3.042  -4.620  -5.837  0.00  0.00    +0.063 A 
ATOM      7  C   UNL     1       2.255  -4.067  -4.842  0.00  0.00    +0.021 A 
ATOM      8 BR   UNL     1       2.983  -3.913  -7.590  0.00  0.00    -0.046 Br
ATOM      9  O   UNL     1       4.723  -6.413  -6.335  0.00  0.00    -0.451 OA
ATOM     10  C   UNL     1       5.590  -7.111  -5.421  0.00  0.00    +0.466 C 
ATOM     11  O   UNL     1       4.789  -7.255  -4.234  0.00  0.00    -0.453 OA
ENDBRANCH   1   2
BRANCH   1  12
ATOM     12  N   UNL     1       1.440  -2.507  -2.622  0.00  0.00    +0.381 N 
ATOM     13  C   UNL     1       2.822  -2.008  -2.600  0.00  0.00    -0.095 C 
ATOM     14  H   UNL     1       1.006  -2.258  -3.498  0.00  0.00    -0.081 HD
BRANCH  12  15
ATOM     15  C   UNL     1       0.686  -1.908  -1.513  0.00  0.00    -0.078 C 
BRANCH  15  16
ATOM     16  C   UNL     1       0.556  -0.400  -1.740  0.00  0.00    -0.019 C 
BRANCH  16  18
ATOM     17  C   UNL     1      -0.360   1.731  -0.814  0.00  0.00    +0.004 C 
ATOM     18  C   UNL     1      -0.230   0.224  -0.586  0.00  0.00    -0.005 C 
ENDBRANCH  16  18
ENDBRANCH  15  16
ENDBRANCH  12  15
ENDBRANCH   1  12
BRANCH   1  19
ATOM     19  C   UNL     1       0.015  -4.499  -2.597  0.00  0.00    -0.098 C 
BRANCH  19  20
ATOM     20  N   UNL     1       0.009  -5.949  -2.365  0.00  0.00    +0.377 N 
ATOM     21  H   UNL     1       0.442  -6.150  -1.476  0.00  0.00    -0.090 HD
ATOM     22  H   UNL     1      -0.942  -6.285  -2.360  0.00  0.00    -0.090 HD
ATOM     23  H   UNL     1       0.524  -6.410  -3.102  0.00  0.00    -0.090 HD
ENDBRANCH  19  20
ENDBRANCH   1  19
TORSDOF 7
