REMARK  Name = ZINC51397889
REMARK  5 active torsions:
REMARK  status: ('A' for Active; 'I' for Inactive)
REMARK    1  A    between atoms: C_1  and  C_2
REMARK    2  A    between atoms: C_8  and  N_10
REMARK    3  A    between atoms: N_10  and  C_11
REMARK    4  A    between atoms: C_13  and  C_19
REMARK    5  A    between atoms: C_19  and  N_20
REMARK                            x       y       z     vdW  Elec       q    Type
REMARK                         _______ _______ _______ _____ _____    ______ ____
ROOT
ATOM      1  N   UNL     1       1.988   0.045   1.348  0.00  0.00    -0.315 N 
ATOM      2  C   UNL     1       2.782  -0.161   0.135  0.00  0.00    +0.131 C 
ATOM      3  C   UNL     1       2.485   0.833   2.380  0.00  0.00    +0.123 A 
ATOM      4  C   UNL     1       3.145   0.234   3.448  0.00  0.00    -0.024 A 
ATOM      5  C   UNL     1       3.635   1.029   4.468  0.00  0.00    +0.021 A 
ATOM      6  C   UNL     1       3.449   2.404   4.384  0.00  0.00    +0.036 A 
ATOM      7  C   UNL     1       2.784   2.931   3.294  0.00  0.00    +0.128 A 
ATOM      8  N   UNL     1       2.332   2.147   2.333  0.00  0.00    -0.239 NA
ATOM      9 BR   UNL     1       4.097   3.540   5.749  0.00  0.00    -0.049 Br
ENDROOT
BRANCH   1  16
ATOM     10  C   UNL     1      -0.408   1.532   0.686  0.00  0.00    +0.009 C 
ATOM     11  C   UNL     1      -0.284   0.027   0.443  0.00  0.00    +0.006 C 
ATOM     12  C   UNL     1      -1.662  -0.625   0.575  0.00  0.00    +0.005 C 
ATOM     13  C   UNL     1      -1.539  -2.131   0.331  0.00  0.00    +0.000 C 
ATOM     14  C   UNL     1      -0.586  -2.738   1.363  0.00  0.00    +0.002 C 
ATOM     15  C   UNL     1       0.792  -2.086   1.231  0.00  0.00    +0.023 C 
ATOM     16  C   UNL     1       0.669  -0.580   1.474  0.00  0.00    +0.077 C 
ENDBRANCH   1  16
BRANCH   4  17
ATOM     17  C   UNL     1       3.322  -1.262   3.494  0.00  0.00    -0.047 C 
BRANCH  17  18
ATOM     18  N   UNL     1       4.446  -1.649   2.630  0.00  0.00    +0.381 N 
ATOM     19  H   UNL     1       4.526  -2.655   2.613  0.00  0.00    -0.090 HD
ATOM     20  H   UNL     1       4.283  -1.308   1.694  0.00  0.00    -0.090 HD
ATOM     21  H   UNL     1       5.299  -1.249   2.990  0.00  0.00    -0.090 HD
ENDBRANCH  17  18
ENDBRANCH   4  17
TORSDOF 3
