REMARK  Name = ZINC57317088
REMARK  7 active torsions:
REMARK  status: ('A' for Active; 'I' for Inactive)
REMARK    1  A    between atoms: C_6  and  C_7
REMARK    2  A    between atoms: C_10  and  C_12
REMARK    3  A    between atoms: C_12  and  N_13
REMARK    4  A    between atoms: C_14  and  C_16
REMARK    5  A    between atoms: C_17  and  C_18
REMARK    6  A    between atoms: C_21  and  N_27
REMARK    7  A    between atoms: C_22  and  N_24
REMARK                            x       y       z     vdW  Elec       q    Type
REMARK                         _______ _______ _______ _____ _____    ______ ____
ROOT
ATOM      1  N   UNL     1      -5.383  -0.985   1.423  0.00  0.00    -0.305 N 
ATOM      2  C   UNL     1      -6.697  -0.826   1.680  0.00  0.00    +0.237 C 
ATOM      3  O   UNL     1      -7.489  -0.730   0.761  0.00  0.00    -0.271 OA
ATOM      4  H   UNL     1      -4.752  -1.062   2.156  0.00  0.00    +0.149 HD
ENDROOT
BRANCH   2   5
ATOM      5  C   UNL     1      -7.170  -0.769   3.062  0.00  0.00    +0.068 C 
ATOM      6  C   UNL     1      -8.486  -0.610   3.319  0.00  0.00    +0.013 C 
BRANCH   6   7
ATOM      7  C   UNL     1      -8.962  -0.553   4.708  0.00  0.00    -0.023 A 
ATOM      8  C   UNL     1      -8.052  -0.658   5.766  0.00  0.00    +0.010 A 
ATOM      9  C   UNL     1      -8.496  -0.605   7.057  0.00  0.00    +0.026 A 
ATOM     10  C   UNL     1      -9.853  -0.446   7.326  0.00  0.00    +0.060 A 
ATOM     11  C   UNL     1     -10.766  -0.341   6.280  0.00  0.00    +0.148 A 
ATOM     12  C   UNL     1     -10.327  -0.388   4.976  0.00  0.00    +0.042 A 
BRANCH  10  13
ATOM     13  N   UNL     1     -10.297  -0.393   8.643  0.00  0.00    -0.324 N 
ATOM     14  C   UNL     1     -10.680  -1.618   9.363  0.00  0.00    +0.133 C 
ATOM     15  C   UNL     1      -9.949  -1.634  10.710  0.00  0.00    +0.178 C 
ATOM     16  O   UNL     1     -10.185  -0.398  11.389  0.00  0.00    -0.377 OA
ATOM     17  C   UNL     1      -9.682   0.751  10.704  0.00  0.00    +0.178 C 
ATOM     18  C   UNL     1     -10.394   0.889   9.358  0.00  0.00    +0.133 C 
ENDBRANCH  10  13
BRANCH  11  19
ATOM     19  N   UNL     1     -12.208  -0.173   6.570  0.00  0.00    +0.058 N 
ATOM     20  O   UNL     1     -13.000  -0.082   5.661  0.00  0.00    -0.126 OA
ATOM     21  O   UNL     1     -12.593  -0.127   7.715  0.00  0.00    -0.126 OA
ENDBRANCH  11  19
ENDBRANCH   6   7
ENDBRANCH   2   5
BRANCH   1  22
ATOM     22  C   UNL     1      -4.909  -1.042   0.039  0.00  0.00    +0.179 C 
BRANCH  22  26
ATOM     23  C   UNL     1      -1.266  -0.763   0.011  0.00  0.00    +0.135 A 
ATOM     24  C   UNL     1      -1.385  -2.118   0.010  0.00  0.00    +0.050 A 
ATOM     25  C   UNL     1      -2.765  -2.404   0.021  0.00  0.00    +0.047 A 
ATOM     26  C   UNL     1      -3.413  -1.223   0.027  0.00  0.00    +0.123 A 
ATOM     27  O   UNL     1      -2.504  -0.234   0.026  0.00  0.00    -0.458 OA
BRANCH  23  33
ATOM     28  C   UNL     1      -0.017   1.392   0.010  0.00  0.00    +0.012 A 
ATOM     29  C   UNL     1       1.170   2.095   0.002  0.00  0.00    +0.016 A 
ATOM     30  C   UNL     1       2.378   1.419  -0.013  0.00  0.00    +0.018 A 
ATOM     31  C   UNL     1       2.404   0.035  -0.021  0.00  0.00    +0.016 A 
ATOM     32  C   UNL     1       1.224  -0.680  -0.013  0.00  0.00    +0.012 A 
ATOM     33  C   UNL     1       0.002  -0.004   0.002  0.00  0.00    +0.017 A 
ATOM     34 BR   UNL     1       4.000   2.390  -0.025  0.00  0.00    -0.050 Br
ENDBRANCH  23  33
ENDBRANCH  22  26
ENDBRANCH   1  22
TORSDOF 7
