REMARK  Name = ZINC63981777
REMARK  7 active torsions:
REMARK  status: ('A' for Active; 'I' for Inactive)
REMARK    1  A    between atoms: C_1  and  C_2
REMARK    2  A    between atoms: C_2  and  C_4
REMARK    3  A    between atoms: C_7  and  O_10
REMARK    4  A    between atoms: O_10  and  C_11
REMARK    5  A    between atoms: C_11  and  C_12
REMARK    6  A    between atoms: C_12  and  N_14
REMARK    7  A    between atoms: N_23  and  C_24
REMARK                            x       y       z     vdW  Elec       q    Type
REMARK                         _______ _______ _______ _____ _____    ______ ____
ROOT
ATOM      1  C   UNL     1      -6.091  -4.887   0.053  0.00  0.00    +0.277 C 
ATOM      2  O   UNL     1      -7.065  -4.158   0.069  0.00  0.00    -0.270 OA
ENDROOT
BRANCH   1   3
ATOM      3  N   UNL     1      -6.249  -6.207   0.038  0.00  0.00    -0.144 NA
ATOM      4  C   UNL     1      -7.466  -6.732   0.146  0.00  0.00    +0.201 A 
ATOM      5  N   UNL     1      -8.629  -6.029   0.161  0.00  0.00    -0.326 N 
ATOM      6  C   UNL     1      -9.682  -6.929   0.288  0.00  0.00    +0.067 A 
ATOM      7  C   UNL     1     -11.059  -6.772   0.355  0.00  0.00    +0.047 A 
ATOM      8  C   UNL     1     -11.872  -7.882   0.484  0.00  0.00    +0.043 A 
ATOM      9  C   UNL     1     -11.318  -9.150   0.546  0.00  0.00    +0.022 A 
ATOM     10  C   UNL     1      -9.950  -9.316   0.480  0.00  0.00    +0.029 A 
ATOM     11  C   UNL     1      -9.124  -8.208   0.350  0.00  0.00    +0.068 A 
ATOM     12  N   UNL     1      -7.744  -8.058   0.254  0.00  0.00    -0.315 N 
ATOM     13  C   UNL     1      -6.760  -9.143   0.271  0.00  0.00    +0.152 C 
ATOM     14 CL   UNL     1     -13.595  -7.685   0.569  0.00  0.00    -0.083 Cl
ATOM     15  H   UNL     1      -8.711  -5.065   0.095  0.00  0.00    +0.169 HD
ENDBRANCH   1   3
BRANCH   1  16
ATOM     16  C   UNL     1      -4.706  -4.293   0.049  0.00  0.00    +0.326 C 
BRANCH  16  17
ATOM     17  O   UNL     1      -4.799  -2.867   0.067  0.00  0.00    -0.483 OA
BRANCH  17  21
ATOM     18  C   UNL     1      -1.254  -0.761   0.066  0.00  0.00    +0.017 A 
ATOM     19  C   UNL     1      -2.477  -0.078   0.083  0.00  0.00    +0.015 A 
ATOM     20  C   UNL     1      -3.653  -0.784   0.083  0.00  0.00    +0.046 A 
ATOM     21  C   UNL     1      -3.632  -2.174   0.066  0.00  0.00    +0.121 A 
ATOM     22  C   UNL     1      -2.421  -2.857   0.050  0.00  0.00    +0.046 A 
ATOM     23  C   UNL     1      -1.239  -2.161   0.043  0.00  0.00    +0.015 A 
BRANCH  18  25
ATOM     24  C   UNL     1      -0.011   1.496   0.089  0.00  0.00    +0.091 C 
ATOM     25  C   UNL     1       0.008  -0.010   0.065  0.00  0.00    +0.160 C 
ATOM     26  O   UNL     1       1.066  -0.603   0.045  0.00  0.00    -0.292 OA
ENDBRANCH  18  25
ENDBRANCH  17  21
ENDBRANCH  16  17
ENDBRANCH   1  16
TORSDOF 5
