REMARK  Name = ZINC22012998
REMARK  10 active torsions:
REMARK  status: ('A' for Active; 'I' for Inactive)
REMARK    1  A    between atoms: C_1  and  C_2
REMARK    2  A    between atoms: C_3  and  C_33
REMARK    3  A    between atoms: N_4  and  C_26
REMARK    4  A    between atoms: C_5  and  N_9
REMARK    5  A    between atoms: C_6  and  C_7
REMARK    6  A    between atoms: C_10  and  C_12
REMARK    7  A    between atoms: C_12  and  N_13
REMARK    8  A    between atoms: C_20  and  S_22
REMARK    9  A    between atoms: S_22  and  N_25
REMARK   10  A    between atoms: C_26  and  C_27
REMARK                            x       y       z     vdW  Elec       q    Type
REMARK                         _______ _______ _______ _____ _____    ______ ____
ROOT
ATOM      1  N   UNL     1      -0.696  -0.581   0.069  0.00  0.00    -0.269 N 
ATOM      2  C   UNL     1      -1.829  -0.160  -0.529  0.00  0.00    +0.236 C 
ATOM      3  O   UNL     1      -1.825   0.862  -1.183  0.00  0.00    -0.274 OA
ATOM      4  H   UNL     1      -0.691  -1.525   0.634  0.00  0.00    +0.156 HD
ENDROOT
BRANCH   1   9
ATOM      5  C   UNL     1       2.575   3.268  -0.095  0.00  0.00    +0.047 C 
ATOM      6  C   UNL     1       1.965   1.889  -0.107  0.00  0.00    -0.011 A 
ATOM      7  C   UNL     1       2.616   0.726  -0.267  0.00  0.00    +0.022 A 
ATOM      8  N   UNL     1       1.717  -0.306  -0.221  0.00  0.00    -0.329 N 
ATOM      9  C   UNL     1       0.462   0.175  -0.029  0.00  0.00    +0.123 A 
ATOM     10  C   UNL     1       0.543   1.558   0.052  0.00  0.00    +0.095 A 
ATOM     11  C   UNL     1       4.103   0.579  -0.465  0.00  0.00    +0.064 C 
BRANCH  10  12
ATOM     12  C   UNL     1      -0.539   2.476   0.245  0.00  0.00    +0.103 C 
ATOM     13  N   UNL     1      -1.397   3.204   0.398  0.00  0.00    -0.191 NA
ENDBRANCH  10  12
BRANCH   8  14
ATOM     14  C   UNL     1       2.060  -1.724  -0.357  0.00  0.00    +0.154 C 
BRANCH  14  15
ATOM     15  C   UNL     1       2.010  -2.120  -1.834  0.00  0.00    +0.138 C 
ATOM     16  C   UNL     1       2.265  -3.636  -1.978  0.00  0.00    +0.035 C 
ATOM     17  C   UNL     1       3.149  -3.703  -3.253  0.00  0.00    +0.031 C 
ATOM     18  C   UNL     1       3.960  -2.389  -3.117  0.00  0.00    +0.160 C 
ATOM     19  O   UNL     1       3.042  -1.438  -2.556  0.00  0.00    -0.375 OA
ENDBRANCH  14  15
ENDBRANCH   8  14
ENDBRANCH   1   9
BRANCH   2  20
ATOM     20  C   UNL     1      -3.098  -0.959  -0.386  0.00  0.00    +0.201 C 
BRANCH  20  21
ATOM     21  N   UNL     1      -4.213  -0.220  -0.994  0.00  0.00    -0.321 N 
ATOM     22  C   UNL     1      -4.340   1.129  -0.402  0.00  0.00    +0.110 C 
ATOM     23  C   UNL     1      -4.899   1.963  -1.578  0.00  0.00    +0.056 C 
ATOM     24  C   UNL     1      -4.416   1.197  -2.793  0.00  0.00    -0.023 A 
ATOM     25  C   UNL     1      -4.021  -0.068  -2.373  0.00  0.00    +0.033 A 
ATOM     26  C   UNL     1      -3.518  -0.967  -3.311  0.00  0.00    +0.025 A 
ATOM     27  C   UNL     1      -3.423  -0.604  -4.639  0.00  0.00    +0.030 A 
ATOM     28  C   UNL     1      -3.824   0.654  -5.047  0.00  0.00    +0.105 A 
ATOM     29  C   UNL     1      -4.320   1.554  -4.121  0.00  0.00    +0.034 A 
BRANCH  28  30
ATOM     30  S   UNL     1      -3.703   1.111  -6.745  0.00  0.00    +0.056 S 
ATOM     31  O   UNL     1      -3.632   2.530  -6.779  0.00  0.00    -0.153 OA
ATOM     32  O   UNL     1      -2.699   0.284  -7.317  0.00  0.00    -0.153 OA
BRANCH  30  33
ATOM     33  N   UNL     1      -5.132   0.691  -7.468  0.00  0.00    -0.204 NA
ATOM     34  H   UNL     1      -5.097   0.961  -8.534  0.00  0.00    +0.144 HD
ATOM     35  H   UNL     1      -5.960   1.226  -6.981  0.00  0.00    +0.144 HD
ENDBRANCH  30  33
ENDBRANCH  28  30
ENDBRANCH  20  21
ENDBRANCH   2  20
TORSDOF 8
