REMARK  Name = ZINC36717039
REMARK  10 active torsions:
REMARK  status: ('A' for Active; 'I' for Inactive)
REMARK    1  A    between atoms: C_1  and  C_2
REMARK    2  A    between atoms: C_2  and  C_3
REMARK    3  A    between atoms: C_3  and  N_4
REMARK    4  A    between atoms: C_10  and  N_21
REMARK    5  A    between atoms: C_11  and  C_12
REMARK    6  A    between atoms: C_22  and  C_24
REMARK    7  A    between atoms: C_24  and  C_25
REMARK    8  A    between atoms: C_25  and  C_26
REMARK    9  A    between atoms: C_26  and  S_27
REMARK   10  A    between atoms: S_27  and  C_28
REMARK                            x       y       z     vdW  Elec       q    Type
REMARK                         _______ _______ _______ _____ _____    ______ ____
ROOT
ATOM      1  N   UNL     1       0.762  -1.980   1.234  0.00  0.00    -0.297 NA
ATOM      2  C   UNL     1       1.261  -2.507   2.511  0.00  0.00    +0.089 C 
ATOM      3  C   UNL     1       0.927  -3.996   2.633  0.00  0.00    +0.052 C 
ATOM      4  C   UNL     1       1.419  -4.700   1.371  0.00  0.00    -0.023 A 
ATOM      5  C   UNL     1       1.696  -3.975   0.261  0.00  0.00    +0.009 A 
ATOM      6  S   UNL     1       2.226  -5.167  -0.936  0.00  0.00    -0.076 S 
ATOM      7  C   UNL     1       2.072  -6.638   0.062  0.00  0.00    +0.082 A 
ATOM      8  C   UNL     1       1.619  -6.131   1.270  0.00  0.00    +0.039 A 
ATOM      9  C   UNL     1       1.569  -2.491   0.110  0.00  0.00    +0.127 C 
ENDROOT
BRANCH   8  10
ATOM     10  C   UNL     1       1.349  -7.019   2.413  0.00  0.00    +0.112 A 
ATOM     11  N   UNL     1       0.915  -6.707   3.618  0.00  0.00    -0.239 NA
ATOM     12  C   UNL     1       0.712  -7.635   4.575  0.00  0.00    +0.079 A 
ATOM     13  C   UNL     1       0.252  -7.436   5.899  0.00  0.00    +0.029 A 
ATOM     14  C   UNL     1       0.099  -8.497   6.753  0.00  0.00    +0.002 A 
ATOM     15  C   UNL     1       0.388  -9.795   6.357  0.00  0.00    +0.001 A 
ATOM     16  C   UNL     1       0.840 -10.026   5.071  0.00  0.00    +0.017 A 
ATOM     17  C   UNL     1       0.995  -8.970   4.207  0.00  0.00    +0.040 A 
ATOM     18  S   UNL     1       1.522  -8.795   2.519  0.00  0.00    -0.067 S 
ENDBRANCH   8  10
BRANCH   7  19
ATOM     19  N   UNL     1       2.338  -7.958  -0.285  0.00  0.00    -0.279 N 
ATOM     20  C   UNL     1       2.776  -8.254  -1.524  0.00  0.00    +0.218 C 
ATOM     21  O   UNL     1       2.939  -7.369  -2.338  0.00  0.00    -0.275 OA
ATOM     22  H   UNL     1       2.208  -8.666   0.365  0.00  0.00    +0.155 HD
BRANCH  20  23
ATOM     23  C   UNL     1       3.064  -9.685  -1.900  0.00  0.00    +0.097 C 
BRANCH  23  24
ATOM     24  C   UNL     1       3.545  -9.744  -3.352  0.00  0.00    +0.020 C 
BRANCH  24  25
ATOM     25  C   UNL     1       3.837 -11.197  -3.733  0.00  0.00    +0.075 C 
BRANCH  25  26
ATOM     26  S   UNL     1       4.407 -11.267  -5.454  0.00  0.00    -0.125 S 
BRANCH  26  27
ATOM     27  C   UNL     1       4.698 -12.982  -5.737  0.00  0.00    +0.008 A 
ATOM     28  C   UNL     1       4.468 -13.904  -4.723  0.00  0.00    +0.015 A 
ATOM     29  C   UNL     1       4.697 -15.246  -4.949  0.00  0.00    +0.001 A 
ATOM     30  C   UNL     1       5.155 -15.674  -6.182  0.00  0.00    +0.000 A 
ATOM     31  C   UNL     1       5.385 -14.759  -7.193  0.00  0.00    +0.001 A 
ATOM     32  C   UNL     1       5.152 -13.415  -6.977  0.00  0.00    +0.015 A 
ENDBRANCH  26  27
ENDBRANCH  25  26
ENDBRANCH  24  25
ENDBRANCH  23  24
ENDBRANCH  20  23
ENDBRANCH   7  19
BRANCH   1  33
ATOM     33  C   UNL     1       0.742  -0.511   1.242  0.00  0.00    +0.084 C 
BRANCH  33  35
ATOM     34  C   UNL     1      -0.019   1.526   0.010  0.00  0.00    +0.005 C 
ATOM     35  C   UNL     1       0.002  -0.004   0.002  0.00  0.00    +0.012 C 
ENDBRANCH  33  35
ENDBRANCH   1  33
TORSDOF 9
