REMARK  Name = ZINC41170805
REMARK  8 active torsions:
REMARK  status: ('A' for Active; 'I' for Inactive)
REMARK    1  A    between atoms: C_1  and  C_2
REMARK    2  A    between atoms: C_7  and  S_8
REMARK    3  A    between atoms: S_8  and  N_11
REMARK    4  A    between atoms: N_11  and  C_12
REMARK    5  A    between atoms: C_12  and  C_13
REMARK    6  A    between atoms: C_13  and  C_14
REMARK    7  A    between atoms: C_18  and  C_27
REMARK    8  A    between atoms: C_19  and  C_26
REMARK                            x       y       z     vdW  Elec       q    Type
REMARK                         _______ _______ _______ _____ _____    ______ ____
ROOT
ATOM      1  C   UNL     1       2.208   3.237   2.709  0.00  0.00    +0.057 C 
ENDROOT
BRANCH   1   2
ATOM      2  C   UNL     1       2.249   4.487   1.868  0.00  0.00    +0.019 A 
ATOM      3  C   UNL     1       1.480   5.552   2.201  0.00  0.00    +0.019 A 
ATOM      4  C   UNL     1       1.544   6.751   1.364  0.00  0.00    -0.001 A 
ATOM      5  C   UNL     1       0.774   7.882   1.658  0.00  0.00    +0.013 A 
ATOM      6  C   UNL     1       0.857   8.985   0.856  0.00  0.00    -0.047 A 
ATOM      7  C   UNL     1       1.699   8.994  -0.248  0.00  0.00    -0.046 A 
ATOM      8  C   UNL     1       2.466   7.891  -0.557  0.00  0.00    +0.030 A 
ATOM      9  C   UNL     1       2.399   6.757   0.245  0.00  0.00    +0.049 A 
ATOM     10  N   UNL     1       3.155   5.641  -0.040  0.00  0.00    -0.322 N 
ATOM     11  H   UNL     1       3.744   5.646  -0.811  0.00  0.00    +0.169 HD
ATOM     12  C   UNL     1       3.094   4.546   0.738  0.00  0.00    +0.252 A 
ATOM     13  O   UNL     1       3.781   3.579   0.459  0.00  0.00    -0.268 OA
ATOM     14  C   UNL     1       1.773  10.222  -1.118  0.00  0.00    +0.044 C 
ATOM     15  C   UNL     1       0.028  10.202   1.173  0.00  0.00    +0.044 C 
ENDBRANCH   1   2
BRANCH   1  16
ATOM     16  C   UNL     1       1.217   2.244   2.098  0.00  0.00    +0.110 C 
BRANCH  16  17
ATOM     17  N   UNL     1       1.177   1.029   2.916  0.00  0.00    -0.190 NA
ATOM     18  H   UNL     1       1.877   0.858   3.566  0.00  0.00    +0.148 HD
BRANCH  17  19
ATOM     19  S   UNL     1      -0.065  -0.052   2.732  0.00  0.00    +0.059 S 
ATOM     20  O   UNL     1      -1.269   0.700   2.788  0.00  0.00    -0.153 OA
ATOM     21  O   UNL     1       0.202  -1.130   3.618  0.00  0.00    -0.153 OA
BRANCH  19  28
ATOM     22  C   UNL     1       2.238  -1.737   1.729  0.00  0.00    +0.046 C 
ATOM     23  C   UNL     1       1.143  -1.463   0.732  0.00  0.00    -0.024 A 
ATOM     24  C   UNL     1       1.228  -1.978  -0.548  0.00  0.00    +0.005 A 
ATOM     25  C   UNL     1       0.224  -1.726  -1.463  0.00  0.00    +0.000 A 
ATOM     26  C   UNL     1      -0.868  -0.961  -1.098  0.00  0.00    +0.002 A 
ATOM     27  C   UNL     1      -0.955  -0.447   0.182  0.00  0.00    +0.029 A 
ATOM     28  C   UNL     1       0.049  -0.702   1.099  0.00  0.00    +0.108 A 
ENDBRANCH  19  28
ENDBRANCH  17  19
ENDBRANCH  16  17
ENDBRANCH   1  16
TORSDOF 5
