REMARK  Name = ZINC39230896
REMARK  11 active torsions:
REMARK  status: ('A' for Active; 'I' for Inactive)
REMARK    1  A    between atoms: C_1  and  C_2
REMARK    2  A    between atoms: C_5  and  C_34
REMARK    3  A    between atoms: C_6  and  C_8
REMARK    4  A    between atoms: C_8  and  O_9
REMARK    5  A    between atoms: O_9  and  C_10
REMARK    6  A    between atoms: C_18  and  C_19
REMARK    7  A    between atoms: C_19  and  C_20
REMARK    8  A    between atoms: C_20  and  N_21
REMARK    9  A    between atoms: C_22  and  C_24
REMARK   10  A    between atoms: C_29  and  O_32
REMARK   11  A    between atoms: O_32  and  C_33
REMARK                            x       y       z     vdW  Elec       q    Type
REMARK                         _______ _______ _______ _____ _____    ______ ____
ROOT
ATOM      1  C   UNL     1       0.061  -2.448   4.833  0.00  0.00    +0.162 A 
ATOM      2  C   UNL     1       0.085  -3.800   5.013  0.00  0.00    +0.051 A 
ATOM      3  C   UNL     1       0.099  -4.328   6.315  0.00  0.00    +0.022 A 
ATOM      4  C   UNL     1       0.088  -3.505   7.384  0.00  0.00    +0.093 A 
ATOM      5  N   UNL     1       0.064  -2.148   7.220  0.00  0.00    -0.302 N 
ATOM      6  C   UNL     1       0.055  -1.601   5.964  0.00  0.00    +0.158 A 
ATOM      7  N   UNL     1       0.038  -0.281   6.091  0.00  0.00    -0.343 N 
ATOM      8  C   UNL     1       0.041   0.034   7.388  0.00  0.00    +0.106 A 
ATOM      9  C   UNL     1       0.049  -1.109   8.109  0.00  0.00    +0.042 A 
ATOM     10  H   UNL     1       0.026   0.354   5.358  0.00  0.00    +0.167 HD
ENDROOT
BRANCH   1  11
ATOM     11  O   UNL     1       0.047  -1.922   3.580  0.00  0.00    -0.484 OA
BRANCH  11  12
ATOM     12  C   UNL     1       0.054  -2.845   2.489  0.00  0.00    +0.265 C 
BRANCH  12  18
ATOM     13  C   UNL     1      -0.018   1.503   0.010  0.00  0.00    +0.044 C 
ATOM     14  C   UNL     1       0.002  -0.004   0.002  0.00  0.00    -0.050 A 
ATOM     15  C   UNL     1       0.006  -0.689  -1.199  0.00  0.00    +0.003 A 
ATOM     16  C   UNL     1       0.025  -2.071  -1.207  0.00  0.00    +0.004 A 
ATOM     17  C   UNL     1       0.040  -2.768  -0.013  0.00  0.00    -0.044 A 
ATOM     18  C   UNL     1       0.037  -2.084   1.188  0.00  0.00    -0.007 A 
ATOM     19  C   UNL     1       0.023  -0.702   1.195  0.00  0.00    +0.010 A 
ATOM     20  C   UNL     1       0.059  -4.275  -0.021  0.00  0.00    +0.044 C 
ENDBRANCH  12  18
ENDBRANCH  11  12
ENDBRANCH   1  11
BRANCH   9  21
ATOM     21  C   UNL     1       0.056  -1.218   9.612  0.00  0.00    +0.074 C 
BRANCH  21  22
ATOM     22  C   UNL     1      -1.381  -1.155  10.135  0.00  0.00    +0.110 C 
BRANCH  22  23
ATOM     23  N   UNL     1      -1.374  -1.261  11.596  0.00  0.00    -0.315 N 
ATOM     24  C   UNL     1      -2.535  -1.229  12.280  0.00  0.00    +0.216 C 
ATOM     25  O   UNL     1      -3.585  -1.113  11.685  0.00  0.00    -0.276 OA
ATOM     26  H   UNL     1      -0.533  -1.355  12.072  0.00  0.00    +0.149 HD
BRANCH  24  27
ATOM     27  C   UNL     1      -2.528  -1.338  13.783  0.00  0.00    +0.077 C 
ATOM     28  C   UNL     1      -1.718  -0.182  14.374  0.00  0.00    +0.013 C 
ATOM     29  C   UNL     1      -1.711  -0.293  15.900  0.00  0.00    +0.003 C 
ATOM     30  C   UNL     1      -3.148  -0.230  16.423  0.00  0.00    +0.031 C 
ATOM     31  C   UNL     1      -3.957  -1.386  15.832  0.00  0.00    +0.119 C 
ATOM     32  C   UNL     1      -3.964  -1.275  14.306  0.00  0.00    +0.044 C 
BRANCH  31  33
ATOM     33  O   UNL     1      -3.364  -2.628  16.216  0.00  0.00    -0.380 OA
ATOM     34  C   UNL     1      -3.870  -3.159  17.443  0.00  0.00    +0.194 C 
ENDBRANCH  31  33
ENDBRANCH  24  27
ENDBRANCH  22  23
ENDBRANCH  21  22
ENDBRANCH   9  21
TORSDOF 8
