REMARK  Name = ZINC13914354
REMARK  14 active torsions:
REMARK  status: ('A' for Active; 'I' for Inactive)
REMARK    1  A    between atoms: C_1  and  C_2
REMARK    2  A    between atoms: C_2  and  O_3
REMARK    3  A    between atoms: C_2  and  C_35
REMARK    4  A    between atoms: O_3  and  C_4
REMARK    5  A    between atoms: C_7  and  C_12
REMARK    6  A    between atoms: C_9  and  O_10
REMARK    7  A    between atoms: O_10  and  C_11
REMARK    8  A    between atoms: C_17  and  C_18
REMARK    9  A    between atoms: C_21  and  O_26
REMARK   10  A    between atoms: C_22  and  O_24
REMARK   11  A    between atoms: O_24  and  C_25
REMARK   12  A    between atoms: O_26  and  C_27
REMARK   13  A    between atoms: C_27  and  C_28
REMARK   14  A    between atoms: C_27  and  C_29
REMARK                            x       y       z     vdW  Elec       q    Type
REMARK                         _______ _______ _______ _____ _____    ______ ____
ROOT
ATOM      1  C   UNL     1      -3.968  -1.268   4.925  0.00  0.00    +0.015 C 
ATOM      2  C   UNL     1      -3.886  -2.543   5.362  0.00  0.00    +0.000 C 
ATOM      3  C   UNL     1      -4.403  -2.946   6.688  0.00  0.00    +0.185 C 
ATOM      4  O   UNL     1      -4.285  -2.244   7.678  0.00  0.00    -0.287 OA
ATOM      5  C   UNL     1      -5.073  -4.265   6.726  0.00  0.00    +0.000 C 
ATOM      6  C   UNL     1      -6.182  -4.477   7.468  0.00  0.00    +0.015 C 
ATOM      7  C   UNL     1      -4.451  -5.365   5.890  0.00  0.00    +0.039 C 
ATOM      8  C   UNL     1      -4.210  -4.834   4.474  0.00  0.00    +0.009 C 
ATOM      9  C   UNL     1      -3.264  -3.636   4.517  0.00  0.00    +0.039 C 
ENDROOT
BRANCH   1  13
ATOM     10  C   UNL     1      -2.024  -0.131   1.327  0.00  0.00    +0.180 A 
ATOM     11  C   UNL     1      -1.413  -1.031   2.191  0.00  0.00    +0.087 A 
ATOM     12  C   UNL     1      -2.041  -1.403   3.360  0.00  0.00    +0.031 A 
ATOM     13  C   UNL     1      -3.296  -0.873   3.679  0.00  0.00    -0.020 A 
ATOM     14  C   UNL     1      -3.910   0.035   2.808  0.00  0.00    +0.057 A 
ATOM     15  C   UNL     1      -3.272   0.406   1.641  0.00  0.00    +0.164 A 
ATOM     16 CL   UNL     1       0.144  -1.690   1.797  0.00  0.00    -0.080 Cl
BRANCH  15  17
ATOM     17  O   UNL     1      -3.864   1.291   0.794  0.00  0.00    -0.491 OA
ATOM     18  C   UNL     1      -5.142   1.801   1.179  0.00  0.00    +0.277 C 
ENDBRANCH  15  17
BRANCH  10  19
ATOM     19  O   UNL     1      -1.401   0.232   0.175  0.00  0.00    -0.484 OA
BRANCH  19  21
ATOM     20  C   UNL     1      -1.337   2.636  -0.070  0.00  0.00    +0.051 C 
ATOM     21  C   UNL     1      -0.536   1.368   0.236  0.00  0.00    +0.168 C 
ATOM     22  C   UNL     1       0.585   1.212  -0.793  0.00  0.00    +0.051 C 
ENDBRANCH  19  21
ENDBRANCH  10  19
ENDBRANCH   1  13
BRANCH   6  23
ATOM     23  C   UNL     1      -6.735  -5.833   7.591  0.00  0.00    -0.020 A 
ATOM     24  C   UNL     1      -5.880  -6.941   7.616  0.00  0.00    +0.031 A 
ATOM     25  C   UNL     1      -6.401  -8.211   7.731  0.00  0.00    +0.087 A 
ATOM     26  C   UNL     1      -7.776  -8.396   7.825  0.00  0.00    +0.180 A 
ATOM     27  C   UNL     1      -8.634  -7.298   7.801  0.00  0.00    +0.164 A 
ATOM     28  C   UNL     1      -8.119  -6.021   7.691  0.00  0.00    +0.057 A 
ATOM     29 CL   UNL     1      -5.339  -9.584   7.761  0.00  0.00    -0.080 Cl
BRANCH  27  30
ATOM     30  O   UNL     1      -9.978  -7.483   7.893  0.00  0.00    -0.491 OA
ATOM     31  C   UNL     1     -10.798  -6.313   7.862  0.00  0.00    +0.277 C 
ENDBRANCH  27  30
BRANCH  26  32
ATOM     32  O   UNL     1      -8.284  -9.650   7.938  0.00  0.00    -0.484 OA
BRANCH  32  33
ATOM     33  C   UNL     1      -8.453 -10.165   9.261  0.00  0.00    +0.168 C 
ATOM     34  C   UNL     1      -9.630 -11.142   9.282  0.00  0.00    +0.051 C 
ATOM     35  C   UNL     1      -7.178 -10.894   9.691  0.00  0.00    +0.051 C 
ENDBRANCH  32  33
ENDBRANCH  26  32
ENDBRANCH   6  23
TORSDOF 8
