REMARK  Name = ZINC35724458
REMARK  6 active torsions:
REMARK  status: ('A' for Active; 'I' for Inactive)
REMARK    1  A    between atoms: C_4  and  N_7
REMARK    2  A    between atoms: C_8  and  S_12
REMARK    3  A    between atoms: S_12  and  C_13
REMARK    4  A    between atoms: C_13  and  C_14
REMARK    5  A    between atoms: C_19  and  C_20
REMARK    6  A    between atoms: C_20  and  N_21
REMARK                            x       y       z     vdW  Elec       q    Type
REMARK                         _______ _______ _______ _____ _____    ______ ____
ROOT
ATOM      1  S   UNL     1       2.824  -2.812   1.538  0.00  0.00    -0.080 S 
ENDROOT
BRANCH   1   3
ATOM      2  N   UNL     1       3.624  -0.652  -0.037  0.00  0.00    -0.187 N 
ATOM      3  C   UNL     1       3.918  -1.831   0.567  0.00  0.00    +0.214 A 
ATOM      4  N   UNL     1       5.176  -2.102   0.291  0.00  0.00    -0.101 NA
ATOM      5  N   UNL     1       5.685  -1.178  -0.441  0.00  0.00    -0.022 NA
ATOM      6  N   UNL     1       4.809  -0.266  -0.689  0.00  0.00    -0.038 NA
BRANCH   2  10
ATOM      7  C   UNL     1      -0.017   1.379   0.010  0.00  0.00    +0.000 A 
ATOM      8  C   UNL     1       1.170   2.089   0.002  0.00  0.00    +0.002 A 
ATOM      9  C   UNL     1       2.377   1.419  -0.013  0.00  0.00    +0.028 A 
ATOM     10  C   UNL     1       2.399   0.031  -0.021  0.00  0.00    +0.070 A 
ATOM     11  C   UNL     1       1.207  -0.680  -0.013  0.00  0.00    +0.028 A 
ATOM     12  C   UNL     1       0.002  -0.004   0.002  0.00  0.00    +0.002 A 
ENDBRANCH   2  10
ENDBRANCH   1   3
BRANCH   1  13
ATOM     13  C   UNL     1       3.835  -4.234   2.038  0.00  0.00    +0.112 C 
BRANCH  13  14
ATOM     14  C   UNL     1       3.007  -5.165   2.885  0.00  0.00    -0.036 A 
ATOM     15  C   UNL     1       2.967  -4.999   4.257  0.00  0.00    +0.004 A 
ATOM     16  C   UNL     1       2.208  -5.854   5.035  0.00  0.00    +0.000 A 
ATOM     17  C   UNL     1       1.490  -6.874   4.441  0.00  0.00    +0.000 A 
ATOM     18  C   UNL     1       1.529  -7.040   3.069  0.00  0.00    +0.002 A 
ATOM     19  C   UNL     1       2.285  -6.182   2.291  0.00  0.00    -0.061 A 
BRANCH  19  20
ATOM     20  C   UNL     1       2.324  -6.360   0.795  0.00  0.00    -0.050 C 
BRANCH  20  21
ATOM     21  N   UNL     1       3.557  -7.064   0.417  0.00  0.00    +0.381 N 
ATOM     22  H   UNL     1       3.577  -7.969   0.864  0.00  0.00    -0.090 HD
ATOM     23  H   UNL     1       3.583  -7.183  -0.584  0.00  0.00    -0.090 HD
ATOM     24  H   UNL     1       4.356  -6.525   0.713  0.00  0.00    -0.090 HD
ENDBRANCH  20  21
ENDBRANCH  19  20
ENDBRANCH  13  14
ENDBRANCH   1  13
TORSDOF 6
