REMARK  Name = ZINC49181658
REMARK  12 active torsions:
REMARK  status: ('A' for Active; 'I' for Inactive)
REMARK    1  A    between atoms: C_1  and  C_2
REMARK    2  A    between atoms: C_2  and  C_4
REMARK    3  A    between atoms: C_2  and  O_42
REMARK    4  A    between atoms: C_4  and  O_41
REMARK    5  A    between atoms: C_5  and  C_37
REMARK    6  A    between atoms: C_14  and  C_36
REMARK    7  A    between atoms: C_18  and  C_35
REMARK    8  A    between atoms: C_19  and  O_34
REMARK    9  A    between atoms: C_28  and  C_29
REMARK   10  A    between atoms: C_28  and  C_30
REMARK   11  A    between atoms: C_37  and  O_39
REMARK   12  A    between atoms: O_39  and  C_40
REMARK                            x       y       z     vdW  Elec       q    Type
REMARK                         _______ _______ _______ _____ _____    ______ ____
ROOT
ATOM      1  C   UNL     1      -0.066  -0.579   1.309  0.00  0.00    +0.214 C 
ATOM      2  C   UNL     1       0.432  -1.999   1.608  0.00  0.00    +0.141 C 
ATOM      3  C   UNL     1       1.931  -1.870   1.548  0.00  0.00    +0.097 C 
ATOM      4  C   UNL     1       2.103  -0.516   0.777  0.00  0.00    +0.319 C 
ATOM      5  O   UNL     1       1.140   0.280   1.377  0.00  0.00    -0.306 OA
ATOM      6  O   UNL     1       3.480  -0.460   0.631  0.00  0.00    -0.434 OA
ATOM      7  C   UNL     1       3.833  -1.694   0.149  0.00  0.00    +0.316 C 
ATOM      8  O   UNL     1       4.775  -1.921  -0.570  0.00  0.00    -0.250 OA
ATOM      9  C   UNL     1       2.815  -2.741   0.683  0.00  0.00    +0.075 C 
ATOM     10  C   UNL     1       2.067  -3.232  -0.544  0.00  0.00    +0.025 C 
ATOM     11  C   UNL     1       0.560  -3.348  -0.534  0.00  0.00    +0.039 C 
ATOM     12  C   UNL     1      -0.121  -3.158   0.805  0.00  0.00    +0.025 C 
ATOM     13  C   UNL     1      -1.630  -3.040   0.642  0.00  0.00    +0.145 C 
ATOM     14  C   UNL     1      -2.344  -4.314   0.378  0.00  0.00    +0.012 C 
ATOM     15  C   UNL     1      -2.246  -5.158  -0.574  0.00  0.00    -0.000 C 
ATOM     16  C   UNL     1      -1.155  -5.075  -1.572  0.00  0.00    +0.000 C 
ATOM     17  C   UNL     1      -1.463  -5.423  -2.841  0.00  0.00    +0.098 C 
ATOM     18  C   UNL     1      -2.764  -5.917  -3.120  0.00  0.00    +0.333 C 
ATOM     19  O   UNL     1      -3.093  -6.072  -4.281  0.00  0.00    -0.246 OA
ATOM     20  O   UNL     1      -3.636  -6.240  -2.149  0.00  0.00    -0.451 OA
ATOM     21  C   UNL     1      -3.160  -6.352  -0.795  0.00  0.00    +0.133 C 
ATOM     22  C   UNL     1      -2.377  -7.657  -0.626  0.00  0.00    +0.061 C 
ATOM     23  C   UNL     1      -4.358  -6.343   0.155  0.00  0.00    +0.061 C 
ATOM     24  C   UNL     1       0.235  -4.702  -1.177  0.00  0.00    +0.122 C 
ATOM     25  C   UNL     1       1.312  -5.250  -2.147  0.00  0.00    +0.201 C 
ATOM     26  O   UNL     1       1.123  -5.783  -0.839  0.00  0.00    -0.363 OA
ATOM     27  C   UNL     1       0.132  -4.442   1.639  0.00  0.00    +0.016 C 
ATOM     28  C   UNL     1       3.501  -3.879   1.458  0.00  0.00    +0.023 C 
ENDROOT
BRANCH   1  30
ATOM     29  C   UNL     1      -0.163   0.946  -0.660  0.00  0.00    +0.043 C 
ATOM     30  C   UNL     1      -0.708  -0.348  -0.051  0.00  0.00    +0.172 C 
BRANCH  30  31
ATOM     31  O   UNL     1      -2.124  -0.243   0.102  0.00  0.00    -0.387 OA
ATOM     32  H   UNL     1      -2.409   0.532   0.605  0.00  0.00    +0.210 HD
ENDBRANCH  30  31
ENDBRANCH   1  30
BRANCH  13  33
ATOM     33  O   UNL     1      -2.259  -2.443   1.764  0.00  0.00    -0.387 OA
ATOM     34  H   UNL     1      -3.218  -2.360   1.679  0.00  0.00    +0.210 HD
ENDBRANCH  13  33
BRANCH   2  35
ATOM     35  C   UNL     1       0.155  -2.289   3.087  0.00  0.00    +0.320 C 
ATOM     36  O   UNL     1      -0.730  -3.051   3.398  0.00  0.00    -0.250 OA
BRANCH  35  37
ATOM     37  O   UNL     1       0.895  -1.697   4.037  0.00  0.00    -0.467 OA
ATOM     38  C   UNL     1       0.581  -2.013   5.395  0.00  0.00    +0.280 C 
ENDBRANCH  35  37
ENDBRANCH   2  35
BRANCH   1  39
ATOM     39  O   UNL     1      -0.966  -0.142   2.342  0.00  0.00    -0.362 OA
ATOM     40  H   UNL     1      -1.207   0.792   2.285  0.00  0.00    +0.213 HD
ENDBRANCH   1  39
TORSDOF 6
