REMARK  Name = ZINC33667128
REMARK  8 active torsions:
REMARK  status: ('A' for Active; 'I' for Inactive)
REMARK    1  A    between atoms: C_1  and  C_2
REMARK    2  A    between atoms: C_2  and  C_3
REMARK    3  A    between atoms: C_3  and  C_5
REMARK    4  A    between atoms: C_3  and  N_23
REMARK    5  A    between atoms: N_15  and  C_16
REMARK    6  A    between atoms: C_19  and  C_22
REMARK    7  A    between atoms: N_23  and  C_24
REMARK    8  A    between atoms: N_27  and  C_28
REMARK                            x       y       z     vdW  Elec       q    Type
REMARK                         _______ _______ _______ _____ _____    ______ ____
ROOT
ATOM      1  C   UNL     1      -2.080   2.027   2.158  0.00  0.00    +0.138 A 
ATOM      2  N   UNL     1      -2.717   3.111   1.830  0.00  0.00    -0.231 NA
ATOM      3  C   UNL     1      -3.359   3.866   2.756  0.00  0.00    +0.078 A 
ATOM      4  C   UNL     1      -4.044   5.031   2.404  0.00  0.00    +0.028 A 
ATOM      5  C   UNL     1      -4.682   5.767   3.376  0.00  0.00    +0.002 A 
ATOM      6  C   UNL     1      -4.654   5.366   4.705  0.00  0.00    +0.001 A 
ATOM      7  C   UNL     1      -3.985   4.221   5.078  0.00  0.00    +0.015 A 
ATOM      8  C   UNL     1      -3.332   3.461   4.109  0.00  0.00    +0.065 A 
ATOM      9  C   UNL     1      -2.603   2.231   4.447  0.00  0.00    +0.266 A 
ATOM     10  O   UNL     1      -2.541   1.827   5.594  0.00  0.00    -0.267 OA
ATOM     11  N   UNL     1      -2.007   1.561   3.434  0.00  0.00    -0.263 N 
ENDROOT
BRANCH  11  12
ATOM     12  C   UNL     1      -1.304   0.379   3.701  0.00  0.00    +0.051 A 
ATOM     13  C   UNL     1      -1.968  -0.840   3.707  0.00  0.00    +0.026 A 
ATOM     14  C   UNL     1      -1.271  -2.004   3.966  0.00  0.00    +0.005 A 
ATOM     15  C   UNL     1       0.086  -1.954   4.230  0.00  0.00    -0.050 A 
ATOM     16  C   UNL     1       0.749  -0.741   4.231  0.00  0.00    +0.005 A 
ATOM     17  C   UNL     1       0.059   0.425   3.967  0.00  0.00    +0.026 A 
ATOM     18  C   UNL     1       0.842  -3.225   4.519  0.00  0.00    +0.044 C 
ENDBRANCH  11  12
BRANCH   1  19
ATOM     19  C   UNL     1      -1.393   1.245   1.069  0.00  0.00    +0.143 C 
BRANCH  19  20
ATOM     20  N   UNL     1      -2.189   1.312  -0.159  0.00  0.00    -0.278 N 
ATOM     21  C   UNL     1      -2.347   2.589  -0.860  0.00  0.00    +0.134 C 
ATOM     22  C   UNL     1      -2.777   0.201  -0.643  0.00  0.00    +0.307 C 
ATOM     23  O   UNL     1      -2.647  -0.859  -0.060  0.00  0.00    -0.252 OA
ATOM     24  N   UNL     1      -3.510   0.263  -1.772  0.00  0.00    -0.268 N 
ATOM     25  H   UNL     1      -3.561   1.201  -2.344  0.00  0.00    +0.156 HD
BRANCH  24  26
ATOM     26  C   UNL     1      -4.208  -0.867  -2.217  0.00  0.00    +0.053 A 
ATOM     27  C   UNL     1      -4.486  -1.904  -1.337  0.00  0.00    +0.026 A 
ATOM     28  C   UNL     1      -5.174  -3.017  -1.779  0.00  0.00    +0.022 A 
ATOM     29  C   UNL     1      -5.586  -3.100  -3.098  0.00  0.00    +0.042 A 
ATOM     30  C   UNL     1      -5.310  -2.068  -3.977  0.00  0.00    +0.041 A 
ATOM     31  C   UNL     1      -4.628  -0.949  -3.539  0.00  0.00    +0.064 A 
ATOM     32 CL   UNL     1      -4.288   0.348  -4.641  0.00  0.00    -0.082 Cl
ATOM     33 CL   UNL     1      -6.451  -4.501  -3.649  0.00  0.00    -0.083 Cl
ENDBRANCH  24  26
ENDBRANCH  19  20
BRANCH  19  35
ATOM     34  C   UNL     1       0.740   0.971  -0.204  0.00  0.00    +0.006 C 
ATOM     35  C   UNL     1      -0.007   1.839   0.811  0.00  0.00    +0.027 C 
ENDBRANCH  19  35
ENDBRANCH   1  19
TORSDOF 5
