REMARK  Name = ZINC36584438
REMARK  15 active torsions:
REMARK  status: ('A' for Active; 'I' for Inactive)
REMARK    1  A    between atoms: C_1  and  C_2
REMARK    2  A    between atoms: C_5  and  S_8
REMARK    3  A    between atoms: S_8  and  C_11
REMARK    4  A    between atoms: C_11  and  N_12
REMARK    5  A    between atoms: C_13  and  C_15
REMARK    6  A    between atoms: C_15  and  C_17
REMARK    7  A    between atoms: C_15  and  N_24
REMARK    8  A    between atoms: C_22  and  O_23
REMARK    9  A    between atoms: N_24  and  C_35
REMARK   10  A    between atoms: C_25  and  C_27
REMARK   11  A    between atoms: C_30  and  O_33
REMARK   12  A    between atoms: O_33  and  C_34
REMARK   13  A    between atoms: C_35  and  C_36
REMARK   14  A    between atoms: C_35  and  C_37
REMARK   15  A    between atoms: C_35  and  C_38
REMARK                            x       y       z     vdW  Elec       q    Type
REMARK                         _______ _______ _______ _____ _____    ______ ____
ROOT
ATOM      1  C   UNL     1       2.449  -5.168   3.027  0.00  0.00    +0.196 C 
ENDROOT
BRANCH   1   2
ATOM      2  C   UNL     1       3.723  -4.366   3.089  0.00  0.00    +0.023 A 
ATOM      3  C   UNL     1       4.886  -4.949   3.552  0.00  0.00    +0.009 A 
ATOM      4  C   UNL     1       6.055  -4.213   3.609  0.00  0.00    +0.001 A 
ATOM      5  C   UNL     1       6.063  -2.891   3.202  0.00  0.00    +0.004 A 
ATOM      6  C   UNL     1       4.903  -2.304   2.737  0.00  0.00    +0.046 A 
ATOM      7  C   UNL     1       3.730  -3.042   2.674  0.00  0.00    +0.122 A 
BRANCH   7   8
ATOM      8  O   UNL     1       2.588  -2.467   2.212  0.00  0.00    -0.506 OA
ATOM      9  H   UNL     1       2.056  -2.043   2.898  0.00  0.00    +0.292 HD
ENDBRANCH   7   8
ENDBRANCH   1   2
BRANCH   1  11
ATOM     10  N   UNL     1       2.907  -5.538   0.625  0.00  0.00    -0.294 N 
ATOM     11  C   UNL     1       2.461  -6.036   1.795  0.00  0.00    +0.239 C 
ATOM     12  O   UNL     1       2.070  -7.182   1.857  0.00  0.00    -0.273 OA
ATOM     13  H   UNL     1       3.221  -4.622   0.575  0.00  0.00    +0.150 HD
BRANCH  10  14
ATOM     14  C   UNL     1       2.919  -6.382  -0.573  0.00  0.00    +0.278 C 
BRANCH  14  15
ATOM     15  S   UNL     1       1.403  -6.098  -1.527  0.00  0.00    +0.013 S 
ATOM     16  O   UNL     1       0.271  -6.133  -0.669  0.00  0.00    -0.168 OA
ATOM     17  O   UNL     1       1.428  -6.863  -2.725  0.00  0.00    -0.168 OA
BRANCH  15  22
ATOM     18  C   UNL     1       1.769  -0.360  -3.357  0.00  0.00    +0.044 C 
ATOM     19  C   UNL     1       1.677  -1.794  -2.900  0.00  0.00    -0.050 A 
ATOM     20  C   UNL     1       2.197  -2.804  -3.686  0.00  0.00    +0.005 A 
ATOM     21  C   UNL     1       2.114  -4.119  -3.267  0.00  0.00    +0.027 A 
ATOM     22  C   UNL     1       1.510  -4.423  -2.061  0.00  0.00    +0.090 A 
ATOM     23  C   UNL     1       0.991  -3.412  -1.274  0.00  0.00    +0.027 A 
ATOM     24  C   UNL     1       1.079  -2.097  -1.691  0.00  0.00    +0.005 A 
ENDBRANCH  15  22
ENDBRANCH  14  15
ENDBRANCH  10  14
ENDBRANCH   1  11
BRANCH   1  25
ATOM     25  N   UNL     1       2.347  -6.014   4.219  0.00  0.00    -0.277 N 
ATOM     26  C   UNL     1       3.389  -6.785   4.590  0.00  0.00    +0.248 C 
ATOM     27  O   UNL     1       3.654  -6.922   5.769  0.00  0.00    -0.270 OA
BRANCH  26  28
ATOM     28  C   UNL     1       4.208  -7.462   3.565  0.00  0.00    +0.037 A 
ATOM     29  C   UNL     1       4.529  -6.801   2.377  0.00  0.00    +0.016 A 
ATOM     30  C   UNL     1       5.294  -7.436   1.423  0.00  0.00    +0.046 A 
ATOM     31  C   UNL     1       5.745  -8.732   1.642  0.00  0.00    +0.120 A 
ATOM     32  C   UNL     1       5.428  -9.393   2.823  0.00  0.00    +0.046 A 
ATOM     33  C   UNL     1       4.668  -8.763   3.784  0.00  0.00    +0.016 A 
BRANCH  31  34
ATOM     34  O   UNL     1       6.498  -9.355   0.700  0.00  0.00    -0.495 OA
ATOM     35  C   UNL     1       6.928 -10.687   0.989  0.00  0.00    +0.277 C 
ENDBRANCH  31  34
ENDBRANCH  26  28
BRANCH  25  36
ATOM     36  C   UNL     1       1.113  -6.022   5.008  0.00  0.00    +0.030 C 
ATOM     37  C   UNL     1       0.060  -5.154   4.316  0.00  0.00    +0.031 C 
ATOM     38  C   UNL     1       0.593  -7.456   5.127  0.00  0.00    +0.031 C 
ATOM     39  C   UNL     1       1.396  -5.465   6.404  0.00  0.00    +0.031 C 
ENDBRANCH  25  36
ENDBRANCH   1  25
TORSDOF 10
