REMARK  Name = ZINC05239012
REMARK  8 active torsions:
REMARK  status: ('A' for Active; 'I' for Inactive)
REMARK    1  A    between atoms: C_1  and  C_2
REMARK    2  A    between atoms: C_2  and  C_3
REMARK    3  A    between atoms: C_4  and  C_25
REMARK    4  A    between atoms: C_9  and  S_11
REMARK    5  A    between atoms: S_11  and  C_12
REMARK    6  A    between atoms: C_12  and  C_14
REMARK    7  A    between atoms: C_12  and  C_15
REMARK    8  A    between atoms: N_17  and  C_18
REMARK                            x       y       z     vdW  Elec       q    Type
REMARK                         _______ _______ _______ _____ _____    ______ ____
ROOT
ATOM      1  S   UNL     1       1.183  -2.435  -0.022  0.00  0.00    -0.075 S 
ENDROOT
BRANCH   1   8
ATOM      2  C   UNL     1       2.392   1.295  -0.043  0.00  0.00    +0.066 A 
ATOM      3  C   UNL     1       1.211   2.038  -0.028  0.00  0.00    +0.137 A 
ATOM      4  C   UNL     1      -0.027   1.340  -0.011  0.00  0.00    +0.270 A 
ATOM      5  O   UNL     1      -1.084   1.947  -0.002  0.00  0.00    -0.266 OA
ATOM      6  N   UNL     1      -0.006  -0.010  -0.010  0.00  0.00    -0.301 N 
ATOM      7  H   UNL     1      -0.838  -0.508   0.001  0.00  0.00    +0.171 HD
ATOM      8  C   UNL     1       1.183  -0.673  -0.025  0.00  0.00    +0.170 A 
ATOM      9  N   UNL     1       2.337  -0.028  -0.041  0.00  0.00    -0.227 NA
BRANCH   2  11
ATOM     10  C   UNL     1       4.254   2.124   1.370  0.00  0.00    +0.010 C 
ATOM     11  C   UNL     1       3.726   1.996  -0.061  0.00  0.00    +0.053 C 
ENDBRANCH   2  11
BRANCH   3  12
ATOM     12  C   UNL     1       1.246   3.470  -0.030  0.00  0.00    +0.106 C 
ATOM     13  N   UNL     1       1.273   4.605  -0.032  0.00  0.00    -0.191 NA
ENDBRANCH   3  12
ENDBRANCH   1   8
BRANCH   1  14
ATOM     14  C   UNL     1       2.966  -2.748  -0.046  0.00  0.00    +0.137 C 
ATOM     15  C   UNL     1       3.591  -2.235   1.253  0.00  0.00    +0.029 C 
BRANCH  14  16
ATOM     16  C   UNL     1       3.213  -4.230  -0.171  0.00  0.00    +0.230 C 
ATOM     17  O   UNL     1       2.339  -5.018   0.121  0.00  0.00    -0.274 OA
ATOM     18  N   UNL     1       4.407  -4.679  -0.607  0.00  0.00    -0.285 N 
ATOM     19  H   UNL     1       5.083  -4.050  -0.904  0.00  0.00    +0.155 HD
BRANCH  18  20
ATOM     20  C   UNL     1       4.671  -6.053  -0.631  0.00  0.00    +0.034 A 
ATOM     21  C   UNL     1       5.951  -6.520  -0.364  0.00  0.00    +0.025 A 
ATOM     22  C   UNL     1       6.208  -7.877  -0.384  0.00  0.00    +0.022 A 
ATOM     23  C   UNL     1       5.194  -8.770  -0.681  0.00  0.00    +0.041 A 
ATOM     24  C   UNL     1       3.918  -8.307  -0.953  0.00  0.00    +0.022 A 
ATOM     25  C   UNL     1       3.655  -6.952  -0.929  0.00  0.00    +0.025 A 
ATOM     26 CL   UNL     1       5.521 -10.475  -0.711  0.00  0.00    -0.084 Cl
ENDBRANCH  18  20
ENDBRANCH  14  16
ENDBRANCH   1  14
TORSDOF 6
