REMARK  Name = ZINC02248473
REMARK  7 active torsions:
REMARK  status: ('A' for Active; 'I' for Inactive)
REMARK    1  A    between atoms: C_1  and  O_2
REMARK    2  A    between atoms: O_2  and  C_3
REMARK    3  A    between atoms: C_3  and  C_5
REMARK    4  A    between atoms: C_10  and  N_11
REMARK    5  A    between atoms: C_12  and  C_14
REMARK    6  A    between atoms: C_14  and  S_15
REMARK    7  A    between atoms: S_15  and  C_16
REMARK                            x       y       z     vdW  Elec       q    Type
REMARK                         _______ _______ _______ _____ _____    ______ ____
ROOT
ATOM      1  S   UNL     1       1.470  -0.648   0.046  0.00  0.00    -0.077 S 
ENDROOT
BRANCH   1   2
ATOM      2  C   UNL     1       1.333  -2.404   0.063  0.00  0.00    +0.191 A 
ATOM      3  N   UNL     1       0.128  -2.964   0.043  0.00  0.00    -0.207 NA
ATOM      4  C   UNL     1      -0.037  -4.276   0.055  0.00  0.00    +0.129 A 
ATOM      5  C   UNL     1       1.107  -5.121   0.090  0.00  0.00    +0.051 A 
ATOM      6  C   UNL     1       1.164  -6.585   0.110  0.00  0.00    -0.025 A 
ATOM      7  C   UNL     1       2.387  -7.149   0.143  0.00  0.00    -0.004 A 
ATOM      8  S   UNL     1       3.524  -5.789   0.151  0.00  0.00    -0.073 S 
ATOM      9  C   UNL     1       2.350  -4.460   0.110  0.00  0.00    +0.115 A 
ATOM     10  N   UNL     1       2.434  -3.143   0.090  0.00  0.00    -0.214 NA
ATOM     11  C   UNL     1       2.712  -8.612   0.169  0.00  0.00    +0.043 C 
ATOM     12  C   UNL     1       1.435  -9.386   0.527  0.00  0.00    +0.005 C 
ATOM     13  C   UNL     1       0.286  -8.866  -0.342  0.00  0.00    +0.005 C 
ATOM     14  C   UNL     1      -0.094  -7.450   0.093  0.00  0.00    +0.037 C 
ATOM     15  N   UNL     1      -1.309  -4.820   0.033  0.00  0.00    -0.343 N 
ATOM     16  H   UNL     1      -2.017  -4.379  -0.462  0.00  0.00    +0.144 HD
ATOM     17  H   UNL     1      -1.492  -5.644   0.511  0.00  0.00    +0.144 HD
ENDBRANCH   1   2
BRANCH   1  18
ATOM     18  C   UNL     1      -0.282  -0.196   0.002  0.00  0.00    +0.173 C 
BRANCH  18  20
ATOM     19  N   UNL     1      -1.635   1.874  -0.057  0.00  0.00    -0.284 N 
ATOM     20  C   UNL     1      -0.414   1.305  -0.018  0.00  0.00    +0.228 C 
ATOM     21  O   UNL     1       0.580   2.001  -0.004  0.00  0.00    -0.275 OA
ATOM     22  H   UNL     1      -2.425   1.321  -0.155  0.00  0.00    +0.155 HD
BRANCH  19  28
ATOM     23  C   UNL     1      -2.883   3.904  -0.499  0.00  0.00    +0.080 A 
ATOM     24  C   UNL     1      -2.998   5.292  -0.391  0.00  0.00    +0.017 A 
ATOM     25  C   UNL     1      -2.013   6.016   0.244  0.00  0.00    +0.001 A 
ATOM     26  C   UNL     1      -0.907   5.375   0.778  0.00  0.00    +0.002 A 
ATOM     27  C   UNL     1      -0.782   4.003   0.684  0.00  0.00    +0.024 A 
ATOM     28  C   UNL     1      -1.762   3.257   0.043  0.00  0.00    +0.047 A 
BRANCH  23  29
ATOM     29  C   UNL     1      -3.934   3.123  -1.176  0.00  0.00    +0.341 C 
ATOM     30  O   UNL     1      -3.785   1.930  -1.354  0.00  0.00    -0.245 OA
BRANCH  29  32
ATOM     31  C   UNL     1      -6.050   2.901  -2.259  0.00  0.00    +0.280 C 
ATOM     32  O   UNL     1      -5.059   3.732  -1.599  0.00  0.00    -0.464 OA
ENDBRANCH  29  32
ENDBRANCH  23  29
ENDBRANCH  19  28
ENDBRANCH  18  20
ENDBRANCH   1  18
TORSDOF 6
