REMARK  Name = ZINC40970206
REMARK  6 active torsions:
REMARK  status: ('A' for Active; 'I' for Inactive)
REMARK    1  A    between atoms: C_1  and  C_2
REMARK    2  A    between atoms: C_3  and  C_9
REMARK    3  A    between atoms: C_7  and  N_8
REMARK    4  A    between atoms: C_9  and  S_10
REMARK    5  A    between atoms: S_10  and  C_12
REMARK    6  A    between atoms: C_15  and  N_18
REMARK                            x       y       z     vdW  Elec       q    Type
REMARK                         _______ _______ _______ _____ _____    ______ ____
ROOT
ATOM      1  C   UNL     1      -0.011   0.072  -2.498  0.00  0.00    +0.144 C 
ENDROOT
BRANCH   1   4
ATOM      2  C   UNL     1      -0.018   1.503   0.010  0.00  0.00    +0.046 C 
ATOM      3  C   UNL     1       0.002  -0.004   0.002  0.00  0.00    -0.026 A 
ATOM      4  C   UNL     1       0.006  -0.689  -1.198  0.00  0.00    -0.030 A 
ATOM      5  C   UNL     1       0.024  -2.071  -1.206  0.00  0.00    +0.005 A 
ATOM      6  C   UNL     1       0.039  -2.773  -0.014  0.00  0.00    +0.002 A 
ATOM      7  C   UNL     1       0.036  -2.095   1.188  0.00  0.00    +0.023 A 
ATOM      8  C   UNL     1       0.023  -0.706   1.200  0.00  0.00    +0.028 A 
BRANCH   8   9
ATOM      9  N   UNL     1       0.025  -0.016   2.415  0.00  0.00    -0.358 N 
ATOM     10  H   UNL     1       0.012   0.954   2.422  0.00  0.00    +0.142 HD
ATOM     11  H   UNL     1       0.040  -0.507   3.252  0.00  0.00    +0.142 HD
ENDBRANCH   8   9
ENDBRANCH   1   4
BRANCH   1  12
ATOM     12  S   UNL     1       1.693   0.400  -3.028  0.00  0.00    +0.058 S 
ATOM     13  O   UNL     1       2.288   1.345  -2.150  0.00  0.00    -0.252 OA
BRANCH  12  14
ATOM     14  C   UNL     1       1.506   1.283  -4.542  0.00  0.00    +0.039 A 
ATOM     15  C   UNL     1       1.438   0.595  -5.739  0.00  0.00    +0.019 A 
ATOM     16  C   UNL     1       1.291   1.288  -6.926  0.00  0.00    +0.034 A 
ATOM     17  C   UNL     1       1.212   2.668  -6.916  0.00  0.00    +0.126 A 
ATOM     18  C   UNL     1       1.279   3.355  -5.719  0.00  0.00    +0.034 A 
ATOM     19  C   UNL     1       1.421   2.663  -4.531  0.00  0.00    +0.019 A 
BRANCH  17  20
ATOM     20  N   UNL     1       1.056   3.410  -8.188  0.00  0.00    +0.056 N 
ATOM     21  O   UNL     1       0.997   2.809  -9.235  0.00  0.00    -0.126 OA
ATOM     22  O   UNL     1       0.986   4.617  -8.179  0.00  0.00    -0.126 OA
ENDBRANCH  17  20
ENDBRANCH  12  14
ENDBRANCH   1  12
TORSDOF 5
