REMARK  Name = ZINC20243753
REMARK  10 active torsions:
REMARK  status: ('A' for Active; 'I' for Inactive)
REMARK    1  A    between atoms: C_1  and  C_2
REMARK    2  A    between atoms: C_5  and  N_8
REMARK    3  A    between atoms: C_9  and  C_31
REMARK    4  A    between atoms: C_10  and  C_15
REMARK    5  A    between atoms: C_12  and  C_13
REMARK    6  A    between atoms: N_16  and  N_17
REMARK    7  A    between atoms: C_18  and  C_20
REMARK    8  A    between atoms: C_20  and  C_22
REMARK    9  A    between atoms: C_20  and  S_23
REMARK   10  A    between atoms: S_23  and  C_24
REMARK                            x       y       z     vdW  Elec       q    Type
REMARK                         _______ _______ _______ _____ _____    ______ ____
ROOT
ATOM      1  C   UNL     1       0.637  -7.870   0.749  0.00  0.00    +0.141 C 
ATOM      2  N   UNL     1       0.687  -9.148   0.523  0.00  0.00    -0.188 NA
ENDROOT
BRANCH   1   5
ATOM      3  N   UNL     1       3.146  -5.279   0.236  0.00  0.00    -0.316 N 
ATOM      4  C   UNL     1       1.905  -5.672   0.633  0.00  0.00    +0.031 A 
ATOM      5  C   UNL     1       1.805  -7.022   0.452  0.00  0.00    +0.030 A 
ATOM      6  C   UNL     1       3.092  -7.460  -0.097  0.00  0.00    +0.048 A 
ATOM      7  C   UNL     1       3.857  -6.358  -0.209  0.00  0.00    +0.036 A 
ATOM      8  C   UNL     1       5.269  -6.320  -0.736  0.00  0.00    +0.065 C 
ATOM      9 BR   UNL     1       3.580  -9.226  -0.564  0.00  0.00    -0.048 Br
ATOM     10  C   UNL     1       0.827  -4.773   1.180  0.00  0.00    +0.064 C 
BRANCH   3  15
ATOM     11  C   UNL     1       5.071   0.057   0.384  0.00  0.00    +0.044 C 
ATOM     12  C   UNL     1       4.560  -1.360   0.344  0.00  0.00    -0.050 A 
ATOM     13  C   UNL     1       4.390  -1.999  -0.870  0.00  0.00    +0.005 A 
ATOM     14  C   UNL     1       3.922  -3.298  -0.909  0.00  0.00    +0.026 A 
ATOM     15  C   UNL     1       3.622  -3.962   0.273  0.00  0.00    +0.047 A 
ATOM     16  C   UNL     1       3.793  -3.318   1.490  0.00  0.00    +0.026 A 
ATOM     17  C   UNL     1       4.266  -2.020   1.523  0.00  0.00    +0.005 A 
ENDBRANCH   3  15
ENDBRANCH   1   5
BRANCH   2  18
ATOM     18  N   UNL     1      -0.423  -9.953   0.806  0.00  0.00    -0.206 N 
ATOM     19  C   UNL     1      -0.371 -11.280   0.572  0.00  0.00    +0.245 C 
ATOM     20  O   UNL     1       0.639 -11.776   0.117  0.00  0.00    -0.273 OA
ATOM     21  H   UNL     1      -1.230  -9.557   1.169  0.00  0.00    +0.177 HD
BRANCH  19  22
ATOM     22  C   UNL     1      -1.566 -12.146   0.875  0.00  0.00    +0.136 C 
ATOM     23  C   UNL     1      -1.607 -12.451   2.374  0.00  0.00    +0.029 C 
BRANCH  22  24
ATOM     24  S   UNL     1      -1.438 -13.699  -0.054  0.00  0.00    -0.113 S 
BRANCH  24  25
ATOM     25  C   UNL     1      -1.662 -13.210  -1.733  0.00  0.00    +0.009 A 
ATOM     26  C   UNL     1      -1.993 -11.896  -2.037  0.00  0.00    +0.016 A 
ATOM     27  C   UNL     1      -2.168 -11.516  -3.353  0.00  0.00    +0.021 A 
ATOM     28  C   UNL     1      -2.014 -12.444  -4.369  0.00  0.00    +0.041 A 
ATOM     29  C   UNL     1      -1.684 -13.754  -4.069  0.00  0.00    +0.021 A 
ATOM     30  C   UNL     1      -1.502 -14.138  -2.755  0.00  0.00    +0.016 A 
ATOM     31 CL   UNL     1      -2.235 -11.963  -6.022  0.00  0.00    -0.084 Cl
ENDBRANCH  24  25
ENDBRANCH  22  24
ENDBRANCH  19  22
ENDBRANCH   2  18
TORSDOF 6
