REMARK  Name = ZINC09235047
REMARK  9 active torsions:
REMARK  status: ('A' for Active; 'I' for Inactive)
REMARK    1  A    between atoms: C_1  and  N_54
REMARK    2  A    between atoms: C_2  and  N_54
REMARK    3  A    between atoms: C_3  and  C_4
REMARK    4  A    between atoms: C_3  and  N_54
REMARK    5  A    between atoms: C_4  and  C_5
REMARK    6  A    between atoms: C_5  and  N_6
REMARK    7  A    between atoms: C_7  and  C_25
REMARK    8  A    between atoms: C_10  and  C_11
REMARK    9  A    between atoms: C_10  and  O_20
REMARK                            x       y       z     vdW  Elec       q    Type
REMARK                         _______ _______ _______ _____ _____    ______ ____
ROOT
ATOM      1  N   UNL     1       2.235   0.840  -0.025  0.00  0.00    -0.284 N 
ATOM      2  C   UNL     1       1.448  -0.387  -0.185  0.00  0.00    +0.145 C 
ATOM      3  C   UNL     1       0.005  -0.009   0.054  0.00  0.00    +0.074 C 
ATOM      4  C   UNL     1      -1.094  -0.851   0.007  0.00  0.00    +0.168 C 
ATOM      5  C   UNL     1       0.002   1.364   0.332  0.00  0.00    +0.249 C 
ATOM      6  O   UNL     1      -0.982   2.041   0.574  0.00  0.00    -0.282 OA
ATOM      7  C   UNL     1       1.404   1.854   0.273  0.00  0.00    +0.288 C 
ATOM      8  O   UNL     1       1.749   3.002   0.466  0.00  0.00    -0.266 OA
ENDROOT
BRANCH   4   9
ATOM      9  C   UNL     1      -2.443  -0.300   0.134  0.00  0.00    +0.171 A 
ATOM     10  C   UNL     1      -3.420  -0.789   0.949  0.00  0.00    +0.061 A 
ATOM     11  C   UNL     1      -4.558   0.035   0.765  0.00  0.00    +0.021 A 
ATOM     12  C   UNL     1      -5.846   0.043   1.312  0.00  0.00    +0.011 A 
ATOM     13  C   UNL     1      -6.746   0.991   0.917  0.00  0.00    +0.001 A 
ATOM     14  C   UNL     1      -6.391   1.949  -0.025  0.00  0.00    +0.004 A 
ATOM     15  C   UNL     1      -5.128   1.960  -0.576  0.00  0.00    +0.047 A 
ATOM     16  C   UNL     1      -4.196   1.005  -0.189  0.00  0.00    +0.136 A 
ATOM     17  O   UNL     1      -2.917   0.768  -0.544  0.00  0.00    -0.452 OA
ENDBRANCH   4   9
BRANCH   2  18
ATOM     18  C   UNL     1       1.887  -1.416   0.825  0.00  0.00    -0.022 A 
ATOM     19  C   UNL     1       2.220  -1.027   2.109  0.00  0.00    +0.007 A 
ATOM     20  C   UNL     1       2.617  -1.971   3.037  0.00  0.00    +0.020 A 
ATOM     21  C   UNL     1       2.690  -3.305   2.678  0.00  0.00    +0.041 A 
ATOM     22  C   UNL     1       2.361  -3.694   1.391  0.00  0.00    +0.020 A 
ATOM     23  C   UNL     1       1.960  -2.749   0.466  0.00  0.00    +0.007 A 
ATOM     24 CL   UNL     1       3.194  -4.491   3.841  0.00  0.00    -0.084 Cl
ENDBRANCH   2  18
BRANCH   4  25
ATOM     25  O   UNL     1      -0.920  -2.181  -0.155  0.00  0.00    -0.503 OA
ATOM     26  H   UNL     1      -1.811  -2.635  -0.166  0.00  0.00    +0.292 HD
ENDBRANCH   4  25
BRANCH   1  27
ATOM     27  C   UNL     1       3.689   0.944  -0.168  0.00  0.00    +0.107 C 
BRANCH  27  28
ATOM     28  C   UNL     1       4.037   1.264  -1.623  0.00  0.00    +0.000 C 
BRANCH  28  29
ATOM     29  C   UNL     1       5.556   1.373  -1.772  0.00  0.00    -0.078 C 
BRANCH  29  32
ATOM     30  C   UNL     1       7.312   2.025  -3.306  0.00  0.00    -0.097 C 
ATOM     31  C   UNL     1       5.532   0.563  -4.053  0.00  0.00    -0.097 C 
ATOM     32  N   UNL     1       5.875   1.703  -3.176  0.00  0.00    +0.376 N 
ATOM     33  H   UNL     1       5.323   2.520  -3.461  0.00  0.00    -0.083 HD
ENDBRANCH  29  32
ENDBRANCH  28  29
ENDBRANCH  27  28
ENDBRANCH   1  27
TORSDOF 7
