REMARK  Name = ZINC02212073
REMARK  13 active torsions:
REMARK  status: ('A' for Active; 'I' for Inactive)
REMARK    1  A    between atoms: C_1  and  C_2
REMARK    2  A    between atoms: C_5  and  C_8
REMARK    3  A    between atoms: C_8  and  C_18
REMARK    4  A    between atoms: C_12  and  C_15
REMARK    5  A    between atoms: C_15  and  C_16
REMARK    6  A    between atoms: C_15  and  C_17
REMARK    7  A    between atoms: C_18  and  C_19
REMARK    8  A    between atoms: C_19  and  N_20
REMARK    9  A    between atoms: N_20  and  C_21
REMARK   10  A    between atoms: C_21  and  C_22
REMARK   11  A    between atoms: C_25  and  N_28
REMARK   12  A    between atoms: N_28  and  C_29
REMARK   13  A    between atoms: N_28  and  C_30
REMARK                            x       y       z     vdW  Elec       q    Type
REMARK                         _______ _______ _______ _____ _____    ______ ____
ROOT
ATOM      1  C   UNL     1       0.043  -4.303  -0.028  0.00  0.00    -0.001 C 
ATOM      2  C   UNL     1      -1.269  -4.812  -0.633  0.00  0.00    +0.039 C 
ATOM      3  C   UNL     1      -2.436  -4.378   0.258  0.00  0.00    +0.161 C 
ATOM      4  O   UNL     1      -2.237  -4.882   1.580  0.00  0.00    -0.376 OA
ATOM      5  C   UNL     1      -1.049  -4.402   2.215  0.00  0.00    +0.122 C 
ATOM      6  C   UNL     1       0.173  -4.837   1.402  0.00  0.00    +0.043 C 
ENDROOT
BRANCH   1  11
ATOM      7  C   UNL     1       0.015   1.475   0.065  0.00  0.00    +0.044 C 
ATOM      8  C   UNL     1       0.023  -0.032   0.041  0.00  0.00    -0.050 A 
ATOM      9  C   UNL     1      -0.972  -0.717  -0.632  0.00  0.00    +0.003 A 
ATOM     10  C   UNL     1      -0.965  -2.099  -0.655  0.00  0.00    +0.004 A 
ATOM     11  C   UNL     1       0.036  -2.796  -0.004  0.00  0.00    -0.041 A 
ATOM     12  C   UNL     1       1.031  -2.111   0.668  0.00  0.00    +0.004 A 
ATOM     13  C   UNL     1       1.027  -0.729   0.687  0.00  0.00    +0.003 A 
ENDBRANCH   1  11
BRANCH   5  14
ATOM     14  C   UNL     1      -0.956  -4.982   3.627  0.00  0.00    +0.012 C 
ATOM     15  C   UNL     1      -2.179  -4.548   4.438  0.00  0.00    +0.010 C 
ATOM     16  C   UNL     1      -0.911  -6.509   3.550  0.00  0.00    +0.010 C 
ENDBRANCH   5  14
BRANCH   1  17
ATOM     17  C   UNL     1       1.222  -4.796  -0.868  0.00  0.00    -0.007 C 
BRANCH  17  18
ATOM     18  C   UNL     1       1.155  -4.167  -2.261  0.00  0.00    -0.081 C 
BRANCH  18  19
ATOM     19  N   UNL     1       2.218  -4.730  -3.104  0.00  0.00    +0.382 N 
ATOM     20  H   UNL     1       3.116  -4.534  -2.689  0.00  0.00    -0.085 HD
ATOM     21  H   UNL     1       2.093  -5.729  -3.180  0.00  0.00    -0.085 HD
BRANCH  19  22
ATOM     22  C   UNL     1       2.153  -4.126  -4.442  0.00  0.00    -0.047 C 
BRANCH  22  23
ATOM     23  C   UNL     1       3.243  -4.704  -5.307  0.00  0.00    -0.064 A 
ATOM     24  C   UNL     1       4.488  -4.102  -5.342  0.00  0.00    +0.003 A 
ATOM     25  C   UNL     1       5.489  -4.629  -6.134  0.00  0.00    +0.023 A 
ATOM     26  C   UNL     1       5.245  -5.764  -6.896  0.00  0.00    +0.029 A 
ATOM     27  C   UNL     1       3.993  -6.366  -6.859  0.00  0.00    +0.023 A 
ATOM     28  C   UNL     1       2.998  -5.838  -6.060  0.00  0.00    +0.003 A 
BRANCH  26  29
ATOM     29  N   UNL     1       6.255  -6.300  -7.699  0.00  0.00    -0.336 N 
ATOM     30  C   UNL     1       7.532  -5.595  -7.836  0.00  0.00    +0.129 C 
ATOM     31  C   UNL     1       6.037  -7.565  -8.403  0.00  0.00    +0.129 C 
ENDBRANCH  26  29
ENDBRANCH  22  23
ENDBRANCH  19  22
ENDBRANCH  18  19
ENDBRANCH  17  18
ENDBRANCH   1  17
TORSDOF 8
