REMARK  Name = ZINC32858154
REMARK  7 active torsions:
REMARK  status: ('A' for Active; 'I' for Inactive)
REMARK    1  A    between atoms: C_1  and  C_2
REMARK    2  A    between atoms: C_3  and  C_12
REMARK    3  A    between atoms: C_18  and  C_20
REMARK    4  A    between atoms: C_20  and  C_22
REMARK    5  A    between atoms: C_20  and  N_33
REMARK    6  A    between atoms: C_22  and  C_23
REMARK    7  A    between atoms: C_34  and  C_36
REMARK                            x       y       z     vdW  Elec       q    Type
REMARK                         _______ _______ _______ _____ _____    ______ ____
ROOT
ATOM      1  C   UNL     1      -2.427  -0.501  -0.285  0.00  0.00    +0.082 A 
ATOM      2  C   UNL     1      -3.421  -1.438  -0.334  0.00  0.00    +0.077 A 
ATOM      3  S   UNL     1      -4.856  -0.392  -0.523  0.00  0.00    -0.060 S 
ATOM      4  C   UNL     1      -4.030   1.135  -0.519  0.00  0.00    +0.165 A 
ATOM      5  N   UNL     1      -2.771   0.776  -0.376  0.00  0.00    -0.225 NA
ATOM      6  N   UNL     1      -4.563   2.413  -0.632  0.00  0.00    -0.263 N 
ATOM      7  C   UNL     1      -5.894   2.579  -0.767  0.00  0.00    +0.239 C 
ATOM      8  O   UNL     1      -6.626   1.613  -0.790  0.00  0.00    -0.273 OA
ATOM      9  H   UNL     1      -3.899   3.290  -0.612  0.00  0.00    +0.157 HD
ENDROOT
BRANCH   1  12
ATOM     10  C   UNL     1      -0.386   0.764   1.687  0.00  0.00    +0.064 C 
ATOM     11  C   UNL     1      -0.104  -0.360   0.724  0.00  0.00    +0.023 A 
ATOM     12  C   UNL     1      -1.007  -0.901  -0.129  0.00  0.00    +0.029 A 
ATOM     13  C   UNL     1      -0.306  -1.960  -0.872  0.00  0.00    +0.009 A 
ATOM     14  C   UNL     1      -0.688  -2.858  -1.868  0.00  0.00    +0.010 A 
ATOM     15  C   UNL     1       0.224  -3.745  -2.368  0.00  0.00    +0.001 A 
ATOM     16  C   UNL     1       1.528  -3.759  -1.891  0.00  0.00    +0.002 A 
ATOM     17  C   UNL     1       1.925  -2.881  -0.907  0.00  0.00    +0.026 A 
ATOM     18  C   UNL     1       1.012  -1.969  -0.385  0.00  0.00    +0.047 A 
ATOM     19  N   UNL     1       1.102  -0.990   0.580  0.00  0.00    -0.358 N 
ATOM     20  H   UNL     1       1.960  -0.682   1.196  0.00  0.00    +0.166 HD
ENDBRANCH   1  12
BRANCH   7  21
ATOM     21  C   UNL     1      -6.472   3.966  -0.891  0.00  0.00    +0.163 C 
BRANCH  21  22
ATOM     22  N   UNL     1      -7.896   3.933  -0.550  0.00  0.00    -0.304 N 
ATOM     23  C   UNL     1      -8.742   3.163  -1.262  0.00  0.00    +0.211 C 
ATOM     24  O   UNL     1      -8.324   2.497  -2.186  0.00  0.00    -0.276 OA
ATOM     25  C   UNL     1     -10.207   3.130  -0.912  0.00  0.00    +0.109 C 
ATOM     26  H   UNL     1      -8.275   4.537   0.288  0.00  0.00    +0.149 HD
ENDBRANCH  21  22
BRANCH  21  27
ATOM     27  C   UNL     1      -6.302   4.463  -2.328  0.00  0.00    +0.069 C 
BRANCH  27  28
ATOM     28  C   UNL     1      -6.768   5.893  -2.423  0.00  0.00    -0.020 A 
ATOM     29  C   UNL     1      -7.986   6.313  -2.798  0.00  0.00    +0.087 A 
ATOM     30  N   UNL     1      -8.040   7.680  -2.763  0.00  0.00    -0.360 N 
ATOM     31  H   UNL     1      -8.968   8.201  -3.041  0.00  0.00    +0.165 HD
ATOM     32  C   UNL     1      -6.827   8.185  -2.353  0.00  0.00    +0.047 A 
ATOM     33  C   UNL     1      -5.979   7.088  -2.117  0.00  0.00    +0.003 A 
ATOM     34  C   UNL     1      -4.666   7.302  -1.692  0.00  0.00    +0.010 A 
ATOM     35  C   UNL     1      -4.215   8.577  -1.497  0.00  0.00    +0.001 A 
ATOM     36  C   UNL     1      -5.050   9.662  -1.724  0.00  0.00    +0.002 A 
ATOM     37  C   UNL     1      -6.347   9.475  -2.148  0.00  0.00    +0.026 A 
ENDBRANCH  27  28
ENDBRANCH  21  27
ENDBRANCH   7  21
TORSDOF 5
