REMARK  Name = ZINC35363904
REMARK  7 active torsions:
REMARK  status: ('A' for Active; 'I' for Inactive)
REMARK    1  A    between atoms: C_1  and  C_2
REMARK    2  A    between atoms: C_17  and  C_20
REMARK    3  A    between atoms: C_20  and  C_22
REMARK    4  A    between atoms: C_20  and  O_23
REMARK    5  A    between atoms: N_26  and  C_29
REMARK    6  A    between atoms: C_29  and  C_30
REMARK    7  A    between atoms: C_30  and  C_31
REMARK                            x       y       z     vdW  Elec       q    Type
REMARK                         _______ _______ _______ _____ _____    ______ ____
ROOT
ATOM      1  C   UNL     1      -0.018   1.503   0.010  0.00  0.00    +0.044 C 
ATOM      2  C   UNL     1       0.002  -0.004   0.002  0.00  0.00    -0.049 A 
ATOM      3  C   UNL     1       0.006  -0.691  -1.199  0.00  0.00    +0.011 A 
ATOM      4  C   UNL     1       0.024  -2.068  -1.207  0.00  0.00    +0.005 A 
ATOM      5  C   UNL     1       0.040  -2.783  -0.013  0.00  0.00    +0.057 A 
ATOM      6  C   UNL     1       0.036  -2.084   1.193  0.00  0.00    +0.063 A 
ATOM      7  C   UNL     1       0.023  -0.703   1.195  0.00  0.00    +0.025 A 
ATOM      8 CL   UNL     1       0.054  -2.951   2.696  0.00  0.00    -0.082 Cl
ATOM      9  N   UNL     1       0.059  -4.155  -0.272  0.00  0.00    -0.282 N 
ATOM     10  C   UNL     1       0.058  -4.423  -1.593  0.00  0.00    +0.243 C 
ATOM     11  O   UNL     1       0.075  -5.520  -2.110  0.00  0.00    -0.273 OA
ATOM     12  C   UNL     1       0.032  -3.096  -2.302  0.00  0.00    +0.136 C 
ATOM     13  C   UNL     1       1.246  -2.928  -3.223  0.00  0.00    +0.122 C 
ATOM     14  C   UNL     1       0.717  -3.294  -4.638  0.00  0.00    +0.109 C 
ATOM     15  C   UNL     1      -0.769  -3.655  -4.424  0.00  0.00    +0.096 C 
ATOM     16  N   UNL     1      -1.155  -2.973  -3.168  0.00  0.00    -0.293 NA
ATOM     17  C   UNL     1       1.499  -4.540  -4.990  0.00  0.00    +0.227 C 
ATOM     18  O   UNL     1       1.397  -5.162  -6.026  0.00  0.00    -0.275 OA
ATOM     19  N   UNL     1       2.321  -4.849  -3.981  0.00  0.00    -0.241 N 
ATOM     20  C   UNL     1       2.267  -4.003  -2.927  0.00  0.00    +0.228 C 
ATOM     21  O   UNL     1       2.922  -4.086  -1.911  0.00  0.00    -0.275 OA
ATOM     22  H   UNL     1       0.072  -4.837   0.418  0.00  0.00    +0.155 HD
ATOM     23  H   UNL     1      -1.959  -3.413  -2.745  0.00  0.00    +0.124 HD
ENDROOT
BRANCH  15  24
ATOM     24  C   UNL     1      -1.612  -3.159  -5.601  0.00  0.00    +0.129 C 
ATOM     25  C   UNL     1      -3.092  -3.415  -5.312  0.00  0.00    +0.039 C 
BRANCH  24  26
ATOM     26  O   UNL     1      -1.397  -1.758  -5.785  0.00  0.00    -0.390 OA
ATOM     27  H   UNL     1      -1.635  -1.220  -5.017  0.00  0.00    +0.210 HD
ENDBRANCH  24  26
ENDBRANCH  15  24
BRANCH  19  28
ATOM     28  C   UNL     1       3.216  -6.009  -4.015  0.00  0.00    +0.121 C 
BRANCH  28  29
ATOM     29  C   UNL     1       4.560  -5.598  -4.618  0.00  0.00    +0.054 C 
BRANCH  29  30
ATOM     30  C   UNL     1       5.480  -6.792  -4.653  0.00  0.00    -0.046 A 
ATOM     31  C   UNL     1       6.303  -7.062  -3.575  0.00  0.00    +0.004 A 
ATOM     32  C   UNL     1       7.147  -8.156  -3.607  0.00  0.00    +0.000 A 
ATOM     33  C   UNL     1       7.168  -8.980  -4.716  0.00  0.00    +0.000 A 
ATOM     34  C   UNL     1       6.345  -8.711  -5.793  0.00  0.00    +0.000 A 
ATOM     35  C   UNL     1       5.498  -7.619  -5.760  0.00  0.00    +0.004 A 
ENDBRANCH  29  30
ENDBRANCH  28  29
ENDBRANCH  19  28
TORSDOF 5
