REMARK  Name = ZINC66497367
REMARK  2 active torsions:
REMARK  status: ('A' for Active; 'I' for Inactive)
REMARK    1  A    between atoms: N_14  and  C_15
REMARK    2  A    between atoms: C_15  and  C_16
REMARK                            x       y       z     vdW  Elec       q    Type
REMARK                         _______ _______ _______ _____ _____    ______ ____
ROOT
ATOM      1  C   UNL     1      -0.017   1.378   0.010  0.00  0.00    +0.005 A 
ATOM      2  C   UNL     1       1.165   2.088   0.002  0.00  0.00    +0.023 A 
ATOM      3  C   UNL     1       2.391   1.420  -0.013  0.00  0.00    +0.037 A 
ATOM      4  C   UNL     1       2.401   0.032  -0.021  0.00  0.00    +0.016 A 
ATOM      5  C   UNL     1       1.213  -0.676  -0.014  0.00  0.00    +0.129 A 
ATOM      6  C   UNL     1       0.002  -0.004   0.002  0.00  0.00    +0.039 A 
ATOM      7  F   UNL     1       1.234  -2.027  -0.022  0.00  0.00    -0.205 F 
ATOM      8  C   UNL     1       3.835  -0.426  -0.037  0.00  0.00    +0.016 C 
ATOM      9  C   UNL     1       4.152  -1.286   1.195  0.00  0.00    +0.013 C 
ATOM     10  C   UNL     1       4.042  -2.742   0.675  0.00  0.00    +0.001 C 
ATOM     11  C   UNL     1       4.629  -2.643  -0.755  0.00  0.00    +0.001 C 
ATOM     12  C   UNL     1       4.131  -1.277  -1.276  0.00  0.00    +0.013 C 
ATOM     13  C   UNL     1       4.669   0.857  -0.038  0.00  0.00    +0.117 C 
ATOM     14  N   UNL     1       3.685   1.945  -0.022  0.00  0.00    -0.323 N 
ENDROOT
BRANCH  14  15
ATOM     15  C   UNL     1       4.012   3.373  -0.017  0.00  0.00    +0.158 C 
BRANCH  15  16
ATOM     16  C   UNL     1       4.139   3.854   1.405  0.00  0.00    +0.040 A 
ATOM     17  C   UNL     1       5.331   4.295   1.867  0.00  0.00    +0.095 A 
ATOM     18  C   UNL     1       5.445   4.744   3.198  0.00  0.00    +0.275 A 
ATOM     19  O   UNL     1       6.517   5.142   3.619  0.00  0.00    -0.266 OA
ATOM     20  N   UNL     1       4.366   4.733   4.004  0.00  0.00    -0.180 N 
ATOM     21  C   UNL     1       3.165   4.288   3.531  0.00  0.00    +0.138 A 
ATOM     22  N   UNL     1       3.050   3.852   2.225  0.00  0.00    -0.342 N 
ATOM     23  H   UNL     1       2.194   3.539   1.892  0.00  0.00    +0.167 HD
ATOM     24  C   UNL     1       2.264   4.388   4.549  0.00  0.00    +0.068 A 
ATOM     25  C   UNL     1       2.930   4.905   5.662  0.00  0.00    +0.137 A 
ATOM     26  N   UNL     1       4.183   5.112   5.340  0.00  0.00    -0.170 NA
ENDBRANCH  15  16
ENDBRANCH  14  15
TORSDOF 2
