REMARK  Name = ZINC61856964
REMARK  5 active torsions:
REMARK  status: ('A' for Active; 'I' for Inactive)
REMARK    1  A    between atoms: C_1  and  C_2
REMARK    2  A    between atoms: C_5  and  O_11
REMARK    3  A    between atoms: C_6  and  N_8
REMARK    4  A    between atoms: O_11  and  C_12
REMARK    5  A    between atoms: C_15  and  C_19
REMARK                            x       y       z     vdW  Elec       q    Type
REMARK                         _______ _______ _______ _____ _____    ______ ____
ROOT
ATOM      1  C   UNL     1       0.142  -4.754  -1.228  0.00  0.00    +0.130 A 
ATOM      2  C   UNL     1       0.245  -3.904  -2.324  0.00  0.00    +0.047 A 
ATOM      3  C   UNL     1       0.265  -4.420  -3.600  0.00  0.00    +0.016 A 
ATOM      4  C   UNL     1       0.181  -5.801  -3.794  0.00  0.00    +0.031 A 
ATOM      5  C   UNL     1       0.077  -6.653  -2.691  0.00  0.00    +0.055 A 
ATOM      6  C   UNL     1       0.064  -6.128  -1.416  0.00  0.00    +0.067 A 
ATOM      7 CL   UNL     1      -0.027  -8.370  -2.925  0.00  0.00    -0.083 Cl
ENDROOT
BRANCH   4   8
ATOM      8  C   UNL     1       0.201  -6.359  -5.162  0.00  0.00    +0.096 C 
ATOM      9  N   UNL     1      -0.801  -7.131  -5.581  0.00  0.00    -0.387 N 
ATOM     10  N   UNL     1       1.222  -6.091  -5.976  0.00  0.00    -0.345 N 
ATOM     11  H   UNL     1      -1.519  -7.366  -4.973  0.00  0.00    +0.157 HD
ATOM     12  H   UNL     1       1.951  -5.529  -5.670  0.00  0.00    +0.144 HD
ATOM     13  H   UNL     1       1.235  -6.457  -6.874  0.00  0.00    +0.144 HD
ATOM     14  H   UNL     1      -0.812  -7.457  -6.495  0.00  0.00    +0.157 HD
ENDBRANCH   4   8
BRANCH   1  15
ATOM     15  O   UNL     1       0.123  -4.240   0.028  0.00  0.00    -0.454 OA
BRANCH  15  20
ATOM     16  C   UNL     1       5.044  -3.582   2.688  0.00  0.00    +0.044 C 
ATOM     17  C   UNL     1       3.728  -3.758   1.976  0.00  0.00    -0.048 A 
ATOM     18  C   UNL     1       3.701  -4.264   0.689  0.00  0.00    +0.007 A 
ATOM     19  C   UNL     1       2.496  -4.426   0.035  0.00  0.00    +0.049 A 
ATOM     20  C   UNL     1       1.311  -4.082   0.669  0.00  0.00    +0.159 A 
ATOM     21  C   UNL     1       1.340  -3.575   1.961  0.00  0.00    +0.168 A 
ATOM     22  C   UNL     1       2.548  -3.419   2.613  0.00  0.00    +0.039 A 
BRANCH  21  23
ATOM     23  N   UNL     1       0.078  -3.207   2.641  0.00  0.00    +0.060 N 
ATOM     24  O   UNL     1       0.104  -2.765   3.766  0.00  0.00    -0.126 OA
ATOM     25  O   UNL     1      -0.979  -3.347   2.071  0.00  0.00    -0.126 OA
ENDBRANCH  21  23
ENDBRANCH  15  20
ENDBRANCH   1  15
TORSDOF 4
