REMARK  Name = ZINC49369553
REMARK  9 active torsions:
REMARK  status: ('A' for Active; 'I' for Inactive)
REMARK    1  A    between atoms: C_1  and  C_2
REMARK    2  A    between atoms: C_2  and  C_3
REMARK    3  A    between atoms: C_2  and  N_4
REMARK    4  A    between atoms: C_5  and  C_7
REMARK    5  A    between atoms: C_7  and  S_8
REMARK    6  A    between atoms: S_8  and  C_9
REMARK    7  A    between atoms: C_20  and  C_22
REMARK    8  A    between atoms: N_25  and  S_28
REMARK    9  A    between atoms: S_28  and  C_31
REMARK                            x       y       z     vdW  Elec       q    Type
REMARK                         _______ _______ _______ _____ _____    ______ ____
ROOT
ATOM      1  C   UNL     1      -5.950  -4.087  -3.998  0.00  0.00    +0.160 A 
ATOM      2  N   UNL     1      -7.026  -3.427  -3.613  0.00  0.00    -0.133 NA
ATOM      3  N   UNL     1      -8.135  -4.118  -3.184  0.00  0.00    -0.125 NA
ATOM      4  C   UNL     1      -8.119  -5.436  -3.160  0.00  0.00    +0.185 A 
ATOM      5  S   UNL     1      -6.476  -5.779  -3.772  0.00  0.00    -0.024 S 
ATOM      6  N   UNL     1      -9.116  -6.322  -2.768  0.00  0.00    -0.305 N 
ATOM      7  C   UNL     1      -8.887  -7.773  -2.813  0.00  0.00    +0.126 C 
ATOM      8  C   UNL     1      -9.165  -8.356  -1.422  0.00  0.00    +0.126 C 
ATOM      9  N   UNL     1     -10.467  -7.859  -0.956  0.00  0.00    -0.298 N 
ATOM     10  C   UNL     1     -10.695  -6.408  -0.911  0.00  0.00    +0.126 C 
ATOM     11  C   UNL     1     -10.416  -5.824  -2.296  0.00  0.00    +0.126 C 
ATOM     12  C   UNL     1     -11.433  -8.718  -0.576  0.00  0.00    +0.219 C 
ATOM     13  O   UNL     1     -11.262  -9.913  -0.691  0.00  0.00    -0.275 OA
ENDROOT
BRANCH  12  14
ATOM     14  C   UNL     1     -12.727  -8.193  -0.008  0.00  0.00    +0.078 C 
ATOM     15  C   UNL     1     -12.540  -7.876   1.478  0.00  0.00    +0.030 C 
ATOM     16  C   UNL     1     -13.847  -7.311   2.043  0.00  0.00    +0.110 C 
ATOM     17  N   UNL     1     -14.934  -8.258   1.760  0.00  0.00    -0.181 NA
ATOM     18  C   UNL     1     -15.143  -8.700   0.374  0.00  0.00    +0.110 C 
ATOM     19  C   UNL     1     -13.822  -9.250  -0.172  0.00  0.00    +0.030 C 
BRANCH  17  20
ATOM     20  S   UNL     1     -15.904  -8.818   2.979  0.00  0.00    +0.029 S 
ATOM     21  O   UNL     1     -16.371 -10.079   2.522  0.00  0.00    -0.158 OA
ATOM     22  O   UNL     1     -15.106  -8.723   4.151  0.00  0.00    -0.158 OA
ATOM     23  C   UNL     1     -17.278  -7.636   3.062  0.00  0.00    +0.215 C 
ENDBRANCH  17  20
ENDBRANCH  12  14
BRANCH   1  24
ATOM     24  S   UNL     1      -4.410  -3.466  -4.587  0.00  0.00    -0.088 S 
BRANCH  24  25
ATOM     25  C   UNL     1      -4.617  -1.665  -4.541  0.00  0.00    +0.172 C 
BRANCH  25  27
ATOM     26  N   UNL     1      -3.276   0.343  -5.079  0.00  0.00    -0.312 N 
ATOM     27  C   UNL     1      -3.353  -1.002  -5.026  0.00  0.00    +0.223 C 
ATOM     28  O   UNL     1      -2.407  -1.678  -5.369  0.00  0.00    -0.275 OA
ATOM     29  H   UNL     1      -4.033   0.884  -4.804  0.00  0.00    +0.149 HD
BRANCH  26  31
ATOM     30  C   UNL     1      -2.380   2.376  -6.101  0.00  0.00    +0.027 C 
ATOM     31  C   UNL     1      -2.047   0.988  -5.550  0.00  0.00    +0.067 C 
ATOM     32  C   UNL     1      -1.063   1.123  -4.387  0.00  0.00    +0.027 C 
ENDBRANCH  26  31
ENDBRANCH  25  27
ENDBRANCH  24  25
ENDBRANCH   1  24
TORSDOF 6
