REMARK  Name = ZINC59890621
REMARK  13 active torsions:
REMARK  status: ('A' for Active; 'I' for Inactive)
REMARK    1  A    between atoms: C_1  and  C_2
REMARK    2  A    between atoms: C_7  and  C_9
REMARK    3  A    between atoms: C_7  and  N_31
REMARK    4  A    between atoms: C_9  and  N_10
REMARK    5  A    between atoms: C_11  and  C_13
REMARK    6  A    between atoms: C_13  and  O_14
REMARK    7  A    between atoms: O_14  and  C_15
REMARK    8  A    between atoms: C_18  and  N_21
REMARK    9  A    between atoms: N_21  and  C_22
REMARK   10  A    between atoms: N_21  and  S_23
REMARK   11  A    between atoms: S_23  and  C_26
REMARK   12  A    between atoms: N_31  and  C_32
REMARK   13  A    between atoms: N_31  and  C_33
REMARK                            x       y       z     vdW  Elec       q    Type
REMARK                         _______ _______ _______ _____ _____    ______ ____
ROOT
ATOM      1  C   UNL     1       2.400  -6.087  -0.826  0.00  0.00    +0.324 C 
ENDROOT
BRANCH   1   3
ATOM      2  N   UNL     1       1.631  -3.864  -0.061  0.00  0.00    -0.314 N 
ATOM      3  C   UNL     1       2.353  -4.585  -0.941  0.00  0.00    +0.251 C 
ATOM      4  O   UNL     1       2.965  -4.026  -1.826  0.00  0.00    -0.272 OA
ATOM      5  H   UNL     1       1.142  -4.311   0.647  0.00  0.00    +0.149 HD
BRANCH   2   6
ATOM      6  C   UNL     1       1.586  -2.404  -0.173  0.00  0.00    +0.092 C 
BRANCH   6  12
ATOM      7  C   UNL     1       3.692  -1.781   3.556  0.00  0.00    +0.007 C 
ATOM      8  C   UNL     1       2.943  -1.484   2.255  0.00  0.00    -0.015 C 
ATOM      9  C   UNL     1       2.802   0.030   2.082  0.00  0.00    +0.003 C 
ATOM     10  C   UNL     1       2.053   0.327   0.781  0.00  0.00    -0.001 C 
ATOM     11  C   UNL     1       0.664  -0.312   0.835  0.00  0.00    -0.010 C 
ATOM     12  C   UNL     1       0.804  -1.826   1.009  0.00  0.00    -0.050 C 
ATOM     13  C   UNL     1       1.554  -2.123   2.309  0.00  0.00    -0.007 C 
BRANCH  12  14
ATOM     14  N   UNL     1      -0.529  -2.439   1.061  0.00  0.00    +0.381 N 
ATOM     15  C   UNL     1      -1.310  -1.823   2.143  0.00  0.00    -0.096 C 
ATOM     16  C   UNL     1      -1.216  -2.227  -0.220  0.00  0.00    -0.096 C 
ATOM     17  H   UNL     1      -0.438  -3.429   1.234  0.00  0.00    -0.082 HD
ENDBRANCH  12  14
ENDBRANCH   6  12
ENDBRANCH   2   6
ENDBRANCH   1   3
BRANCH   1  18
ATOM     18  O   UNL     1       3.224  -6.619  -1.865  0.00  0.00    -0.483 OA
BRANCH  18  19
ATOM     19  C   UNL     1       3.373  -7.971  -1.904  0.00  0.00    +0.121 A 
ATOM     20  C   UNL     1       2.734  -8.766  -0.964  0.00  0.00    +0.047 A 
ATOM     21  C   UNL     1       2.885 -10.138  -1.003  0.00  0.00    +0.028 A 
ATOM     22  C   UNL     1       3.676 -10.722  -1.983  0.00  0.00    +0.051 A 
ATOM     23  C   UNL     1       4.316  -9.925  -2.924  0.00  0.00    +0.028 A 
ATOM     24  C   UNL     1       4.159  -8.553  -2.887  0.00  0.00    +0.047 A 
BRANCH  22  25
ATOM     25  N   UNL     1       3.830 -12.112  -2.023  0.00  0.00    -0.206 N 
ATOM     26  C   UNL     1       3.448 -12.857  -3.225  0.00  0.00    +0.157 C 
BRANCH  25  27
ATOM     27  S   UNL     1       4.443 -12.915  -0.711  0.00  0.00    +0.081 S 
ATOM     28  O   UNL     1       5.110 -14.065  -1.214  0.00  0.00    -0.149 OA
ATOM     29  O   UNL     1       5.100 -11.943   0.090  0.00  0.00    -0.149 OA
BRANCH  27  30
ATOM     30  C   UNL     1       3.072 -13.499   0.230  0.00  0.00    +0.146 A 
ATOM     31  C   UNL     1       2.416 -14.682   0.138  0.00  0.00    +0.036 A 
ATOM     32  C   UNL     1       1.356 -14.928   0.990  0.00  0.00    +0.010 A 
ATOM     33  C   UNL     1       1.004 -13.979   1.892  0.00  0.00    +0.047 A 
ATOM     34  S   UNL     1       2.193 -12.691   1.556  0.00  0.00    -0.077 S 
ENDBRANCH  27  30
ENDBRANCH  25  27
ENDBRANCH  22  25
ENDBRANCH  18  19
ENDBRANCH   1  18
TORSDOF 9
