REMARK  Name = ZINC58392587
REMARK  6 active torsions:
REMARK  status: ('A' for Active; 'I' for Inactive)
REMARK    1  A    between atoms: C_1  and  C_2
REMARK    2  A    between atoms: C_8  and  C_10
REMARK    3  A    between atoms: C_10  and  N_11
REMARK    4  A    between atoms: N_11  and  C_12
REMARK    5  A    between atoms: C_13  and  C_15
REMARK    6  A    between atoms: C_22  and  C_25
REMARK                            x       y       z     vdW  Elec       q    Type
REMARK                         _______ _______ _______ _____ _____    ______ ____
ROOT
ATOM      1  N   UNL     1      -5.143  -3.932   0.079  0.00  0.00    -0.291 N 
ATOM      2  C   UNL     1      -6.013  -3.630  -1.060  0.00  0.00    +0.133 C 
ATOM      3  C   UNL     1      -5.664  -4.029   1.318  0.00  0.00    +0.253 C 
ATOM      4  O   UNL     1      -4.930  -4.176   2.277  0.00  0.00    -0.269 OA
ENDROOT
BRANCH   3   5
ATOM      5  C   UNL     1      -7.115  -3.958   1.510  0.00  0.00    +0.075 A 
ATOM      6  C   UNL     1      -7.838  -3.918   2.688  0.00  0.00    +0.024 A 
ATOM      7  C   UNL     1      -9.219  -3.851   2.573  0.00  0.00    -0.036 A 
ATOM      8  C   UNL     1      -9.728  -3.832   1.308  0.00  0.00    -0.006 A 
ATOM      9  S   UNL     1      -8.410  -3.894   0.285  0.00  0.00    -0.088 S 
ATOM     10  C   UNL     1     -11.177  -3.761   0.925  0.00  0.00    +0.043 C 
ATOM     11  C   UNL     1     -11.985  -3.335   2.158  0.00  0.00    +0.009 C 
ATOM     12  C   UNL     1     -11.554  -4.193   3.351  0.00  0.00    -0.009 C 
ATOM     13  C   UNL     1     -10.142  -3.802   3.788  0.00  0.00    +0.039 C 
ATOM     14  C   UNL     1     -12.524  -3.973   4.513  0.00  0.00    +0.008 C 
ENDBRANCH   3   5
BRANCH   1  15
ATOM     15  C   UNL     1      -3.706  -4.127  -0.129  0.00  0.00    +0.203 C 
BRANCH  15  23
ATOM     16  C   UNL     1      -0.839   2.133   0.549  0.00  0.00    +0.089 C 
ATOM     17  C   UNL     1      -0.638   0.663   0.284  0.00  0.00    +0.136 A 
ATOM     18  C   UNL     1      -1.604  -0.272   0.248  0.00  0.00    +0.091 A 
ATOM     19  C   UNL     1      -0.999  -1.518  -0.030  0.00  0.00    +0.168 A 
ATOM     20  N   UNL     1       0.289  -1.320  -0.155  0.00  0.00    -0.063 NA
ATOM     21  O   UNL     1       0.536   0.061   0.036  0.00  0.00    -0.358 OA
ATOM     22  N   UNL     1      -1.657  -2.741  -0.151  0.00  0.00    -0.266 N 
ATOM     23  C   UNL     1      -2.994  -2.805   0.002  0.00  0.00    +0.236 C 
ATOM     24  O   UNL     1      -3.626  -1.798   0.244  0.00  0.00    -0.274 OA
ATOM     25  H   UNL     1      -1.152  -3.547  -0.345  0.00  0.00    +0.156 HD
ENDBRANCH  15  23
ENDBRANCH   1  15
TORSDOF 3
