REMARK  Name = ZINC06226432
REMARK  3 active torsions:
REMARK  status: ('A' for Active; 'I' for Inactive)
REMARK    1  A    between atoms: N_9  and  N_10
REMARK    2  A    between atoms: C_11  and  C_13
REMARK    3  A    between atoms: C_13  and  C_14
REMARK                            x       y       z     vdW  Elec       q    Type
REMARK                         _______ _______ _______ _____ _____    ______ ____
ROOT
ATOM      1  N   UNL     1       3.447  -2.683   0.059  0.00  0.00    -0.206 N 
ATOM      2  C   UNL     1       3.952  -3.929   0.148  0.00  0.00    +0.233 C 
ATOM      3  O   UNL     1       5.152  -4.100   0.136  0.00  0.00    -0.274 OA
ATOM      4  H   UNL     1       2.487  -2.547   0.069  0.00  0.00    +0.177 HD
ENDROOT
BRANCH   1  13
ATOM      5  C   UNL     1       0.057   1.397   0.685  0.00  0.00    +0.017 A 
ATOM      6  C   UNL     1       1.205   2.109   0.401  0.00  0.00    +0.025 A 
ATOM      7  C   UNL     1       2.405   1.442   0.184  0.00  0.00    +0.043 A 
ATOM      8  C   UNL     1       2.429   0.043   0.258  0.00  0.00    +0.029 A 
ATOM      9  C   UNL     1       1.268  -0.666   0.544  0.00  0.00    +0.027 A 
ATOM     10  C   UNL     1       0.085   0.014   0.757  0.00  0.00    +0.019 A 
ATOM     11 BR   UNL     1      -1.499  -0.944   1.147  0.00  0.00    -0.050 Br
ATOM     12  C   UNL     1       3.826  -0.366  -0.015  0.00  0.00    +0.153 C 
ATOM     13  N   UNL     1       4.309  -1.584  -0.049  0.00  0.00    -0.175 NA
ATOM     14  C   UNL     1       4.557   0.898  -0.241  0.00  0.00    +0.269 C 
ATOM     15  O   UNL     1       5.741   1.004  -0.499  0.00  0.00    -0.268 OA
ATOM     16  N   UNL     1       3.681   1.909  -0.113  0.00  0.00    -0.280 N 
ATOM     17  H   UNL     1       3.910   2.846  -0.214  0.00  0.00    +0.155 HD
ENDBRANCH   1  13
BRANCH   2  18
ATOM     18  C   UNL     1       3.024  -5.111   0.265  0.00  0.00    +0.104 C 
BRANCH  18  19
ATOM     19  C   UNL     1       3.846  -6.399   0.350  0.00  0.00    -0.020 C 
ATOM     20  C   UNL     1       4.756  -6.342   1.579  0.00  0.00    +0.011 C 
ATOM     21  C   UNL     1       5.579  -7.629   1.665  0.00  0.00    -0.010 C 
ATOM     22  C   UNL     1       4.637  -8.829   1.783  0.00  0.00    +0.007 C 
ATOM     23  C   UNL     1       3.727  -8.886   0.554  0.00  0.00    -0.010 C 
ATOM     24  C   UNL     1       2.904  -7.599   0.468  0.00  0.00    +0.011 C 
ATOM     25  C   UNL     1       4.581  -9.030  -0.707  0.00  0.00    +0.007 C 
ATOM     26  C   UNL     1       5.523  -7.830  -0.825  0.00  0.00    -0.010 C 
ATOM     27  C   UNL     1       6.433  -7.774   0.404  0.00  0.00    +0.007 C 
ATOM     28  C   UNL     1       4.701  -6.543  -0.910  0.00  0.00    +0.011 C 
ENDBRANCH  18  19
ENDBRANCH   2  18
TORSDOF 3
