REMARK  Name = ZINC64340171
REMARK  7 active torsions:
REMARK  status: ('A' for Active; 'I' for Inactive)
REMARK    1  A    between atoms: C_7  and  C_10
REMARK    2  A    between atoms: C_10  and  C_11
REMARK    3  A    between atoms: C_11  and  C_13
REMARK    4  A    between atoms: C_11  and  N_19
REMARK    5  A    between atoms: N_15  and  C_16
REMARK    6  A    between atoms: N_19  and  S_20
REMARK    7  A    between atoms: S_20  and  C_23
REMARK                            x       y       z     vdW  Elec       q    Type
REMARK                         _______ _______ _______ _____ _____    ______ ____
ROOT
ATOM      1  C   UNL     1       0.457  -3.653  -1.462  0.00  0.00    +0.166 C 
ENDROOT
BRANCH   1   2
ATOM      2  C   UNL     1      -0.385  -4.904  -1.452  0.00  0.00    +0.232 C 
ATOM      3  O   UNL     1      -1.459  -4.916  -2.016  0.00  0.00    -0.274 OA
ATOM      4  N   UNL     1       0.057  -6.008  -0.819  0.00  0.00    -0.311 N 
ATOM      5  H   UNL     1       0.915  -5.998  -0.368  0.00  0.00    +0.149 HD
BRANCH   4   6
ATOM      6  C   UNL     1      -0.761  -7.224  -0.810  0.00  0.00    +0.073 C 
ATOM      7  C   UNL     1      -0.884  -7.983   0.513  0.00  0.00    +0.024 C 
ATOM      8  C   UNL     1      -0.039  -8.560  -0.624  0.00  0.00    +0.024 C 
ENDBRANCH   4   6
ENDBRANCH   1   2
BRANCH   1   9
ATOM      9  N   UNL     1      -0.238  -2.603  -2.210  0.00  0.00    -0.178 NA
ATOM     10  H   UNL     1      -0.896  -2.045  -1.766  0.00  0.00    +0.149 HD
BRANCH   9  11
ATOM     11  S   UNL     1       0.100  -2.367  -3.814  0.00  0.00    +0.059 S 
ATOM     12  O   UNL     1      -0.743  -1.312  -4.256  0.00  0.00    -0.153 OA
ATOM     13  O   UNL     1       1.515  -2.311  -3.927  0.00  0.00    -0.153 OA
BRANCH  11  14
ATOM     14  C   UNL     1      -0.416  -3.817  -4.673  0.00  0.00    +0.105 A 
ATOM     15  C   UNL     1       0.465  -4.867  -4.847  0.00  0.00    +0.030 A 
ATOM     16  C   UNL     1       0.061  -6.004  -5.521  0.00  0.00    +0.022 A 
ATOM     17  C   UNL     1      -1.226  -6.091  -6.022  0.00  0.00    +0.041 A 
ATOM     18  C   UNL     1      -2.107  -5.039  -5.848  0.00  0.00    +0.022 A 
ATOM     19  C   UNL     1      -1.704  -3.905  -5.169  0.00  0.00    +0.030 A 
ATOM     20 CL   UNL     1      -1.734  -7.518  -6.869  0.00  0.00    -0.084 Cl
ENDBRANCH  11  14
ENDBRANCH   9  11
ENDBRANCH   1   9
BRANCH   1  21
ATOM     21  C   UNL     1       0.691  -3.186  -0.024  0.00  0.00    +0.063 C 
BRANCH  21  28
ATOM     22  C   UNL     1      -0.016   1.348   0.009  0.00  0.00    +0.001 A 
ATOM     23  C   UNL     1       1.166   2.101   0.002  0.00  0.00    +0.002 A 
ATOM     24  C   UNL     1       2.391   1.535  -0.013  0.00  0.00    +0.026 A 
ATOM     25  C   UNL     1       2.529   0.120  -0.022  0.00  0.00    +0.043 A 
ATOM     26  N   UNL     1       3.587  -0.654  -0.037  0.00  0.00    -0.380 N 
ATOM     27  C   UNL     1       3.143  -2.053  -0.041  0.00  0.00    +0.144 C 
ATOM     28  C   UNL     1       1.631  -2.008  -0.025  0.00  0.00    -0.040 C 
ATOM     29  C   UNL     1       1.295  -0.698  -0.014  0.00  0.00    -0.001 A 
ATOM     30  C   UNL     1       0.002  -0.004   0.002  0.00  0.00    +0.010 A 
ATOM     31  H   UNL     1       4.509  -0.353  -0.045  0.00  0.00    +0.160 HD
ENDBRANCH  21  28
ENDBRANCH   1  21
TORSDOF 7
