REMARK  Name = ZINC12786642
REMARK  9 active torsions:
REMARK  status: ('A' for Active; 'I' for Inactive)
REMARK    1  A    between atoms: C_1  and  C_2
REMARK    2  A    between atoms: C_2  and  C_3
REMARK    3  A    between atoms: C_2  and  C_4
REMARK    4  A    between atoms: C_4  and  C_6
REMARK    5  A    between atoms: C_4  and  N_22
REMARK    6  A    between atoms: C_11  and  C_14
REMARK    7  A    between atoms: C_14  and  C_16
REMARK    8  A    between atoms: C_23  and  C_25
REMARK    9  A    between atoms: C_28  and  N_32
REMARK                            x       y       z     vdW  Elec       q    Type
REMARK                         _______ _______ _______ _____ _____    ______ ____
ROOT
ATOM      1  C   UNL     1       2.387   1.021   0.034  0.00  0.00    +0.162 C 
ENDROOT
BRANCH   1   2
ATOM      2  C   UNL     1       3.456   1.798  -0.689  0.00  0.00    +0.236 C 
ATOM      3  O   UNL     1       3.172   2.823  -1.273  0.00  0.00    -0.274 OA
ATOM      4  N   UNL     1       4.729   1.356  -0.686  0.00  0.00    -0.300 N 
ATOM      5  C   UNL     1       5.071   0.062  -0.080  0.00  0.00    +0.108 C 
ATOM      6  C   UNL     1       5.830  -0.779  -1.117  0.00  0.00    +0.030 C 
ATOM      7  C   UNL     1       7.037   0.015  -1.624  0.00  0.00    +0.063 C 
ATOM      8  C   UNL     1       6.555   1.298  -2.304  0.00  0.00    +0.030 C 
ATOM      9  C   UNL     1       5.803   2.160  -1.286  0.00  0.00    +0.108 C 
BRANCH   7  10
ATOM     10  C   UNL     1       7.806  -0.820  -2.615  0.00  0.00    +0.166 C 
ATOM     11  O   UNL     1       7.595  -0.700  -3.803  0.00  0.00    -0.292 OA
BRANCH  10  12
ATOM     12  C   UNL     1       8.815  -1.781  -2.140  0.00  0.00    +0.018 A 
ATOM     13  C   UNL     1       9.066  -1.919  -0.771  0.00  0.00    +0.011 A 
ATOM     14  C   UNL     1      10.008  -2.825  -0.335  0.00  0.00    +0.001 A 
ATOM     15  C   UNL     1      10.713  -3.590  -1.247  0.00  0.00    +0.000 A 
ATOM     16  C   UNL     1      10.474  -3.457  -2.604  0.00  0.00    +0.001 A 
ATOM     17  C   UNL     1       9.531  -2.558  -3.056  0.00  0.00    +0.011 A 
ENDBRANCH  10  12
ENDBRANCH   7  10
ENDBRANCH   1   2
BRANCH   1  18
ATOM     18  N   UNL     1       1.097   1.235  -0.627  0.00  0.00    -0.300 N 
ATOM     19  C   UNL     1       0.122   0.311  -0.515  0.00  0.00    +0.246 C 
ATOM     20  O   UNL     1       0.312  -0.699   0.133  0.00  0.00    -0.270 OA
ATOM     21  H   UNL     1       0.945   2.041  -1.144  0.00  0.00    +0.150 HD
BRANCH  19  22
ATOM     22  C   UNL     1      -1.177   0.524  -1.187  0.00  0.00    +0.055 A 
ATOM     23  C   UNL     1      -1.400   1.683  -1.933  0.00  0.00    +0.017 A 
ATOM     24  C   UNL     1      -2.614   1.875  -2.557  0.00  0.00    +0.033 A 
ATOM     25  C   UNL     1      -3.612   0.922  -2.447  0.00  0.00    +0.128 A 
ATOM     26  C   UNL     1      -3.400  -0.229  -1.711  0.00  0.00    +0.053 A 
ATOM     27  C   UNL     1      -2.186  -0.437  -1.083  0.00  0.00    +0.055 A 
ATOM     28 CL   UNL     1      -1.918  -1.885  -0.165  0.00  0.00    -0.083 Cl
BRANCH  25  29
ATOM     29  N   UNL     1      -4.912   1.136  -3.121  0.00  0.00    +0.056 N 
ATOM     30  O   UNL     1      -5.103   2.148  -3.771  0.00  0.00    -0.126 OA
ATOM     31  O   UNL     1      -5.792   0.299  -3.026  0.00  0.00    -0.126 OA
ENDBRANCH  25  29
ENDBRANCH  19  22
ENDBRANCH   1  18
BRANCH   1  33
ATOM     32  C   UNL     1       1.268   0.659   2.239  0.00  0.00    +0.009 C 
ATOM     33  C   UNL     1       2.302   1.498   1.485  0.00  0.00    +0.012 C 
ATOM     34  C   UNL     1       3.669   1.344   2.154  0.00  0.00    +0.009 C 
ENDBRANCH   1  33
TORSDOF 7
