REMARK  Name = ZINC06831459
REMARK  4 active torsions:
REMARK  status: ('A' for Active; 'I' for Inactive)
REMARK    1  A    between atoms: C_4  and  N_7
REMARK    2  A    between atoms: C_11  and  S_13
REMARK    3  A    between atoms: S_13  and  C_14
REMARK    4  A    between atoms: C_14  and  C_15
REMARK                            x       y       z     vdW  Elec       q    Type
REMARK                         _______ _______ _______ _____ _____    ______ ____
ROOT
ATOM      1  C   UNL     1      -3.730   4.998   0.088  0.00  0.00    +0.112 C 
ENDROOT
BRANCH   1   2
ATOM      2  C   UNL     1      -2.397   5.699   0.089  0.00  0.00    -0.020 A 
ATOM      3  C   UNL     1      -2.320   7.050   0.192  0.00  0.00    +0.097 A 
ATOM      4  C   UNL     1      -1.058   7.684   0.190  0.00  0.00    +0.338 A 
ATOM      5  O   UNL     1      -1.003   8.896   0.284  0.00  0.00    -0.245 OA
ATOM      6  O   UNL     1       0.082   6.983   0.088  0.00  0.00    -0.422 OA
ATOM      7  C   UNL     1       0.075   5.637  -0.017  0.00  0.00    +0.140 A 
ATOM      8  C   UNL     1      -1.147   4.941  -0.021  0.00  0.00    +0.022 A 
ATOM      9  C   UNL     1      -1.154   3.549  -0.135  0.00  0.00    +0.015 A 
ATOM     10  C   UNL     1       0.028   2.864  -0.232  0.00  0.00    -0.043 A 
ATOM     11  C   UNL     1       1.237   3.547  -0.229  0.00  0.00    -0.041 A 
ATOM     12  C   UNL     1       1.261   4.925  -0.123  0.00  0.00    +0.051 A 
ATOM     13  C   UNL     1       2.379   2.560  -0.354  0.00  0.00    +0.036 C 
ATOM     14  C   UNL     1       1.771   1.189   0.009  0.00  0.00    +0.009 C 
ATOM     15  C   UNL     1       0.284   1.376  -0.358  0.00  0.00    +0.036 C 
ENDBRANCH   1   2
BRANCH   1  16
ATOM     16  S   UNL     1      -4.334   4.850  -1.616  0.00  0.00    -0.092 S 
BRANCH  16  21
ATOM     17  N   UNL     1      -9.471   2.183  -1.964  0.00  0.00    -0.292 N 
ATOM     18  C   UNL     1      -8.261   2.787  -1.640  0.00  0.00    +0.187 A 
ATOM     19  N   UNL     1      -7.705   2.962  -0.457  0.00  0.00    -0.125 NA
ATOM     20  N   UNL     1      -6.486   3.592  -0.359  0.00  0.00    -0.133 NA
ATOM     21  C   UNL     1      -5.880   4.020  -1.450  0.00  0.00    +0.160 A 
ATOM     22  S   UNL     1      -7.048   3.539  -2.713  0.00  0.00    -0.024 S 
ATOM     23  H   UNL     1      -9.712   2.049  -2.894  0.00  0.00    +0.154 HD
BRANCH  17  27
ATOM     24  C   UNL     1     -12.059   0.950   1.056  0.00  0.00    +0.000 A 
ATOM     25  C   UNL     1     -11.168   1.982   1.290  0.00  0.00    +0.002 A 
ATOM     26  C   UNL     1     -10.309   2.393   0.290  0.00  0.00    +0.023 A 
ATOM     27  C   UNL     1     -10.339   1.769  -0.951  0.00  0.00    +0.033 A 
ATOM     28  C   UNL     1     -11.239   0.736  -1.183  0.00  0.00    +0.023 A 
ATOM     29  C   UNL     1     -12.092   0.327  -0.178  0.00  0.00    +0.002 A 
ENDBRANCH  17  27
ENDBRANCH  16  21
ENDBRANCH   1  16
TORSDOF 4
