REMARK  Name = ZINC13979102
REMARK  10 active torsions:
REMARK  status: ('A' for Active; 'I' for Inactive)
REMARK    1  A    between atoms: C_1  and  C_2
REMARK    2  A    between atoms: C_2  and  C_3
REMARK    3  A    between atoms: C_6  and  O_10
REMARK    4  A    between atoms: O_10  and  C_11
REMARK    5  A    between atoms: C_11  and  C_12
REMARK    6  A    between atoms: N_14  and  N_15
REMARK    7  A    between atoms: N_15  and  C_16
REMARK    8  A    between atoms: C_16  and  N_18
REMARK    9  A    between atoms: C_19  and  C_21
REMARK   10  A    between atoms: C_24  and  C_27
REMARK                            x       y       z     vdW  Elec       q    Type
REMARK                         _______ _______ _______ _____ _____    ______ ____
ROOT
ATOM      1  C   UNL     1       5.409  -4.041  -0.074  0.00  0.00    +0.153 C 
ATOM      2  S   UNL     1       7.001  -4.672  -0.093  0.00  0.00    -0.017 S 
ENDROOT
BRANCH   1   3
ATOM      3  N   UNL     1       4.353  -4.878  -0.069  0.00  0.00    -0.263 N 
ATOM      4  C   UNL     1       4.549  -6.212  -0.078  0.00  0.00    +0.250 C 
ATOM      5  O   UNL     1       5.679  -6.659  -0.092  0.00  0.00    -0.270 OA
ATOM      6  H   UNL     1       3.451  -4.521  -0.058  0.00  0.00    +0.157 HD
BRANCH   4   7
ATOM      7  C   UNL     1       3.392  -7.128  -0.072  0.00  0.00    +0.037 A 
ATOM      8  C   UNL     1       2.093  -6.614  -0.051  0.00  0.00    +0.013 A 
ATOM      9  C   UNL     1       1.015  -7.470  -0.051  0.00  0.00    +0.009 A 
ATOM     10  C   UNL     1       1.219  -8.850  -0.061  0.00  0.00    -0.018 A 
ATOM     11  C   UNL     1       2.516  -9.365  -0.077  0.00  0.00    +0.009 A 
ATOM     12  C   UNL     1       3.595  -8.511  -0.082  0.00  0.00    +0.013 A 
BRANCH  10  13
ATOM     13  C   UNL     1       0.057  -9.771  -0.055  0.00  0.00    -0.018 A 
ATOM     14  C   UNL     1       0.257 -11.151  -0.070  0.00  0.00    +0.008 A 
ATOM     15  C   UNL     1      -0.828 -12.003  -0.058  0.00  0.00    +0.001 A 
ATOM     16  C   UNL     1      -2.113 -11.490  -0.042  0.00  0.00    +0.000 A 
ATOM     17  C   UNL     1      -2.318 -10.122  -0.033  0.00  0.00    +0.001 A 
ATOM     18  C   UNL     1      -1.240  -9.261  -0.039  0.00  0.00    +0.008 A 
ENDBRANCH  10  13
ENDBRANCH   4   7
ENDBRANCH   1   3
BRANCH   1  19
ATOM     19  N   UNL     1       5.213  -2.708  -0.065  0.00  0.00    -0.245 N 
ATOM     20  H   UNL     1       5.973  -2.106  -0.069  0.00  0.00    +0.172 HD
BRANCH  19  23
ATOM     21  C   UNL     1       3.714  -0.859  -0.040  0.00  0.00    +0.267 C 
ATOM     22  O   UNL     1       4.664  -0.105  -0.044  0.00  0.00    -0.271 OA
ATOM     23  N   UNL     1       3.910  -2.192  -0.049  0.00  0.00    -0.232 N 
ATOM     24  H   UNL     1       3.150  -2.794  -0.045  0.00  0.00    +0.173 HD
BRANCH  21  25
ATOM     25  C   UNL     1       2.313  -0.304  -0.023  0.00  0.00    +0.326 C 
BRANCH  25  26
ATOM     26  O   UNL     1       2.366   1.124  -0.015  0.00  0.00    -0.482 OA
BRANCH  26  30
ATOM     27  C   UNL     1      -1.238   3.133   0.030  0.00  0.00    -0.046 A 
ATOM     28  C   UNL     1      -1.218   1.751   0.017  0.00  0.00    +0.007 A 
ATOM     29  C   UNL     1      -0.013   1.076   0.008  0.00  0.00    +0.047 A 
ATOM     30  C   UNL     1       1.179   1.786   0.000  0.00  0.00    +0.135 A 
ATOM     31  C   UNL     1       1.157   3.174   0.008  0.00  0.00    +0.060 A 
ATOM     32  C   UNL     1      -0.052   3.844   0.023  0.00  0.00    +0.022 A 
ATOM     33 BR   UNL     1       2.778   4.147  -0.003  0.00  0.00    -0.047 Br
BRANCH  27  35
ATOM     34  C   UNL     1      -3.013   4.122  -1.391  0.00  0.00    +0.009 C 
ATOM     35  C   UNL     1      -2.554   3.866   0.046  0.00  0.00    +0.032 C 
ENDBRANCH  27  35
ENDBRANCH  26  30
ENDBRANCH  25  26
ENDBRANCH  21  25
ENDBRANCH  19  23
ENDBRANCH   1  19
TORSDOF 9
