REMARK  Name = ZINC20581904
REMARK  8 active torsions:
REMARK  status: ('A' for Active; 'I' for Inactive)
REMARK    1  A    between atoms: C_6  and  S_7
REMARK    2  A    between atoms: S_7  and  N_10
REMARK    3  A    between atoms: N_10  and  C_11
REMARK    4  A    between atoms: C_11  and  C_12
REMARK    5  A    between atoms: C_15  and  C_18
REMARK    6  A    between atoms: N_20  and  C_21
REMARK    7  A    between atoms: C_21  and  C_22
REMARK    8  A    between atoms: C_22  and  C_23
REMARK                            x       y       z     vdW  Elec       q    Type
REMARK                         _______ _______ _______ _____ _____    ______ ____
ROOT
ATOM      1  C   UNL     1       2.192   3.262  -8.750  0.00  0.00    +0.109 C 
ENDROOT
BRANCH   1   2
ATOM      2  C   UNL     1       1.390   4.509  -8.371  0.00  0.00    +0.005 C 
ATOM      3  C   UNL     1       2.233   5.399  -7.455  0.00  0.00    +0.005 C 
ATOM      4  C   UNL     1       1.431   6.645  -7.076  0.00  0.00    +0.013 C 
ATOM      5  C   UNL     1       0.154   6.227  -6.346  0.00  0.00    +0.075 C 
ATOM      6  C   UNL     1      -0.690   5.337  -7.261  0.00  0.00    +0.013 C 
ATOM      7  C   UNL     1       0.112   4.091  -7.641  0.00  0.00    +0.005 C 
BRANCH   5   8
ATOM      8  C   UNL     1       0.515   5.464  -5.098  0.00  0.00    +0.216 C 
ATOM      9  O   UNL     1       1.680   5.273  -4.820  0.00  0.00    -0.276 OA
ATOM     10  N   UNL     1      -0.456   4.993  -4.290  0.00  0.00    -0.315 N 
ATOM     11  H   UNL     1      -1.513   5.166  -4.542  0.00  0.00    +0.149 HD
BRANCH  10  12
ATOM     12  C   UNL     1      -0.104   4.251  -3.077  0.00  0.00    +0.108 C 
BRANCH  12  13
ATOM     13  C   UNL     1      -1.382   3.833  -2.347  0.00  0.00    +0.049 C 
BRANCH  13  14
ATOM     14  C   UNL     1      -1.020   3.070  -1.099  0.00  0.00    -0.072 C 
ATOM     15  C   UNL     1      -0.952   3.725   0.015  0.00  0.00    -0.028 C 
ATOM     16  C   UNL     1      -0.595   3.106   1.335  0.00  0.00    +0.027 C 
ATOM     17  C   UNL     1      -0.739   1.585   1.264  0.00  0.00    +0.004 C 
ATOM     18  C   UNL     1      -0.013   1.086   0.008  0.00  0.00    +0.005 C 
ATOM     19  C   UNL     1      -0.761   1.597  -1.225  0.00  0.00    +0.030 C 
ENDBRANCH  13  14
ENDBRANCH  12  13
ENDBRANCH  10  12
ENDBRANCH   5   8
ENDBRANCH   1   2
BRANCH   1  20
ATOM     20  N   UNL     1       1.433   2.469  -9.720  0.00  0.00    -0.190 NA
ATOM     21  H   UNL     1       0.336   2.550  -9.758  0.00  0.00    +0.148 HD
BRANCH  20  22
ATOM     22  S   UNL     1       2.187   1.276 -10.586  0.00  0.00    +0.058 S 
ATOM     23  O   UNL     1       1.193   0.682 -11.409  0.00  0.00    -0.153 OA
ATOM     24  O   UNL     1       3.374   1.849 -11.118  0.00  0.00    -0.153 OA
BRANCH  22  30
ATOM     25  C   UNL     1       1.851  -1.008  -9.123  0.00  0.00    +0.030 A 
ATOM     26  C   UNL     1       2.260  -1.961  -8.223  0.00  0.00    +0.025 A 
ATOM     27  C   UNL     1       3.523  -1.897  -7.609  0.00  0.00    +0.037 A 
ATOM     28  C   UNL     1       4.364  -0.853  -7.933  0.00  0.00    -0.024 A 
ATOM     29  C   UNL     1       3.938   0.108  -8.851  0.00  0.00    +0.034 A 
ATOM     30  C   UNL     1       2.695   0.041  -9.438  0.00  0.00    +0.106 A 
ATOM     31  C   UNL     1       5.738  -0.652  -7.382  0.00  0.00    +0.037 C 
ATOM     32  C   UNL     1       6.527  -1.899  -7.128  0.00  0.00    +0.014 C 
ATOM     33  C   UNL     1       6.119  -2.623  -5.867  0.00  0.00    +0.096 C 
ATOM     34  C   UNL     1       4.811  -3.312  -6.021  0.00  0.00    +0.217 C 
ATOM     35  O   UNL     1       4.689  -4.373  -5.448  0.00  0.00    -0.275 OA
ATOM     36  N   UNL     1       3.780  -2.901  -6.705  0.00  0.00    -0.285 N 
ATOM     37  H   UNL     1       2.979  -3.594  -6.410  0.00  0.00    +0.155 HD
ENDBRANCH  22  30
ENDBRANCH  20  22
ENDBRANCH   1  20
TORSDOF 8
