REMARK  Name = ZINC04672750
REMARK  10 active torsions:
REMARK  status: ('A' for Active; 'I' for Inactive)
REMARK    1  A    between atoms: C_1  and  C_2
REMARK    2  A    between atoms: C_5  and  C_8
REMARK    3  A    between atoms: C_8  and  N_9
REMARK    4  A    between atoms: N_9  and  C_10
REMARK    5  A    between atoms: N_9  and  C_16
REMARK    6  A    between atoms: C_16  and  N_18
REMARK    7  A    between atoms: N_18  and  C_19
REMARK    8  A    between atoms: C_19  and  C_20
REMARK    9  A    between atoms: N_22  and  C_23
REMARK   10  A    between atoms: C_29  and  C_31
REMARK                            x       y       z     vdW  Elec       q    Type
REMARK                         _______ _______ _______ _____ _____    ______ ____
ROOT
ATOM      1  C   UNL     1       0.391   0.981  -7.208  0.00  0.00    +0.134 C 
ATOM      2  S   UNL     1       0.912   0.393  -5.687  0.00  0.00    -0.019 S 
ENDROOT
BRANCH   1   3
ATOM      3  N   UNL     1      -0.896   1.337  -7.388  0.00  0.00    -0.318 N 
ATOM      4  H   UNL     1      -1.176   1.739  -8.225  0.00  0.00    +0.148 HD
BRANCH   3   5
ATOM      5  C   UNL     1      -1.873   1.119  -6.318  0.00  0.00    +0.199 C 
BRANCH   5   6
ATOM      6  C   UNL     1      -3.228   1.600  -6.769  0.00  0.00    +0.230 C 
ATOM      7  O   UNL     1      -3.364   2.079  -7.875  0.00  0.00    -0.274 OA
ATOM      8  N   UNL     1      -4.288   1.499  -5.943  0.00  0.00    -0.311 N 
ATOM      9  H   UNL     1      -4.179   1.116  -5.058  0.00  0.00    +0.149 HD
BRANCH   8  10
ATOM     10  C   UNL     1      -5.605   1.967  -6.381  0.00  0.00    +0.076 C 
ATOM     11  C   UNL     1      -5.727   3.469  -6.115  0.00  0.00    +0.022 C 
ATOM     12  C   UNL     1      -7.103   3.958  -6.572  0.00  0.00    +0.002 C 
ATOM     13  C   UNL     1      -8.192   3.212  -5.799  0.00  0.00    +0.000 C 
ATOM     14  C   UNL     1      -8.070   1.711  -6.065  0.00  0.00    +0.005 C 
ATOM     15  C   UNL     1      -6.695   1.222  -5.607  0.00  0.00    +0.006 C 
ATOM     16  C   UNL     1      -6.573  -0.280  -5.873  0.00  0.00    +0.009 C 
ENDBRANCH   8  10
ENDBRANCH   5   6
ENDBRANCH   3   5
ENDBRANCH   1   3
BRANCH   1  17
ATOM     17  N   UNL     1       1.268   1.087  -8.226  0.00  0.00    -0.305 N 
BRANCH  17  18
ATOM     18  C   UNL     1       2.638   0.592  -8.068  0.00  0.00    +0.075 C 
ATOM     19  C   UNL     1       2.604  -0.892  -7.700  0.00  0.00    +0.022 C 
ATOM     20  C   UNL     1       4.035  -1.409  -7.534  0.00  0.00    +0.002 C 
ATOM     21  C   UNL     1       4.735  -0.625  -6.423  0.00  0.00    +0.000 C 
ATOM     22  C   UNL     1       4.769   0.860  -6.792  0.00  0.00    +0.002 C 
ATOM     23  C   UNL     1       3.339   1.377  -6.957  0.00  0.00    +0.022 C 
ENDBRANCH  17  18
BRANCH  17  24
ATOM     24  C   UNL     1       0.852   1.698  -9.491  0.00  0.00    +0.142 C 
BRANCH  24  29
ATOM     25  C   UNL     1       1.856   7.386  -9.307  0.00  0.00    +0.044 C 
ATOM     26  C   UNL     1       1.594   5.903  -9.355  0.00  0.00    -0.050 A 
ATOM     27  C   UNL     1       2.570   5.044  -9.824  0.00  0.00    +0.003 A 
ATOM     28  C   UNL     1       2.330   3.683  -9.868  0.00  0.00    +0.005 A 
ATOM     29  C   UNL     1       1.114   3.182  -9.443  0.00  0.00    -0.030 A 
ATOM     30  C   UNL     1       0.136   4.041  -8.978  0.00  0.00    +0.005 A 
ATOM     31  C   UNL     1       0.378   5.402  -8.930  0.00  0.00    +0.003 A 
ENDBRANCH  24  29
ENDBRANCH  17  24
ENDBRANCH   1  17
TORSDOF 8
