REMARK  Name = ZINC43263382
REMARK  9 active torsions:
REMARK  status: ('A' for Active; 'I' for Inactive)
REMARK    1  A    between atoms: C_1  and  C_2
REMARK    2  A    between atoms: C_2  and  C_3
REMARK    3  A    between atoms: C_3  and  C_5
REMARK    4  A    between atoms: C_3  and  N_21
REMARK    5  A    between atoms: C_5  and  C_7
REMARK    6  A    between atoms: C_5  and  N_13
REMARK    7  A    between atoms: C_17  and  C_18
REMARK    8  A    between atoms: C_18  and  C_19
REMARK    9  A    between atoms: C_18  and  C_20
REMARK                            x       y       z     vdW  Elec       q    Type
REMARK                         _______ _______ _______ _____ _____    ______ ____
ROOT
ATOM      1  C   UNL     1       0.642  -2.013  -1.453  0.00  0.00    +0.110 C 
ENDROOT
BRANCH   1   2
ATOM      2  C   UNL     1      -0.674  -2.601  -1.893  0.00  0.00    +0.012 A 
ATOM      3  C   UNL     1      -0.984  -3.225  -3.055  0.00  0.00    +0.014 A 
ATOM      4  C   UNL     1      -2.272  -3.690  -3.244  0.00  0.00    +0.023 A 
ATOM      5  C   UNL     1      -3.188  -3.507  -2.260  0.00  0.00    +0.055 A 
ATOM      6  S   UNL     1      -2.227  -2.663  -1.014  0.00  0.00    -0.084 S 
ATOM      7 BR   UNL     1      -5.007  -4.020  -2.215  0.00  0.00    -0.043 Br
ENDBRANCH   1   2
BRANCH   1   8
ATOM      8  N   UNL     1       1.095  -2.687  -0.234  0.00  0.00    -0.329 N 
ATOM      9  C   UNL     1       0.483  -2.650   0.990  0.00  0.00    +0.105 A 
ATOM     10  C   UNL     1       1.229  -3.403   1.821  0.00  0.00    +0.101 A 
ATOM     11  N   UNL     1       2.268  -3.885   1.124  0.00  0.00    -0.349 N 
ATOM     12  C   UNL     1       2.192  -3.465  -0.109  0.00  0.00    +0.090 A 
ATOM     13  H   UNL     1       2.964  -4.460   1.480  0.00  0.00    +0.166 HD
BRANCH  12  14
ATOM     14  C   UNL     1       3.168  -3.791  -1.210  0.00  0.00    +0.047 C 
ATOM     15  C   UNL     1       4.579  -3.890  -0.627  0.00  0.00    +0.015 C 
ATOM     16  C   UNL     1       2.786  -5.126  -1.852  0.00  0.00    +0.015 C 
ENDBRANCH  12  14
ENDBRANCH   1   8
BRANCH   1  17
ATOM     17  C   UNL     1       0.466  -0.519  -1.175  0.00  0.00    -0.047 C 
BRANCH  17  18
ATOM     18  N   UNL     1       0.047   0.163  -2.407  0.00  0.00    +0.382 N 
ATOM     19  H   UNL     1       0.750   0.034  -3.118  0.00  0.00    -0.090 HD
ATOM     20  H   UNL     1      -0.828  -0.226  -2.725  0.00  0.00    -0.090 HD
ATOM     21  H   UNL     1      -0.070   1.148  -2.223  0.00  0.00    -0.090 HD
ENDBRANCH  17  18
BRANCH  17  23
ATOM     22  C   UNL     1       1.589   1.536  -0.305  0.00  0.00    +0.002 C 
ATOM     23  C   UNL     1       1.793   0.070  -0.692  0.00  0.00    -0.017 C 
ENDBRANCH  17  23
ENDBRANCH   1  17
TORSDOF 6
