REMARK  Name = ZINC13637454
REMARK  6 active torsions:
REMARK  status: ('A' for Active; 'I' for Inactive)
REMARK    1  A    between atoms: C_4  and  C_7
REMARK    2  A    between atoms: C_9  and  C_20
REMARK    3  A    between atoms: C_14  and  S_16
REMARK    4  A    between atoms: S_16  and  C_17
REMARK    5  A    between atoms: C_17  and  C_18
REMARK    6  A    between atoms: C_25  and  O_26
REMARK                            x       y       z     vdW  Elec       q    Type
REMARK                         _______ _______ _______ _____ _____    ______ ____
ROOT
ATOM      1  C   UNL     1       0.108   2.039   3.773  0.00  0.00    +0.077 A 
ATOM      2  C   UNL     1       0.110   1.388   2.528  0.00  0.00    +0.057 A 
ATOM      3  C   UNL     1       0.025   0.010   2.496  0.00  0.00    +0.082 A 
ATOM      4  N   UNL     1      -0.063  -0.672   3.680  0.00  0.00    -0.195 N 
ATOM      5  C   UNL     1      -0.055   0.003   4.869  0.00  0.00    +0.255 A 
ATOM      6  N   UNL     1       0.027   1.336   4.892  0.00  0.00    -0.211 NA
ATOM      7  N   UNL     1      -0.144  -0.903   5.838  0.00  0.00    -0.183 NA
ATOM      8  C   UNL     1      -0.218  -2.122   5.309  0.00  0.00    +0.212 A 
ATOM      9  N   UNL     1      -0.165  -2.034   3.995  0.00  0.00    -0.136 NA
ENDROOT
BRANCH   1  13
ATOM     10  C   UNL     1       0.367   6.278   3.947  0.00  0.00    +0.000 A 
ATOM     11  C   UNL     1       0.282   5.544   5.117  0.00  0.00    +0.001 A 
ATOM     12  C   UNL     1       0.198   4.168   5.067  0.00  0.00    +0.010 A 
ATOM     13  C   UNL     1       0.199   3.517   3.834  0.00  0.00    +0.001 A 
ATOM     14  C   UNL     1       0.291   4.261   2.658  0.00  0.00    +0.010 A 
ATOM     15  C   UNL     1       0.369   5.638   2.721  0.00  0.00    +0.001 A 
ENDBRANCH   1  13
BRANCH   3  16
ATOM     16  C   UNL     1       0.023  -0.714   1.210  0.00  0.00    +0.042 A 
ATOM     17  C   UNL     1      -0.929  -1.705   0.963  0.00  0.00    +0.013 A 
ATOM     18  C   UNL     1      -0.926  -2.377  -0.240  0.00  0.00    +0.001 A 
ATOM     19  C   UNL     1       0.018  -2.074  -1.207  0.00  0.00    +0.004 A 
ATOM     20  C   UNL     1       0.962  -1.091  -0.978  0.00  0.00    +0.046 A 
ATOM     21  C   UNL     1       0.977  -0.410   0.229  0.00  0.00    +0.126 A 
BRANCH  21  22
ATOM     22  O   UNL     1       1.907   0.552   0.458  0.00  0.00    -0.506 OA
ATOM     23  H   UNL     1       2.720   0.223   0.865  0.00  0.00    +0.292 HD
ENDBRANCH  21  22
ENDBRANCH   3  16
BRANCH   8  24
ATOM     24  S   UNL     1      -0.350  -3.623   6.223  0.00  0.00    -0.069 S 
BRANCH  24  25
ATOM     25  C   UNL     1      -0.376  -3.081   7.954  0.00  0.00    +0.195 C 
BRANCH  25  26
ATOM     26  C   UNL     1      -0.485  -4.255   8.835  0.00  0.00    +0.074 C 
ATOM     27  N   UNL     1      -0.570  -5.162   9.514  0.00  0.00    -0.196 NA
ENDBRANCH  25  26
ENDBRANCH  24  25
ENDBRANCH   8  24
TORSDOF 6
