REMARK  Name = ZINC02418525
REMARK  3 active torsions:
REMARK  status: ('A' for Active; 'I' for Inactive)
REMARK    1  A    between atoms: C_1  and  C_2
REMARK    2  A    between atoms: C_3  and  C_30
REMARK    3  A    between atoms: C_8  and  C_24
REMARK                            x       y       z     vdW  Elec       q    Type
REMARK                         _______ _______ _______ _____ _____    ______ ____
ROOT
ATOM      1  C   UNL     1      -2.087   4.429   0.045  0.00  0.00    +0.066 C 
ATOM      2  C   UNL     1      -0.895   3.507   0.029  0.00  0.00    +0.050 A 
ATOM      3  C   UNL     1       0.366   4.005   0.020  0.00  0.00    +0.011 A 
ATOM      4  S   UNL     1       1.319   2.493   0.003  0.00  0.00    -0.057 S 
ATOM      5  C   UNL     1      -0.017   1.384   0.010  0.00  0.00    +0.169 A 
ATOM      6  N   UNL     1      -1.054   2.199   0.018  0.00  0.00    -0.229 NA
ATOM      7  N   UNL     1       0.002  -0.004   0.002  0.00  0.00    -0.232 N 
ATOM      8  C   UNL     1      -1.173  -0.883   0.014  0.00  0.00    +0.151 C 
ATOM      9  C   UNL     1      -0.638  -2.292  -0.004  0.00  0.00    +0.072 A 
ATOM     10  C   UNL     1      -1.292  -3.603  -0.007  0.00  0.00    +0.199 A 
ATOM     11  O   UNL     1      -2.505  -3.712   0.004  0.00  0.00    -0.287 OA
ATOM     12  C   UNL     1      -0.407  -4.784  -0.021  0.00  0.00    +0.065 A 
ATOM     13  C   UNL     1      -0.924  -6.079  -0.023  0.00  0.00    +0.030 A 
ATOM     14  C   UNL     1      -0.062  -7.154  -0.036  0.00  0.00    +0.019 A 
ATOM     15  C   UNL     1       1.312  -6.948  -0.047  0.00  0.00    +0.019 A 
ATOM     16  C   UNL     1       1.833  -5.673  -0.046  0.00  0.00    +0.048 A 
ATOM     17  C   UNL     1       0.982  -4.572  -0.033  0.00  0.00    +0.140 A 
ATOM     18  O   UNL     1       1.480  -3.322  -0.030  0.00  0.00    -0.450 OA
ATOM     19  C   UNL     1       0.716  -2.212  -0.016  0.00  0.00    +0.199 A 
ATOM     20  C   UNL     1       1.100  -0.780  -0.012  0.00  0.00    +0.289 C 
ATOM     21  O   UNL     1       2.243  -0.366  -0.020  0.00  0.00    -0.266 OA
ATOM     22 BR   UNL     1      -0.751  -8.915  -0.038  0.00  0.00    -0.050 Br
ATOM     23  C   UNL     1       0.835   5.437   0.023  0.00  0.00    +0.053 C 
ENDROOT
BRANCH   8  24
ATOM     24  C   UNL     1      -1.984  -0.650   1.263  0.00  0.00    -0.022 A 
ATOM     25  C   UNL     1      -1.346  -0.421   2.468  0.00  0.00    +0.006 A 
ATOM     26  C   UNL     1      -2.089  -0.203   3.613  0.00  0.00    +0.000 A 
ATOM     27  C   UNL     1      -3.470  -0.222   3.555  0.00  0.00    +0.000 A 
ATOM     28  C   UNL     1      -4.108  -0.455   2.351  0.00  0.00    +0.000 A 
ATOM     29  C   UNL     1      -3.365  -0.669   1.205  0.00  0.00    +0.006 A 
ENDBRANCH   8  24
TORSDOF 1
