REMARK  Name = ZINC36717810
REMARK  8 active torsions:
REMARK  status: ('A' for Active; 'I' for Inactive)
REMARK    1  A    between atoms: C_1  and  C_2
REMARK    2  A    between atoms: C_9  and  N_20
REMARK    3  A    between atoms: C_10  and  C_11
REMARK    4  A    between atoms: C_21  and  C_23
REMARK    5  A    between atoms: C_23  and  C_24
REMARK    6  A    between atoms: C_24  and  C_25
REMARK    7  A    between atoms: C_25  and  S_26
REMARK    8  A    between atoms: S_26  and  C_27
REMARK                            x       y       z     vdW  Elec       q    Type
REMARK                         _______ _______ _______ _____ _____    ______ ____
ROOT
ATOM      1  C   UNL     1      -0.019   1.526   0.010  0.00  0.00    +0.008 C 
ATOM      2  C   UNL     1       0.002  -0.004   0.002  0.00  0.00    -0.009 C 
ATOM      3  C   UNL     1      -1.433  -0.537   0.021  0.00  0.00    +0.008 C 
ATOM      4  C   UNL     1      -1.432  -2.045  -0.237  0.00  0.00    +0.037 C 
ATOM      5  C   UNL     1      -0.470  -2.711   0.742  0.00  0.00    -0.026 A 
ATOM      6  C   UNL     1       0.477  -1.986   1.380  0.00  0.00    -0.004 A 
ATOM      7  S   UNL     1       1.339  -3.157   2.393  0.00  0.00    -0.077 S 
ATOM      8  C   UNL     1       0.420  -4.622   1.953  0.00  0.00    +0.082 A 
ATOM      9  C   UNL     1      -0.504  -4.130   1.046  0.00  0.00    +0.039 A 
ATOM     10  C   UNL     1       0.738  -0.516   1.249  0.00  0.00    +0.046 C 
ENDROOT
BRANCH   9  11
ATOM     11  C   UNL     1      -1.492  -5.018   0.411  0.00  0.00    +0.112 A 
ATOM     12  N   UNL     1      -2.429  -4.720  -0.467  0.00  0.00    -0.239 NA
ATOM     13  C   UNL     1      -3.271  -5.647  -0.968  0.00  0.00    +0.079 A 
ATOM     14  C   UNL     1      -4.312  -5.462  -1.908  0.00  0.00    +0.029 A 
ATOM     15  C   UNL     1      -5.083  -6.519  -2.315  0.00  0.00    +0.002 A 
ATOM     16  C   UNL     1      -4.875  -7.800  -1.825  0.00  0.00    +0.001 A 
ATOM     17  C   UNL     1      -3.866  -8.017  -0.904  0.00  0.00    +0.017 A 
ATOM     18  C   UNL     1      -3.088  -6.965  -0.490  0.00  0.00    +0.040 A 
ATOM     19  S   UNL     1      -1.722  -6.777   0.630  0.00  0.00    -0.067 S 
ENDBRANCH   9  11
BRANCH   8  20
ATOM     20  N   UNL     1       0.589  -5.926   2.404  0.00  0.00    -0.279 N 
ATOM     21  C   UNL     1       1.557  -6.209   3.299  0.00  0.00    +0.218 C 
ATOM     22  O   UNL     1       2.280  -5.326   3.710  0.00  0.00    -0.275 OA
ATOM     23  H   UNL     1       0.011  -6.632   2.076  0.00  0.00    +0.155 HD
BRANCH  21  24
ATOM     24  C   UNL     1       1.740  -7.622   3.788  0.00  0.00    +0.097 C 
BRANCH  24  25
ATOM     25  C   UNL     1       2.897  -7.670   4.789  0.00  0.00    +0.020 C 
BRANCH  25  26
ATOM     26  C   UNL     1       3.083  -9.104   5.286  0.00  0.00    +0.075 C 
BRANCH  26  27
ATOM     27  S   UNL     1       4.455  -9.160   6.472  0.00  0.00    -0.125 S 
BRANCH  27  28
ATOM     28  C   UNL     1       4.541 -10.855   6.945  0.00  0.00    +0.008 A 
ATOM     29  C   UNL     1       3.656 -11.776   6.397  0.00  0.00    +0.017 A 
ATOM     30  C   UNL     1       3.726 -13.104   6.769  0.00  0.00    +0.039 A 
ATOM     31  C   UNL     1       4.676 -13.519   7.687  0.00  0.00    +0.123 A 
ATOM     32  C   UNL     1       5.559 -12.603   8.234  0.00  0.00    +0.039 A 
ATOM     33  C   UNL     1       5.497 -11.274   7.862  0.00  0.00    +0.017 A 
ATOM     34  F   UNL     1       4.742 -14.819   8.049  0.00  0.00    -0.205 F 
ENDBRANCH  27  28
ENDBRANCH  26  27
ENDBRANCH  25  26
ENDBRANCH  24  25
ENDBRANCH  21  24
ENDBRANCH   8  20
TORSDOF 7
