REMARK  Name = ZINC09323055
REMARK  9 active torsions:
REMARK  status: ('A' for Active; 'I' for Inactive)
REMARK    1  A    between atoms: C_1  and  C_2
REMARK    2  A    between atoms: C_7  and  C_8
REMARK    3  A    between atoms: N_11  and  C_12
REMARK    4  A    between atoms: C_12  and  C_14
REMARK    5  A    between atoms: C_19  and  N_20
REMARK    6  A    between atoms: N_20  and  S_21
REMARK    7  A    between atoms: S_21  and  C_24
REMARK    8  A    between atoms: N_30  and  C_31
REMARK    9  A    between atoms: C_31  and  C_32
REMARK                            x       y       z     vdW  Elec       q    Type
REMARK                         _______ _______ _______ _____ _____    ______ ____
ROOT
ATOM      1  C   UNL     1       2.392   2.596  -3.346  0.00  0.00    +0.271 C 
ATOM      2  O   UNL     1       3.576   2.876  -3.273  0.00  0.00    -0.268 OA
ENDROOT
BRANCH   1  13
ATOM      3  C   UNL     1       2.519   2.604   5.116  0.00  0.00    +0.044 C 
ATOM      4  C   UNL     1       2.975   2.715   3.684  0.00  0.00    -0.046 A 
ATOM      5  C   UNL     1       2.071   2.504   2.669  0.00  0.00    +0.030 A 
ATOM      6  C   UNL     1       2.464   2.606   1.326  0.00  0.00    +0.059 A 
ATOM      7  C   UNL     1       3.810   2.920   1.083  0.00  0.00    +0.039 A 
ATOM      8  C   UNL     1       4.712   3.130   2.098  0.00  0.00    +0.020 A 
ATOM      9  C   UNL     1       4.297   3.029   3.414  0.00  0.00    -0.046 A 
ATOM     10  C   UNL     1       5.271   3.256   4.541  0.00  0.00    +0.044 C 
ATOM     11  S   UNL     1       3.908   2.948  -0.689  0.00  0.00    -0.052 S 
ATOM     12  C   UNL     1       2.256   2.558  -1.041  0.00  0.00    +0.168 A 
ATOM     13  N   UNL     1       1.676   2.424  -2.228  0.00  0.00    -0.152 NA
ATOM     14  N   UNL     1       1.695   2.422   0.192  0.00  0.00    -0.310 N 
BRANCH  14  15
ATOM     15  C   UNL     1       0.275   2.086   0.317  0.00  0.00    +0.212 C 
BRANCH  15  16
ATOM     16  C   UNL     1       0.118   0.623   0.355  0.00  0.00    -0.084 C 
ATOM     17  C   UNL     1      -0.007  -0.544   0.386  0.00  0.00    +0.005 C 
ENDBRANCH  15  16
ENDBRANCH  14  15
ENDBRANCH   1  13
BRANCH   1  18
ATOM     18  C   UNL     1       1.747   2.447  -4.667  0.00  0.00    +0.061 A 
ATOM     19  C   UNL     1       0.391   2.127  -4.754  0.00  0.00    +0.015 A 
ATOM     20  C   UNL     1      -0.205   1.990  -5.989  0.00  0.00    +0.001 A 
ATOM     21  C   UNL     1       0.535   2.169  -7.147  0.00  0.00    +0.002 A 
ATOM     22  C   UNL     1       1.876   2.486  -7.077  0.00  0.00    +0.025 A 
ATOM     23  C   UNL     1       2.492   2.633  -5.840  0.00  0.00    +0.060 A 
BRANCH  23  24
ATOM     24  N   UNL     1       3.842   2.958  -5.767  0.00  0.00    -0.216 N 
ATOM     25  H   UNL     1       4.393   2.585  -5.061  0.00  0.00    +0.174 HD
BRANCH  24  26
ATOM     26  S   UNL     1       4.509   3.981  -6.884  0.00  0.00    +0.072 S 
ATOM     27  O   UNL     1       5.848   4.219  -6.469  0.00  0.00    -0.150 OA
ATOM     28  O   UNL     1       4.191   3.450  -8.163  0.00  0.00    -0.150 OA
BRANCH  26  29
ATOM     29  C   UNL     1       3.661   5.520  -6.753  0.00  0.00    +0.108 A 
ATOM     30  C   UNL     1       2.535   5.756  -7.520  0.00  0.00    +0.029 A 
ATOM     31  C   UNL     1       1.867   6.962  -7.415  0.00  0.00    +0.002 A 
ATOM     32  C   UNL     1       2.330   7.935  -6.549  0.00  0.00    +0.000 A 
ATOM     33  C   UNL     1       3.459   7.701  -5.785  0.00  0.00    +0.002 A 
ATOM     34  C   UNL     1       4.124   6.494  -5.888  0.00  0.00    +0.029 A 
ENDBRANCH  26  29
ENDBRANCH  24  26
ENDBRANCH  23  24
ENDBRANCH   1  18
TORSDOF 7
