REMARK  Name = ZINC01906494
REMARK  8 active torsions:
REMARK  status: ('A' for Active; 'I' for Inactive)
REMARK    1  A    between atoms: C_1  and  C_2
REMARK    2  A    between atoms: C_2  and  O_3
REMARK    3  A    between atoms: O_3  and  C_4
REMARK    4  A    between atoms: C_4  and  C_6
REMARK    5  A    between atoms: C_10  and  N_11
REMARK    6  A    between atoms: C_12  and  C_13
REMARK    7  A    between atoms: C_18  and  O_19
REMARK    8  A    between atoms: C_24  and  N_44
REMARK                            x       y       z     vdW  Elec       q    Type
REMARK                         _______ _______ _______ _____ _____    ______ ____
ROOT
ATOM      1  C   UNL     1       3.531  -4.996  -0.057  0.00  0.00    +0.095 A 
ATOM      2  C   UNL     1       3.298  -6.381  -0.062  0.00  0.00    -0.025 A 
ATOM      3  C   UNL     1       2.003  -6.788  -0.052  0.00  0.00    -0.021 A 
ATOM      4  S   UNL     1       1.063  -5.287  -0.027  0.00  0.00    -0.075 S 
ATOM      5  C   UNL     1       2.426  -4.134  -0.042  0.00  0.00    +0.115 A 
ATOM      6  C   UNL     1       1.509  -8.200  -0.058  0.00  0.00    -0.036 C 
ATOM      7  C   UNL     1       3.824  -8.764   0.370  0.00  0.00    -0.074 C 
ATOM      8  C   UNL     1       4.415  -7.423  -0.074  0.00  0.00    +0.018 C 
ATOM      9  C   UNL     1       2.262 -10.495  -0.283  0.00  0.00    -0.096 C 
ATOM     10  N   UNL     1       2.639  -9.075  -0.454  0.00  0.00    +0.381 N 
ATOM     11  H   UNL     1       2.863  -8.906  -1.441  0.00  0.00    -0.082 HD
ENDROOT
BRANCH   1  12
ATOM     12  C   UNL     1       4.897  -4.465  -0.068  0.00  0.00    +0.342 C 
ATOM     13  O   UNL     1       5.473  -4.250   0.981  0.00  0.00    -0.245 OA
BRANCH  12  14
ATOM     14  O   UNL     1       5.514  -4.216  -1.241  0.00  0.00    -0.461 OA
BRANCH  14  16
ATOM     15  C   UNL     1       7.398  -3.472  -2.593  0.00  0.00    +0.048 C 
ATOM     16  C   UNL     1       6.866  -3.691  -1.175  0.00  0.00    +0.229 C 
ENDBRANCH  14  16
ENDBRANCH  12  14
ENDBRANCH   1  12
BRANCH   5  17
ATOM     17  N   UNL     1       2.400  -2.784  -0.035  0.00  0.00    -0.247 NA
ATOM     18  C   UNL     1       1.254  -2.152  -0.021  0.00  0.00    +0.123 C 
BRANCH  18  19
ATOM     19  C   UNL     1       1.225  -0.684  -0.013  0.00  0.00    +0.036 A 
ATOM     20  C   UNL     1       0.002  -0.004   0.002  0.00  0.00    +0.033 A 
ATOM     21  C   UNL     1      -0.017   1.374   0.010  0.00  0.00    +0.042 A 
ATOM     22  C   UNL     1       1.171   2.090   0.002  0.00  0.00    +0.023 A 
ATOM     23  C   UNL     1       2.385   1.431  -0.013  0.00  0.00    +0.047 A 
ATOM     24  C   UNL     1       2.425   0.046  -0.021  0.00  0.00    +0.126 A 
ATOM     25 CL   UNL     1      -1.534   2.218   0.021  0.00  0.00    -0.084 Cl
BRANCH  24  26
ATOM     26  O   UNL     1       3.617  -0.602  -0.036  0.00  0.00    -0.506 OA
ATOM     27  H   UNL     1       3.954  -0.784  -0.924  0.00  0.00    +0.292 HD
ENDBRANCH  24  26
ENDBRANCH  18  19
ENDBRANCH   5  17
TORSDOF 6
