REMARK  Name = ZINC04281217
REMARK  9 active torsions:
REMARK  status: ('A' for Active; 'I' for Inactive)
REMARK    1  A    between atoms: C_1  and  C_2
REMARK    2  A    between atoms: C_2  and  C_29
REMARK    3  A    between atoms: C_5  and  C_25
REMARK    4  A    between atoms: C_6  and  N_12
REMARK    5  A    between atoms: C_9  and  C_10
REMARK    6  A    between atoms: C_9  and  C_11
REMARK    7  A    between atoms: C_13  and  C_15
REMARK    8  A    between atoms: C_25  and  O_27
REMARK    9  A    between atoms: O_27  and  C_28
REMARK                            x       y       z     vdW  Elec       q    Type
REMARK                         _______ _______ _______ _____ _____    ______ ____
ROOT
ATOM      1  C   UNL     1       5.317   2.931  -2.283  0.00  0.00    -0.010 C 
ATOM      2  C   UNL     1       5.746   2.958  -0.813  0.00  0.00    -0.069 C 
ATOM      3  C   UNL     1       5.045   1.820  -0.061  0.00  0.00    +0.024 C 
ATOM      4  C   UNL     1       3.557   2.143  -0.026  0.00  0.00    -0.024 A 
ATOM      5  C   UNL     1       2.479   1.178  -0.015  0.00  0.00    +0.091 A 
ATOM      6  C   UNL     1       1.179   1.674  -0.000  0.00  0.00    +0.086 A 
ATOM      7  S   UNL     1       1.410   3.392   0.009  0.00  0.00    -0.079 S 
ATOM      8  C   UNL     1       3.179   3.442  -0.009  0.00  0.00    -0.016 A 
ATOM      9  C   UNL     1       4.082   4.632   0.001  0.00  0.00    -0.041 C 
ATOM     10  C   UNL     1       3.627   5.626  -1.077  0.00  0.00    -0.005 C 
ATOM     11  C   UNL     1       3.956   5.325   1.371  0.00  0.00    -0.005 C 
ATOM     12  C   UNL     1       7.263   2.696  -0.758  0.00  0.00    -0.010 C 
ATOM     13  N   UNL     1       5.520   4.291  -0.197  0.00  0.00    +0.389 N 
ATOM     14  H   UNL     1       5.940   5.003  -0.806  0.00  0.00    -0.084 HD
ATOM     15  H   UNL     1       5.985   4.306   0.718  0.00  0.00    -0.084 HD
ENDROOT
BRANCH   6  16
ATOM     16  N   UNL     1      -0.011   0.966   0.007  0.00  0.00    -0.275 N 
ATOM     17  C   UNL     1      -1.187   1.624   0.017  0.00  0.00    +0.249 C 
ATOM     18  O   UNL     1      -1.204   2.839   0.023  0.00  0.00    -0.270 OA
ATOM     19  H   UNL     1       0.002  -0.004   0.002  0.00  0.00    +0.156 HD
BRANCH  17  20
ATOM     20  C   UNL     1      -2.456   0.868   0.018  0.00  0.00    +0.038 A 
ATOM     21  C   UNL     1      -2.431  -0.539   0.005  0.00  0.00    +0.013 A 
ATOM     22  C   UNL     1      -3.584  -1.255   0.011  0.00  0.00    +0.009 A 
ATOM     23  C   UNL     1      -4.825  -0.592   0.021  0.00  0.00    -0.018 A 
ATOM     24  C   UNL     1      -6.031  -1.313   0.021  0.00  0.00    +0.008 A 
ATOM     25  C   UNL     1      -7.217  -0.644   0.030  0.00  0.00    +0.001 A 
ATOM     26  C   UNL     1      -7.255   0.749   0.039  0.00  0.00    +0.001 A 
ATOM     27  C   UNL     1      -6.108   1.481   0.038  0.00  0.00    +0.008 A 
ATOM     28  C   UNL     1      -4.864   0.825   0.029  0.00  0.00    -0.017 A 
ATOM     29  C   UNL     1      -3.662   1.549   0.028  0.00  0.00    +0.021 A 
ENDBRANCH  17  20
ENDBRANCH   6  16
BRANCH   5  30
ATOM     30  C   UNL     1       2.731  -0.265  -0.017  0.00  0.00    +0.342 C 
ATOM     31  O   UNL     1       2.824  -0.865  -1.071  0.00  0.00    -0.245 OA
BRANCH  30  32
ATOM     32  O   UNL     1       2.861  -0.928   1.151  0.00  0.00    -0.464 OA
ATOM     33  C   UNL     1       3.110  -2.356   1.074  0.00  0.00    +0.280 C 
ENDBRANCH  30  32
ENDBRANCH   5  30
TORSDOF 4
