REMARK  Name = ZINC22263832
REMARK  3 active torsions:
REMARK  status: ('A' for Active; 'I' for Inactive)
REMARK    1  A    between atoms: C_8  and  C_10
REMARK    2  A    between atoms: N_13  and  S_16
REMARK    3  A    between atoms: S_16  and  C_19
REMARK                            x       y       z     vdW  Elec       q    Type
REMARK                         _______ _______ _______ _____ _____    ______ ____
ROOT
ATOM      1  C   UNL     1      -1.514   7.300   0.056  0.00  0.00    +0.078 C 
ATOM      2  C   UNL     1      -0.810   7.845   1.301  0.00  0.00    +0.030 C 
ATOM      3  C   UNL     1      -0.872   9.375   1.289  0.00  0.00    +0.110 C 
ATOM      4  N   UNL     1      -2.276   9.790   1.159  0.00  0.00    -0.177 NA
ATOM      5  C   UNL     1      -3.071   9.253   0.046  0.00  0.00    +0.110 C 
ATOM      6  C   UNL     1      -2.984   7.724   0.072  0.00  0.00    +0.030 C 
ENDROOT
BRANCH   1  14
ATOM      7  C   UNL     1      -0.013   1.076   0.009  0.00  0.00    +0.021 A 
ATOM      8  C   UNL     1       1.176   1.793   0.001  0.00  0.00    +0.056 A 
ATOM      9  C   UNL     1       1.112   3.179   0.009  0.00  0.00    +0.217 A 
ATOM     10  C   UNL     1      -0.138   3.798   0.024  0.00  0.00    +0.150 A 
ATOM     11  N   UNL     1      -1.246   3.076   0.032  0.00  0.00    -0.346 N 
ATOM     12  C   UNL     1      -1.214   1.756   0.018  0.00  0.00    +0.084 A 
ATOM     13  N   UNL     1      -0.220   5.191   0.032  0.00  0.00    -0.269 N 
ATOM     14  C   UNL     1      -1.425   5.795   0.047  0.00  0.00    +0.221 C 
ATOM     15  O   UNL     1      -2.438   5.128   0.053  0.00  0.00    -0.275 OA
ATOM     16  O   UNL     1       2.250   3.923   0.001  0.00  0.00    -0.284 OA
ATOM     17  H   UNL     1       0.698   5.796   0.027  0.00  0.00    +0.156 HD
ATOM     18  H   UNL     1      -2.227   3.573   0.049  0.00  0.00    +0.167 HD
ENDBRANCH   1  14
BRANCH   4  19
ATOM     19  S   UNL     1      -2.948  10.845   2.244  0.00  0.00    +0.061 S 
ATOM     20  O   UNL     1      -1.875  11.588   2.807  0.00  0.00    -0.153 OA
ATOM     21  O   UNL     1      -4.040  11.468   1.583  0.00  0.00    -0.153 OA
BRANCH  19  22
ATOM     22  C   UNL     1      -3.633   9.882   3.551  0.00  0.00    +0.106 A 
ATOM     23  C   UNL     1      -4.944   9.449   3.480  0.00  0.00    +0.029 A 
ATOM     24  C   UNL     1      -5.472   8.692   4.505  0.00  0.00    +0.006 A 
ATOM     25  C   UNL     1      -4.701   8.370   5.614  0.00  0.00    -0.044 A 
ATOM     26  C   UNL     1      -3.396   8.803   5.686  0.00  0.00    -0.042 A 
ATOM     27  C   UNL     1      -2.865   9.561   4.650  0.00  0.00    +0.032 A 
ATOM     28  C   UNL     1      -2.499   8.483   6.853  0.00  0.00    +0.035 C 
ATOM     29  C   UNL     1      -3.325   8.040   8.059  0.00  0.00    +0.005 C 
ATOM     30  C   UNL     1      -4.284   6.932   7.608  0.00  0.00    +0.005 C 
ATOM     31  C   UNL     1      -5.346   7.553   6.703  0.00  0.00    +0.035 C 
ENDBRANCH  19  22
ENDBRANCH   4  19
TORSDOF 3
