REMARK  Name = ZINC03337809
REMARK  5 active torsions:
REMARK  status: ('A' for Active; 'I' for Inactive)
REMARK    1  A    between atoms: C_1  and  C_2
REMARK    2  A    between atoms: C_4  and  N_9
REMARK    3  A    between atoms: C_17  and  C_19
REMARK    4  A    between atoms: C_19  and  N_57
REMARK    5  A    between atoms: C_26  and  C_30
REMARK                            x       y       z     vdW  Elec       q    Type
REMARK                         _______ _______ _______ _____ _____    ______ ____
ROOT
ATOM      1  N   UNL     1      -1.220   2.104   0.019  0.00  0.00    -0.299 N 
ATOM      2  C   UNL     1      -0.175   1.373   0.558  0.00  0.00    +0.135 A 
ATOM      3  C   UNL     1      -0.090  -0.031   0.342  0.00  0.00    +0.051 A 
ATOM      4  C   UNL     1      -0.998  -0.899  -0.410  0.00  0.00    -0.025 A 
ATOM      5  C   UNL     1      -0.686  -2.210  -0.463  0.00  0.00    -0.004 A 
ATOM      6  S   UNL     1       0.813  -2.368   0.471  0.00  0.00    -0.073 S 
ATOM      7  C   UNL     1       1.020  -0.668   0.933  0.00  0.00    +0.114 A 
ATOM      8  N   UNL     1       1.908   0.007   1.636  0.00  0.00    -0.227 NA
ATOM      9  C   UNL     1       1.776   1.309   1.803  0.00  0.00    +0.116 A 
ATOM     10  N   UNL     1       0.761   1.971   1.277  0.00  0.00    -0.219 NA
ATOM     11  C   UNL     1      -1.446  -3.296  -1.161  0.00  0.00    +0.046 C 
ATOM     12  C   UNL     1      -2.845  -2.765  -1.504  0.00  0.00    -0.009 C 
ATOM     13  C   UNL     1      -2.701  -1.386  -2.153  0.00  0.00    +0.008 C 
ATOM     14  C   UNL     1      -2.245  -0.366  -1.109  0.00  0.00    +0.037 C 
ATOM     15  C   UNL     1      -3.534  -3.724  -2.477  0.00  0.00    +0.008 C 
ATOM     16  H   UNL     1      -1.945   1.649  -0.437  0.00  0.00    +0.154 HD
ENDROOT
BRANCH   1  20
ATOM     17  C   UNL     1      -3.749   6.293   0.482  0.00  0.00    +0.045 C 
ATOM     18  C   UNL     1      -2.442   5.554   0.359  0.00  0.00    -0.035 A 
ATOM     19  C   UNL     1      -2.435   4.177   0.246  0.00  0.00    +0.027 A 
ATOM     20  C   UNL     1      -1.230   3.497   0.132  0.00  0.00    +0.033 A 
ATOM     21  C   UNL     1      -0.034   4.204   0.137  0.00  0.00    +0.024 A 
ATOM     22  C   UNL     1      -0.047   5.580   0.244  0.00  0.00    +0.017 A 
ATOM     23  C   UNL     1      -1.249   6.255   0.357  0.00  0.00    +0.021 A 
ATOM     24 BR   UNL     1      -1.263   8.140   0.510  0.00  0.00    -0.050 Br
ENDBRANCH   1  20
BRANCH   9  25
ATOM     25  C   UNL     1       2.804   2.057   2.611  0.00  0.00    -0.001 C 
BRANCH  25  31
ATOM     26  C   UNL     1       4.635   1.389   1.172  0.00  0.00    -0.050 C 
ATOM     27  C   UNL     1       5.703   1.915   0.210  0.00  0.00    +0.141 C 
ATOM     28  O   UNL     1       6.546   2.841   0.902  0.00  0.00    -0.383 OA
ATOM     29  C   UNL     1       5.843   3.958   1.452  0.00  0.00    +0.141 C 
ATOM     30  C   UNL     1       4.775   3.453   2.427  0.00  0.00    -0.050 C 
ATOM     31  N   UNL     1       3.869   2.536   1.704  0.00  0.00    +0.387 N 
ATOM     32  H   UNL     1       3.438   3.042   0.921  0.00  0.00    -0.081 HD
ENDBRANCH  25  31
ENDBRANCH   9  25
TORSDOF 3
