REMARK  Name = ZINC62601095
REMARK  5 active torsions:
REMARK  status: ('A' for Active; 'I' for Inactive)
REMARK    1  A    between atoms: C_1  and  C_2
REMARK    2  A    between atoms: C_2  and  C_21
REMARK    3  A    between atoms: C_5  and  C_14
REMARK    4  A    between atoms: C_9  and  C_11
REMARK    5  A    between atoms: C_14  and  C_15
REMARK                            x       y       z     vdW  Elec       q    Type
REMARK                         _______ _______ _______ _____ _____    ______ ____
ROOT
ATOM      1  C   UNL     1       0.003   1.494   0.332  0.00  0.00    +0.034 C 
ATOM      2  C   UNL     1       0.005  -0.012   0.060  0.00  0.00    +0.055 C 
ATOM      3  C   UNL     1       0.608  -0.286  -1.323  0.00  0.00    +0.185 C 
ATOM      4  O   UNL     1       1.998   0.048  -1.305  0.00  0.00    -0.373 OA
ATOM      5  C   UNL     1       2.776  -0.735  -0.396  0.00  0.00    +0.140 C 
ATOM      6  C   UNL     1       2.284  -0.484   1.034  0.00  0.00    +0.140 C 
ATOM      7  N   UNL     1       0.829  -0.697   1.069  0.00  0.00    -0.291 N 
ATOM      8  C   UNL     1       0.266  -1.496   1.998  0.00  0.00    +0.219 C 
ATOM      9  O   UNL     1      -0.923  -1.728   1.957  0.00  0.00    -0.275 OA
ATOM     10  C   UNL     1      -1.427  -0.547   0.114  0.00  0.00    +0.034 C 
ENDROOT
BRANCH   8  11
ATOM     11  C   UNL     1       1.115  -2.099   3.086  0.00  0.00    +0.075 C 
ATOM     12  C   UNL     1       1.336  -3.613   3.053  0.00  0.00    +0.013 C 
ATOM     13  C   UNL     1       0.418  -2.997   4.110  0.00  0.00    +0.013 C 
ENDBRANCH   8  11
BRANCH   5  14
ATOM     14  C   UNL     1       4.249  -0.335  -0.508  0.00  0.00    +0.068 C 
BRANCH  14  15
ATOM     15  C   UNL     1       4.762  -0.691  -1.880  0.00  0.00    -0.045 A 
ATOM     16  C   UNL     1       5.316  -1.937  -2.109  0.00  0.00    +0.004 A 
ATOM     17  C   UNL     1       5.787  -2.263  -3.367  0.00  0.00    +0.000 A 
ATOM     18  C   UNL     1       5.704  -1.344  -4.396  0.00  0.00    +0.000 A 
ATOM     19  C   UNL     1       5.149  -0.099  -4.167  0.00  0.00    +0.000 A 
ATOM     20  C   UNL     1       4.674   0.226  -2.910  0.00  0.00    +0.004 A 
ENDBRANCH  14  15
ENDBRANCH   5  14
TORSDOF 3
