REMARK  Name = ZINC12652478
REMARK  5 active torsions:
REMARK  status: ('A' for Active; 'I' for Inactive)
REMARK    1  A    between atoms: C_1  and  C_2
REMARK    2  A    between atoms: C_2  and  C_3
REMARK    3  A    between atoms: C_3  and  N_4
REMARK    4  A    between atoms: C_17  and  C_19
REMARK    5  A    between atoms: C_27  and  C_30
REMARK                            x       y       z     vdW  Elec       q    Type
REMARK                         _______ _______ _______ _____ _____    ______ ____
ROOT
ATOM      1  N   UNL     1       9.305   1.988   2.300  0.00  0.00    -0.299 N 
ATOM      2  C   UNL     1       8.574   1.937   1.169  0.00  0.00    +0.307 C 
ATOM      3  O   UNL     1       8.839   2.675   0.240  0.00  0.00    -0.252 OA
ATOM      4  N   UNL     1       7.549   1.067   1.068  0.00  0.00    -0.239 N 
ATOM      5  C   UNL     1       7.253   0.225   2.140  0.00  0.00    +0.060 A 
ATOM      6  C   UNL     1       8.137  -0.763   2.546  0.00  0.00    +0.025 A 
ATOM      7  C   UNL     1       7.783  -1.609   3.582  0.00  0.00    +0.002 A 
ATOM      8  C   UNL     1       6.556  -1.478   4.207  0.00  0.00    +0.002 A 
ATOM      9  C   UNL     1       5.679  -0.480   3.817  0.00  0.00    +0.025 A 
ATOM     10  C   UNL     1       6.043   0.382   2.797  0.00  0.00    +0.053 A 
ATOM     11  N   UNL     1       5.249   1.456   2.410  0.00  0.00    -0.316 N 
ATOM     12  C   UNL     1       4.686   1.604   1.183  0.00  0.00    +0.018 C 
ATOM     13  C   UNL     1       5.326   1.428   0.015  0.00  0.00    +0.040 C 
ATOM     14  C   UNL     1       6.771   1.019  -0.151  0.00  0.00    +0.184 C 
ATOM     15  C   UNL     1       4.643   1.620  -1.209  0.00  0.00    +0.164 C 
ATOM     16  O   UNL     1       5.252   1.471  -2.251  0.00  0.00    -0.292 OA
ATOM     17  C   UNL     1       3.194   2.001  -1.266  0.00  0.00    +0.091 C 
ATOM     18  C   UNL     1       2.499   1.455  -0.013  0.00  0.00    +0.068 C 
ATOM     19  C   UNL     1       3.224   2.022   1.205  0.00  0.00    +0.063 C 
ATOM     20  H   UNL     1       9.094   1.399   3.042  0.00  0.00    +0.150 HD
ATOM     21  H   UNL     1       5.086   2.151   3.065  0.00  0.00    +0.152 HD
ENDROOT
BRANCH  14  22
ATOM     22  C   UNL     1       6.811  -0.389  -0.685  0.00  0.00    +0.130 A 
ATOM     23  C   UNL     1       7.014  -0.738  -1.969  0.00  0.00    +0.047 A 
ATOM     24  C   UNL     1       6.973  -2.150  -2.021  0.00  0.00    +0.041 A 
ATOM     25  C   UNL     1       6.747  -2.580  -0.766  0.00  0.00    +0.195 A 
ATOM     26  O   UNL     1       6.656  -1.509   0.039  0.00  0.00    -0.466 OA
ENDBRANCH  14  22
BRANCH  18  27
ATOM     27  C   UNL     1       1.057   1.892   0.002  0.00  0.00    +0.109 A 
ATOM     28  C   UNL     1      -0.013   1.076   0.008  0.00  0.00    +0.045 A 
ATOM     29  C   UNL     1      -1.159   1.903   0.017  0.00  0.00    +0.041 A 
ATOM     30  C   UNL     1      -0.722   3.175   0.026  0.00  0.00    +0.195 A 
ATOM     31  O   UNL     1       0.621   3.162   0.013  0.00  0.00    -0.468 OA
ENDBRANCH  18  27
BRANCH   1  32
ATOM     32  C   UNL     1      10.418   2.934   2.410  0.00  0.00    +0.105 C 
BRANCH  32  34
ATOM     33  C   UNL     1      12.240   3.776   3.899  0.00  0.00    +0.005 C 
ATOM     34  C   UNL     1      11.077   2.789   3.784  0.00  0.00    +0.015 C 
ENDBRANCH  32  34
ENDBRANCH   1  32
TORSDOF 4
