REMARK  Name = ZINC20836081
REMARK  12 active torsions:
REMARK  status: ('A' for Active; 'I' for Inactive)
REMARK    1  A    between atoms: C_1  and  C_2
REMARK    2  A    between atoms: C_2  and  C_3
REMARK    3  A    between atoms: C_2  and  S_4
REMARK    4  A    between atoms: S_4  and  C_5
REMARK    5  A    between atoms: C_11  and  C_13
REMARK    6  A    between atoms: C_13  and  S_14
REMARK    7  A    between atoms: S_14  and  C_15
REMARK    8  A    between atoms: N_20  and  N_21
REMARK    9  A    between atoms: C_22  and  C_23
REMARK   10  A    between atoms: C_22  and  C_24
REMARK   11  A    between atoms: C_27  and  O_30
REMARK   12  A    between atoms: O_30  and  C_31
REMARK                            x       y       z     vdW  Elec       q    Type
REMARK                         _______ _______ _______ _____ _____    ______ ____
ROOT
ATOM      1  C   UNL     1      -0.641  -6.966  -0.028  0.00  0.00    +0.211 A 
ATOM      2  N   UNL     1      -1.515  -8.016  -0.025  0.00  0.00    -0.186 NA
ATOM      3  C   UNL     1      -0.786  -9.172  -0.038  0.00  0.00    +0.232 A 
ATOM      4  N   UNL     1       0.485  -8.850  -0.048  0.00  0.00    -0.245 N 
ATOM      5  N   UNL     1       0.577  -7.452  -0.048  0.00  0.00    -0.144 NA
ATOM      6  N   UNL     1      -1.300 -10.461  -0.040  0.00  0.00    -0.205 N 
ATOM      7  H   UNL     1      -2.389 -10.618  -0.031  0.00  0.00    +0.177 HD
ATOM      8  H   UNL     1       1.252  -9.638  -0.055  0.00  0.00    +0.192 HD
ENDROOT
BRANCH   6   9
ATOM      9  N   UNL     1      -0.433 -11.561  -0.054  0.00  0.00    -0.184 NA
ATOM     10  C   UNL     1      -0.915 -12.767  -0.056  0.00  0.00    +0.063 C 
ATOM     11  C   UNL     1      -2.406 -12.983  -0.044  0.00  0.00    +0.068 C 
BRANCH  10  12
ATOM     12  C   UNL     1      -0.003 -13.925  -0.070  0.00  0.00    -0.002 A 
ATOM     13  C   UNL     1      -0.519 -15.224  -0.067  0.00  0.00    +0.013 A 
ATOM     14  C   UNL     1       0.338 -16.303  -0.086  0.00  0.00    +0.046 A 
ATOM     15  C   UNL     1       1.712 -16.102  -0.097  0.00  0.00    +0.120 A 
ATOM     16  C   UNL     1       2.229 -14.813  -0.095  0.00  0.00    +0.046 A 
ATOM     17  C   UNL     1       1.380 -13.728  -0.082  0.00  0.00    +0.013 A 
BRANCH  15  18
ATOM     18  O   UNL     1       2.553 -17.169  -0.110  0.00  0.00    -0.495 OA
ATOM     19  C   UNL     1       1.954 -18.467  -0.112  0.00  0.00    +0.277 C 
ENDBRANCH  15  18
ENDBRANCH  10  12
ENDBRANCH   6   9
BRANCH   1  20
ATOM     20  S   UNL     1      -1.074  -5.258  -0.015  0.00  0.00    -0.075 S 
BRANCH  20  21
ATOM     21  C   UNL     1       0.524  -4.400  -0.026  0.00  0.00    +0.173 C 
BRANCH  21  28
ATOM     22  C   UNL     1       1.100   1.973   0.002  0.00  0.00    +0.160 A 
ATOM     23  N   UNL     1      -0.015   1.257   0.009  0.00  0.00    -0.133 NA
ATOM     24  N   UNL     1       0.002  -0.004   0.002  0.00  0.00    -0.125 NA
ATOM     25  C   UNL     1       1.133  -0.690  -0.013  0.00  0.00    +0.189 A 
ATOM     26  S   UNL     1       2.314   0.656  -0.017  0.00  0.00    -0.024 S 
ATOM     27  N   UNL     1       1.345  -2.067  -0.021  0.00  0.00    -0.263 N 
ATOM     28  C   UNL     1       0.294  -2.910  -0.016  0.00  0.00    +0.229 C 
ATOM     29  O   UNL     1      -0.836  -2.471  -0.003  0.00  0.00    -0.275 OA
ATOM     30  H   UNL     1       2.370  -2.465  -0.033  0.00  0.00    +0.157 HD
BRANCH  22  31
ATOM     31  S   UNL     1       1.324   3.720   0.009  0.00  0.00    -0.094 S 
BRANCH  31  33
ATOM     32  C   UNL     1      -1.049   3.991   1.340  0.00  0.00    +0.019 C 
ATOM     33  C   UNL     1      -0.365   4.380   0.028  0.00  0.00    +0.047 C 
ATOM     34  C   UNL     1      -0.319   5.904  -0.091  0.00  0.00    +0.019 C 
ENDBRANCH  31  33
ENDBRANCH  22  31
ENDBRANCH  21  28
ENDBRANCH  20  21
ENDBRANCH   1  20
TORSDOF 8
