REMARK  Name = ZINC65415101
REMARK  12 active torsions:
REMARK  status: ('A' for Active; 'I' for Inactive)
REMARK    1  A    between atoms: C_1  and  C_2
REMARK    2  A    between atoms: C_2  and  N_3
REMARK    3  A    between atoms: N_3  and  C_4
REMARK    4  A    between atoms: C_4  and  C_5
REMARK    5  A    between atoms: C_4  and  C_6
REMARK    6  A    between atoms: C_6  and  C_7
REMARK    7  A    between atoms: C_6  and  C_8
REMARK    8  A    between atoms: N_11  and  C_12
REMARK    9  A    between atoms: C_22  and  C_24
REMARK   10  A    between atoms: C_24  and  C_25
REMARK   11  A    between atoms: C_24  and  C_26
REMARK   12  A    between atoms: C_24  and  C_27
REMARK                            x       y       z     vdW  Elec       q    Type
REMARK                         _______ _______ _______ _____ _____    ______ ____
ROOT
ATOM      1  C   UNL     1      -2.075  -0.217  -4.054  0.00  0.00    +0.037 A 
ATOM      2  C   UNL     1      -1.543  -0.436  -5.318  0.00  0.00    +0.027 A 
ATOM      3  C   UNL     1      -2.366  -0.439  -6.427  0.00  0.00    +0.049 A 
ATOM      4  C   UNL     1      -3.729  -0.223  -6.284  0.00  0.00    +0.142 A 
ATOM      5  C   UNL     1      -4.263  -0.006  -5.017  0.00  0.00    +0.080 A 
ATOM      6  C   UNL     1      -3.439  -0.007  -3.903  0.00  0.00    +0.050 A 
ATOM      7  N   UNL     1      -5.644   0.206  -4.869  0.00  0.00    -0.265 N 
ATOM      8  C   UNL     1      -6.426   0.498  -6.083  0.00  0.00    +0.154 C 
ATOM      9  C   UNL     1      -5.927  -0.440  -7.192  0.00  0.00    +0.248 C 
ATOM     10  O   UNL     1      -4.528  -0.222  -7.385  0.00  0.00    -0.489 OA
ATOM     11  C   UNL     1      -6.234   0.143  -3.659  0.00  0.00    +0.225 C 
ATOM     12  O   UNL     1      -5.560  -0.027  -2.664  0.00  0.00    -0.275 OA
ENDROOT
BRANCH   1  16
ATOM     13  N   UNL     1       0.787   0.373  -1.924  0.00  0.00    -0.283 N 
ATOM     14  C   UNL     1       0.012   0.288  -3.023  0.00  0.00    +0.307 C 
ATOM     15  O   UNL     1       0.438   0.663  -4.099  0.00  0.00    -0.252 OA
ATOM     16  N   UNL     1      -1.236  -0.213  -2.931  0.00  0.00    -0.269 N 
ATOM     17  H   UNL     1      -1.554  -0.571  -2.087  0.00  0.00    +0.156 HD
BRANCH  13  19
ATOM     18  C   UNL     1      -0.418   1.088   0.081  0.00  0.00    +0.024 C 
ATOM     19  C   UNL     1       0.273  -0.079  -0.629  0.00  0.00    +0.106 C 
ENDBRANCH  13  19
BRANCH  13  20
ATOM     20  C   UNL     1       2.143   0.918  -2.025  0.00  0.00    +0.077 C 
ATOM     21  C   UNL     1       3.152  -0.141  -1.576  0.00  0.00    +0.028 C 
BRANCH  20  22
ATOM     22  C   UNL     1       2.265   2.152  -1.128  0.00  0.00    +0.003 C 
ATOM     23  C   UNL     1       3.681   2.720  -1.233  0.00  0.00    +0.009 C 
ATOM     24  C   UNL     1       1.256   3.210  -1.577  0.00  0.00    +0.009 C 
ENDBRANCH  20  22
ENDBRANCH  13  20
ENDBRANCH   1  16
BRANCH  11  25
ATOM     25  C   UNL     1      -7.729   0.285  -3.541  0.00  0.00    +0.039 C 
ATOM     26  C   UNL     1      -8.132   0.226  -2.066  0.00  0.00    +0.020 C 
ATOM     27  C   UNL     1      -8.163   1.627  -4.134  0.00  0.00    +0.020 C 
ATOM     28  C   UNL     1      -8.411  -0.853  -4.302  0.00  0.00    +0.020 C 
ENDBRANCH  11  25
TORSDOF 5
