REMARK  Name = ZINC65732837
REMARK  8 active torsions:
REMARK  status: ('A' for Active; 'I' for Inactive)
REMARK    1  A    between atoms: C_1  and  C_2
REMARK    2  A    between atoms: C_2  and  C_3
REMARK    3  A    between atoms: C_2  and  C_4
REMARK    4  A    between atoms: C_2  and  C_5
REMARK    5  A    between atoms: C_5  and  C_6
REMARK    6  A    between atoms: C_5  and  N_11
REMARK    7  A    between atoms: C_12  and  C_14
REMARK    8  A    between atoms: C_17  and  C_22
REMARK                            x       y       z     vdW  Elec       q    Type
REMARK                         _______ _______ _______ _____ _____    ______ ____
ROOT
ATOM      1  N   UNL     1       0.742  -1.962  -1.274  0.00  0.00    -0.303 N 
ATOM      2  C   UNL     1      -0.315  -2.648  -1.752  0.00  0.00    +0.250 C 
ATOM      3  O   UNL     1      -1.322  -2.055  -2.092  0.00  0.00    -0.270 OA
ATOM      4  H   UNL     1       1.521  -2.437  -0.946  0.00  0.00    +0.150 HD
ENDROOT
BRANCH   2   5
ATOM      5  C   UNL     1      -0.252  -4.110  -1.862  0.00  0.00    +0.101 A 
ATOM      6  C   UNL     1      -1.298  -4.820  -2.462  0.00  0.00    +0.020 A 
ATOM      7  C   UNL     1      -1.213  -6.199  -2.553  0.00  0.00    +0.030 A 
ATOM      8  C   UNL     1      -0.098  -6.858  -2.052  0.00  0.00    +0.085 A 
ATOM      9  N   UNL     1       0.922  -6.159  -1.466  0.00  0.00    -0.319 N 
ATOM     10  H   UNL     1       1.694  -6.635  -1.121  0.00  0.00    +0.169 HD
ATOM     11  C   UNL     1       0.872  -4.817  -1.367  0.00  0.00    +0.261 A 
ATOM     12  O   UNL     1       1.792  -4.210  -0.846  0.00  0.00    -0.267 OA
BRANCH   8  13
ATOM     13  C   UNL     1      -0.013  -8.317  -2.150  0.00  0.00    +0.151 A 
ATOM     14  C   UNL     1       1.017  -9.094  -1.697  0.00  0.00    +0.051 A 
ATOM     15  C   UNL     1       0.682 -10.424  -1.999  0.00  0.00    +0.042 A 
ATOM     16  C   UNL     1      -0.521 -10.400  -2.615  0.00  0.00    +0.196 A 
ATOM     17  O   UNL     1      -0.939  -9.130  -2.699  0.00  0.00    -0.461 OA
ENDBRANCH   8  13
ENDBRANCH   2   5
BRANCH   1  18
ATOM     18  C   UNL     1       0.714  -0.497  -1.250  0.00  0.00    +0.115 C 
BRANCH  18  19
ATOM     19  C   UNL     1       2.124   0.033  -1.276  0.00  0.00    +0.010 A 
ATOM     20  C   UNL     1       2.622   1.102  -1.945  0.00  0.00    +0.013 A 
ATOM     21  C   UNL     1       3.965   1.405  -1.819  0.00  0.00    +0.008 A 
ATOM     22  C   UNL     1       4.744   0.625  -1.031  0.00  0.00    +0.045 A 
ATOM     23  S   UNL     1       3.572  -0.580  -0.430  0.00  0.00    -0.100 S 
ENDBRANCH  18  19
BRANCH  18  25
ATOM     24  C   UNL     1      -0.015   1.508   0.050  0.00  0.00    +0.013 C 
ATOM     25  C   UNL     1       0.014  -0.021   0.025  0.00  0.00    -0.015 C 
ATOM     26  C   UNL     1       0.776  -0.537   1.248  0.00  0.00    +0.013 C 
ATOM     27  C   UNL     1      -1.418  -0.559   0.052  0.00  0.00    +0.013 C 
ENDBRANCH  18  25
ENDBRANCH   1  18
TORSDOF 5
