REMARK  Name = ZINC12490204
REMARK  11 active torsions:
REMARK  status: ('A' for Active; 'I' for Inactive)
REMARK    1  A    between atoms: C_1  and  C_2
REMARK    2  A    between atoms: C_2  and  C_3
REMARK    3  A    between atoms: C_6  and  O_10
REMARK    4  A    between atoms: O_10  and  C_11
REMARK    5  A    between atoms: C_11  and  C_12
REMARK    6  A    between atoms: N_14  and  N_15
REMARK    7  A    between atoms: C_16  and  C_18
REMARK    8  A    between atoms: C_18  and  O_19
REMARK    9  A    between atoms: O_19  and  C_20
REMARK   10  A    between atoms: C_21  and  C_28
REMARK   11  A    between atoms: C_25  and  C_26
REMARK                            x       y       z     vdW  Elec       q    Type
REMARK                         _______ _______ _______ _____ _____    ______ ____
ROOT
ATOM      1  C   UNL     1       3.714  -0.859  -0.040  0.00  0.00    +0.267 C 
ATOM      2  O   UNL     1       4.664  -0.105  -0.044  0.00  0.00    -0.271 OA
ATOM      3  N   UNL     1       3.910  -2.192  -0.049  0.00  0.00    -0.231 N 
ATOM      4  H   UNL     1       3.150  -2.794  -0.045  0.00  0.00    +0.173 HD
ENDROOT
BRANCH   3   5
ATOM      5  N   UNL     1       5.213  -2.708  -0.065  0.00  0.00    -0.231 N 
ATOM      6  C   UNL     1       5.409  -4.041  -0.074  0.00  0.00    +0.267 C 
ATOM      7  O   UNL     1       4.459  -4.794  -0.069  0.00  0.00    -0.271 OA
ATOM      8  H   UNL     1       5.973  -2.106  -0.069  0.00  0.00    +0.173 HD
BRANCH   6   9
ATOM      9  C   UNL     1       6.810  -4.596  -0.091  0.00  0.00    +0.326 C 
BRANCH   9  10
ATOM     10  O   UNL     1       6.757  -6.024  -0.099  0.00  0.00    -0.482 OA
BRANCH  10  11
ATOM     11  C   UNL     1       7.944  -6.686  -0.114  0.00  0.00    +0.127 A 
ATOM     12  C   UNL     1       8.536  -7.022  -1.323  0.00  0.00    -0.007 A 
ATOM     13  C   UNL     1       9.745  -7.690  -1.336  0.00  0.00    +0.022 A 
ATOM     14  C   UNL     1      10.360  -8.033  -0.145  0.00  0.00    +0.019 A 
ATOM     15  C   UNL     1       9.769  -7.704   1.061  0.00  0.00    +0.022 A 
ATOM     16  C   UNL     1       8.562  -7.031   1.079  0.00  0.00    -0.007 A 
ATOM     17  C   UNL     1       7.918  -6.672   2.393  0.00  0.00    +0.047 C 
ATOM     18 BR   UNL     1      12.012  -8.954  -0.167  0.00  0.00    -0.050 Br
ATOM     19  C   UNL     1       7.863  -6.654  -2.620  0.00  0.00    +0.047 C 
ENDBRANCH  10  11
ENDBRANCH   9  10
ENDBRANCH   6   9
ENDBRANCH   3   5
BRANCH   1  20
ATOM     20  C   UNL     1       2.313  -0.304  -0.023  0.00  0.00    +0.326 C 
BRANCH  20  21
ATOM     21  O   UNL     1       2.366   1.124  -0.015  0.00  0.00    -0.482 OA
BRANCH  21  25
ATOM     22  C   UNL     1      -1.238   3.133   0.030  0.00  0.00    -0.046 A 
ATOM     23  C   UNL     1      -1.218   1.751   0.017  0.00  0.00    +0.007 A 
ATOM     24  C   UNL     1      -0.013   1.076   0.008  0.00  0.00    +0.047 A 
ATOM     25  C   UNL     1       1.179   1.786   0.000  0.00  0.00    +0.135 A 
ATOM     26  C   UNL     1       1.157   3.174   0.008  0.00  0.00    +0.060 A 
ATOM     27  C   UNL     1      -0.052   3.844   0.023  0.00  0.00    +0.022 A 
ATOM     28 BR   UNL     1       2.778   4.147  -0.003  0.00  0.00    -0.047 Br
BRANCH  22  30
ATOM     29  C   UNL     1      -3.013   4.122  -1.391  0.00  0.00    +0.009 C 
ATOM     30  C   UNL     1      -2.554   3.866   0.046  0.00  0.00    +0.032 C 
ENDBRANCH  22  30
ENDBRANCH  21  25
ENDBRANCH  20  21
ENDBRANCH   1  20
TORSDOF 8
