REMARK  Name = ZINC03520919
REMARK  7 active torsions:
REMARK  status: ('A' for Active; 'I' for Inactive)
REMARK    1  A    between atoms: C_1  and  C_2
REMARK    2  A    between atoms: C_2  and  C_4
REMARK    3  A    between atoms: C_2  and  O_10
REMARK    4  A    between atoms: O_10  and  C_11
REMARK    5  A    between atoms: C_11  and  C_13
REMARK    6  A    between atoms: C_17  and  S_19
REMARK    7  A    between atoms: S_19  and  N_22
REMARK                            x       y       z     vdW  Elec       q    Type
REMARK                         _______ _______ _______ _____ _____    ______ ____
ROOT
ATOM      1  C   UNL     1      -1.315   3.876  -0.403  0.00  0.00    +0.061 A 
ATOM      2  C   UNL     1      -1.553   2.499  -0.410  0.00  0.00    +0.016 A 
ATOM      3  C   UNL     1      -0.500   1.619  -0.283  0.00  0.00    +0.023 A 
ATOM      4  C   UNL     1       0.795   2.098  -0.161  0.00  0.00    +0.067 A 
ATOM      5  C   UNL     1       1.038   3.461  -0.159  0.00  0.00    +0.124 A 
ATOM      6  C   UNL     1      -0.008   4.351  -0.279  0.00  0.00    +0.045 A 
ATOM      7 CL   UNL     1       2.117   0.983  -0.009  0.00  0.00    -0.082 Cl
ENDROOT
BRANCH   5   8
ATOM      8  S   UNL     1       2.688   4.059  -0.002  0.00  0.00    +0.062 S 
ATOM      9  O   UNL     1       2.608   5.478  -0.001  0.00  0.00    -0.153 OA
ATOM     10  O   UNL     1       3.285   3.329   1.061  0.00  0.00    -0.153 OA
BRANCH   8  11
ATOM     11  N   UNL     1       3.497   3.632  -1.382  0.00  0.00    -0.177 NA
ATOM     12  C   UNL     1       4.342   2.430  -1.413  0.00  0.00    +0.109 C 
ATOM     13  C   UNL     1       3.898   1.551  -2.592  0.00  0.00    +0.017 C 
ATOM     14  C   UNL     1       3.933   2.377  -3.879  0.00  0.00    +0.003 C 
ATOM     15  C   UNL     1       2.959   3.551  -3.761  0.00  0.00    +0.017 C 
ATOM     16  C   UNL     1       3.388   4.451  -2.597  0.00  0.00    +0.109 C 
ENDBRANCH   8  11
ENDBRANCH   5   8
BRANCH   1  17
ATOM     17  C   UNL     1      -2.440   4.824  -0.532  0.00  0.00    +0.340 C 
ATOM     18  O   UNL     1      -2.229   6.020  -0.530  0.00  0.00    -0.245 OA
BRANCH  17  19
ATOM     19  O   UNL     1      -3.700   4.362  -0.652  0.00  0.00    -0.449 OA
BRANCH  19  21
ATOM     20  C   UNL     1      -5.271   5.722   0.618  0.00  0.00    +0.062 C 
ATOM     21  C   UNL     1      -4.755   5.351  -0.774  0.00  0.00    +0.259 C 
BRANCH  21  22
ATOM     22  C   UNL     1      -5.885   4.781  -1.593  0.00  0.00    +0.261 C 
ATOM     23  O   UNL     1      -5.849   3.624  -1.954  0.00  0.00    -0.271 OA
ATOM     24  N   UNL     1      -6.935   5.558  -1.925  0.00  0.00    -0.237 N 
ATOM     25  C   UNL     1      -7.945   5.048  -2.657  0.00  0.00    +0.303 C 
ATOM     26  O   UNL     1      -7.909   3.889  -3.019  0.00  0.00    -0.253 OA
ATOM     27  N   UNL     1      -8.996   5.825  -2.989  0.00  0.00    -0.313 N 
ATOM     28  H   UNL     1      -6.964   6.484  -1.637  0.00  0.00    +0.159 HD
ATOM     29  H   UNL     1      -9.025   6.751  -2.701  0.00  0.00    +0.146 HD
ATOM     30  H   UNL     1      -9.723   5.458  -3.516  0.00  0.00    +0.146 HD
ENDBRANCH  21  22
ENDBRANCH  19  21
ENDBRANCH  17  19
ENDBRANCH   1  17
TORSDOF 6
