REMARK  Name = ZINC20701883
REMARK  5 active torsions:
REMARK  status: ('A' for Active; 'I' for Inactive)
REMARK    1  A    between atoms: C_5  and  O_7
REMARK    2  A    between atoms: O_7  and  C_8
REMARK    3  A    between atoms: C_8  and  C_9
REMARK    4  A    between atoms: C_16  and  C_25
REMARK    5  A    between atoms: C_30  and  O_31
REMARK                            x       y       z     vdW  Elec       q    Type
REMARK                         _______ _______ _______ _____ _____    ______ ____
ROOT
ATOM      1  C   UNL     1       2.813   6.071   3.087  0.00  0.00    +0.004 A 
ATOM      2  C   UNL     1       4.037   6.691   2.928  0.00  0.00    +0.006 A 
ATOM      3  C   UNL     1       5.018   6.118   2.145  0.00  0.00    -0.016 A 
ATOM      4  C   UNL     1       4.785   4.907   1.491  0.00  0.00    +0.074 A 
ATOM      5  C   UNL     1       3.540   4.289   1.661  0.00  0.00    +0.142 A 
ATOM      6  C   UNL     1       2.566   4.870   2.449  0.00  0.00    +0.047 A 
ATOM      7  N   UNL     1       5.712   4.274   0.661  0.00  0.00    -0.334 N 
ATOM      8  C   UNL     1       7.041   4.898   0.557  0.00  0.00    +0.109 C 
ATOM      9  C   UNL     1       6.828   6.397   0.533  0.00  0.00    +0.029 C 
ATOM     10  C   UNL     1       6.346   6.749   1.975  0.00  0.00    +0.049 C 
ATOM     11  C   UNL     1       6.580   8.221   2.048  0.00  0.00    -0.023 C 
ATOM     12  C   UNL     1       7.560   8.548   1.213  0.00  0.00    -0.030 C 
ATOM     13  C   UNL     1       8.067   7.299   0.488  0.00  0.00    +0.033 C 
ATOM     14  H   UNL     1       5.490   3.355   0.099  0.00  0.00    +0.147 HD
ENDROOT
BRANCH   8  15
ATOM     15  C   UNL     1       7.719   4.455  -0.714  0.00  0.00    +0.017 A 
ATOM     16  C   UNL     1       6.961   4.117  -1.820  0.00  0.00    +0.029 A 
ATOM     17  C   UNL     1       7.582   3.710  -2.987  0.00  0.00    +0.043 A 
ATOM     18  C   UNL     1       8.963   3.640  -3.051  0.00  0.00    +0.043 A 
ATOM     19  C   UNL     1       9.724   3.978  -1.947  0.00  0.00    +0.084 A 
ATOM     20  C   UNL     1       9.102   4.391  -0.777  0.00  0.00    +0.140 A 
ATOM     21 CL   UNL     1      11.456   3.890  -2.027  0.00  0.00    -0.080 Cl
ATOM     22 CL   UNL     1       6.628   3.286  -4.374  0.00  0.00    -0.083 Cl
BRANCH  20  23
ATOM     23  O   UNL     1       9.849   4.729   0.308  0.00  0.00    -0.505 OA
ATOM     24  H   UNL     1      10.947   4.679   0.257  0.00  0.00    +0.292 HD
ENDBRANCH  20  23
ENDBRANCH   8  15
BRANCH   5  25
ATOM     25  O   UNL     1       3.285   3.107   1.038  0.00  0.00    -0.488 OA
BRANCH  25  26
ATOM     26  C   UNL     1       1.997   2.526   1.251  0.00  0.00    +0.260 C 
BRANCH  26  27
ATOM     27  C   UNL     1       1.896   1.210   0.476  0.00  0.00    +0.156 C 
ATOM     28  C   UNL     1       0.470   0.627   0.590  0.00  0.00    +0.037 C 
ATOM     29  C   UNL     1       0.695  -0.898   0.683  0.00  0.00    +0.031 C 
ATOM     30  C   UNL     1       2.230  -1.057   0.615  0.00  0.00    +0.160 C 
ATOM     31  O   UNL     1       2.752   0.210   1.071  0.00  0.00    -0.373 OA
ENDBRANCH  26  27
ENDBRANCH  25  26
ENDBRANCH   5  25
TORSDOF 5
