REMARK  Name = ZINC12731920
REMARK  3 active torsions:
REMARK  status: ('A' for Active; 'I' for Inactive)
REMARK    1  A    between atoms: C_1  and  C_2
REMARK    2  A    between atoms: C_4  and  C_19
REMARK    3  A    between atoms: N_10  and  C_13
REMARK                            x       y       z     vdW  Elec       q    Type
REMARK                         _______ _______ _______ _____ _____    ______ ____
ROOT
ATOM      1  C   UNL     1       4.868  -0.648  -0.049  0.00  0.00    +0.065 C 
ATOM      2  C   UNL     1       3.389  -0.936  -0.036  0.00  0.00    +0.041 A 
ATOM      3  C   UNL     1       2.377   0.018  -0.021  0.00  0.00    +0.051 A 
ATOM      4  C   UNL     1       2.376   1.433  -0.013  0.00  0.00    +0.072 A 
ATOM      5  C   UNL     1       1.181   2.079   0.002  0.00  0.00    +0.085 A 
ATOM      6  C   UNL     1      -0.016   1.331   0.009  0.00  0.00    +0.273 A 
ATOM      7  O   UNL     1      -1.089   1.917   0.018  0.00  0.00    -0.266 OA
ATOM      8  N   UNL     1       0.002  -0.004   0.002  0.00  0.00    -0.189 NA
ATOM      9  C   UNL     1       1.137  -0.676  -0.013  0.00  0.00    +0.166 A 
ATOM     10  N   UNL     1       1.434  -2.021  -0.023  0.00  0.00    -0.236 N 
ATOM     11  N   UNL     1       2.828  -2.155  -0.037  0.00  0.00    -0.295 N 
ATOM     12  H   UNL     1       3.312  -2.996  -0.047  0.00  0.00    +0.187 HD
ENDROOT
BRANCH  10  13
ATOM     13  C   UNL     1       0.507  -3.068  -0.020  0.00  0.00    +0.066 A 
ATOM     14  C   UNL     1      -0.579  -3.033   0.845  0.00  0.00    +0.028 A 
ATOM     15  C   UNL     1      -1.496  -4.066   0.842  0.00  0.00    +0.002 A 
ATOM     16  C   UNL     1      -1.327  -5.139  -0.014  0.00  0.00    +0.000 A 
ATOM     17  C   UNL     1      -0.243  -5.180  -0.872  0.00  0.00    +0.002 A 
ATOM     18  C   UNL     1       0.674  -4.147  -0.878  0.00  0.00    +0.028 A 
ENDBRANCH  10  13
BRANCH   4  19
ATOM     19  C   UNL     1       3.671   2.205  -0.021  0.00  0.00    +0.418 C 
ATOM     20  F   UNL     1       3.396   3.576  -0.011  0.00  0.00    -0.166 F 
ATOM     21  F   UNL     1       4.419   1.871   1.113  0.00  0.00    -0.166 F 
ATOM     22  F   UNL     1       4.398   1.883  -1.172  0.00  0.00    -0.166 F 
ENDBRANCH   4  19
TORSDOF 2
