REMARK  Name = ZINC05252892
REMARK  6 active torsions:
REMARK  status: ('A' for Active; 'I' for Inactive)
REMARK    1  A    between atoms: C_1  and  C_2
REMARK    2  A    between atoms: C_2  and  C_3
REMARK    3  A    between atoms: C_8  and  N_9
REMARK    4  A    between atoms: C_10  and  C_12
REMARK    5  A    between atoms: N_14  and  C_15
REMARK    6  A    between atoms: C_25  and  C_27
REMARK                            x       y       z     vdW  Elec       q    Type
REMARK                         _______ _______ _______ _____ _____    ______ ____
ROOT
ATOM      1  C   UNL     1      -1.373  -4.426   0.200  0.00  0.00    +0.303 C 
ATOM      2  O   UNL     1      -0.376  -4.796  -0.385  0.00  0.00    -0.265 OA
ATOM      3  N   UNL     1      -1.443  -3.172   0.687  0.00  0.00    -0.278 N 
ATOM      4  H   UNL     1      -2.210  -2.897   1.214  0.00  0.00    +0.155 HD
ENDROOT
BRANCH   3   5
ATOM      5  C   UNL     1      -0.410  -2.265   0.434  0.00  0.00    +0.036 A 
ATOM      6  C   UNL     1       0.908  -2.705   0.388  0.00  0.00    +0.024 A 
ATOM      7  C   UNL     1       1.928  -1.809   0.139  0.00  0.00    +0.007 A 
ATOM      8  C   UNL     1       1.648  -0.468  -0.066  0.00  0.00    -0.026 A 
ATOM      9  C   UNL     1       0.334  -0.026  -0.023  0.00  0.00    +0.041 A 
ATOM     10  C   UNL     1      -0.695  -0.924   0.228  0.00  0.00    +0.047 A 
ATOM     11  N   UNL     1       0.024   1.325  -0.231  0.00  0.00    -0.271 N 
ATOM     12  C   UNL     1       1.109   2.316  -0.203  0.00  0.00    +0.114 C 
ATOM     13  C   UNL     1       2.282   1.750  -1.014  0.00  0.00    +0.024 C 
ATOM     14  C   UNL     1       2.788   0.480  -0.330  0.00  0.00    +0.038 C 
ATOM     15  C   UNL     1      -1.248   1.709  -0.460  0.00  0.00    +0.223 C 
ATOM     16  O   UNL     1      -2.118   0.875  -0.594  0.00  0.00    -0.275 OA
BRANCH  15  17
ATOM     17  C   UNL     1      -1.589   3.174  -0.549  0.00  0.00    +0.076 C 
ATOM     18  C   UNL     1      -2.439   3.771   0.574  0.00  0.00    +0.013 C 
ATOM     19  C   UNL     1      -3.050   3.545  -0.810  0.00  0.00    +0.013 C 
ENDBRANCH  15  17
ENDBRANCH   3   5
BRANCH   1  21
ATOM     20  N   UNL     1      -2.453  -6.616  -0.107  0.00  0.00    -0.277 N 
ATOM     21  C   UNL     1      -2.522  -5.361   0.380  0.00  0.00    +0.303 C 
ATOM     22  O   UNL     1      -3.520  -4.992   0.964  0.00  0.00    -0.265 OA
ATOM     23  H   UNL     1      -1.691  -6.887  -0.643  0.00  0.00    +0.155 HD
BRANCH  20  29
ATOM     24  C   UNL     1      -3.671  -8.622  -0.674  0.00  0.00    -0.026 A 
ATOM     25  C   UNL     1      -4.686  -9.520  -0.407  0.00  0.00    +0.005 A 
ATOM     26  C   UNL     1      -5.508  -9.331   0.688  0.00  0.00    +0.000 A 
ATOM     27  C   UNL     1      -5.319  -8.243   1.520  0.00  0.00    +0.002 A 
ATOM     28  C   UNL     1      -4.304  -7.343   1.262  0.00  0.00    +0.023 A 
ATOM     29  C   UNL     1      -3.478  -7.527   0.159  0.00  0.00    +0.037 A 
BRANCH  24  31
ATOM     30  C   UNL     1      -1.508  -9.570  -1.431  0.00  0.00    +0.009 C 
ATOM     31  C   UNL     1      -2.774  -8.829  -1.867  0.00  0.00    +0.033 C 
ENDBRANCH  24  31
ENDBRANCH  20  29
ENDBRANCH   1  21
TORSDOF 5
