REMARK  Name = ZINC35455527
REMARK  14 active torsions:
REMARK  status: ('A' for Active; 'I' for Inactive)
REMARK    1  A    between atoms: C_1  and  C_2
REMARK    2  A    between atoms: C_4  and  O_20
REMARK    3  A    between atoms: C_6  and  C_17
REMARK    4  A    between atoms: C_12  and  O_16
REMARK    5  A    between atoms: C_17  and  C_18
REMARK    6  A    between atoms: C_17  and  C_19
REMARK    7  A    between atoms: O_20  and  C_21
REMARK    8  A    between atoms: C_23  and  O_39
REMARK    9  A    between atoms: C_25  and  O_38
REMARK   10  A    between atoms: C_27  and  O_37
REMARK   11  A    between atoms: C_29  and  C_32
REMARK   12  A    between atoms: C_32  and  O_33
REMARK   13  A    between atoms: O_33  and  C_34
REMARK   14  A    between atoms: C_34  and  C_36
REMARK                            x       y       z     vdW  Elec       q    Type
REMARK                         _______ _______ _______ _____ _____    ______ ____
ROOT
ATOM      1  O   UNL     1      -0.865  -0.886  -3.168  0.00  0.00    -0.341 OA
ENDROOT
BRANCH   1   5
ATOM      2  C   UNL     1       0.008   1.357   0.053  0.00  0.00    +0.039 C 
ATOM      3  C   UNL     1       0.188  -0.137   0.051  0.00  0.00    -0.074 C 
ATOM      4  C   UNL     1       0.244  -0.834  -1.050  0.00  0.00    +0.003 C 
ATOM      5  C   UNL     1       0.181  -0.242  -2.428  0.00  0.00    +0.148 C 
ATOM      6  C   UNL     1       1.514  -0.493  -3.143  0.00  0.00    +0.025 C 
ATOM      7  C   UNL     1       2.672  -0.190  -2.190  0.00  0.00    +0.011 C 
ATOM      8  C   UNL     1       3.055  -1.457  -1.423  0.00  0.00    +0.033 C 
ATOM      9  C   UNL     1       3.395  -1.113   0.003  0.00  0.00    -0.049 C 
ATOM     10  C   UNL     1       4.348  -0.242   0.248  0.00  0.00    +0.010 C 
ATOM     11  C   UNL     1       2.672  -1.766   1.150  0.00  0.00    +0.140 C 
ATOM     12  C   UNL     1       1.772  -0.761   1.862  0.00  0.00    +0.040 C 
ATOM     13  C   UNL     1       0.329  -0.858   1.374  0.00  0.00    +0.033 C 
BRANCH   6  14
ATOM     14  C   UNL     1       1.610   0.417  -4.368  0.00  0.00    -0.011 C 
ATOM     15  C   UNL     1       1.676   1.877  -3.916  0.00  0.00    +0.007 C 
ATOM     16  C   UNL     1       2.871   0.071  -5.163  0.00  0.00    +0.007 C 
ENDBRANCH   6  14
BRANCH  11  17
ATOM     17  O   UNL     1       1.917  -2.883   0.688  0.00  0.00    -0.388 OA
ATOM     18  H   UNL     1       2.450  -3.572   0.268  0.00  0.00    +0.210 HD
ENDBRANCH  11  17
ENDBRANCH   1   5
BRANCH   1  19
ATOM     19  C   UNL     1      -2.140  -0.253  -3.045  0.00  0.00    +0.282 C 
ATOM     20  C   UNL     1      -3.217  -1.150  -3.660  0.00  0.00    +0.201 C 
ATOM     21  C   UNL     1      -4.571  -0.438  -3.578  0.00  0.00    +0.179 C 
ATOM     22  C   UNL     1      -4.467   0.916  -4.287  0.00  0.00    +0.178 C 
ATOM     23  C   UNL     1      -3.341   1.733  -3.647  0.00  0.00    +0.190 C 
ATOM     24  O   UNL     1      -2.117   1.001  -3.730  0.00  0.00    -0.339 OA
BRANCH  22  25
ATOM     25  O   UNL     1      -4.181   0.709  -5.672  0.00  0.00    -0.386 OA
ATOM     26  H   UNL     1      -4.853   0.194  -6.139  0.00  0.00    +0.210 HD
ENDBRANCH  22  25
BRANCH  21  27
ATOM     27  O   UNL     1      -5.570  -1.237  -4.214  0.00  0.00    -0.386 OA
ATOM     28  H   UNL     1      -5.684  -2.112  -3.819  0.00  0.00    +0.210 HD
ENDBRANCH  21  27
BRANCH  20  29
ATOM     29  O   UNL     1      -2.896  -1.412  -5.028  0.00  0.00    -0.384 OA
ATOM     30  H   UNL     1      -2.047  -1.859  -5.154  0.00  0.00    +0.210 HD
ENDBRANCH  20  29
BRANCH  23  31
ATOM     31  C   UNL     1      -3.192   3.063  -4.389  0.00  0.00    +0.266 C 
BRANCH  31  32
ATOM     32  O   UNL     1      -2.223   3.874  -3.721  0.00  0.00    -0.462 OA
BRANCH  32  33
ATOM     33  C   UNL     1      -1.972   5.082  -4.249  0.00  0.00    +0.304 C 
ATOM     34  O   UNL     1      -2.557   5.440  -5.244  0.00  0.00    -0.251 OA
ATOM     35  C   UNL     1      -0.962   5.993  -3.600  0.00  0.00    +0.136 C 
ENDBRANCH  32  33
ENDBRANCH  31  32
ENDBRANCH  23  31
ENDBRANCH   1  19
TORSDOF 10
