REMARK  Name = ZINC01074848
REMARK  7 active torsions:
REMARK  status: ('A' for Active; 'I' for Inactive)
REMARK    1  A    between atoms: C_1  and  C_2
REMARK    2  A    between atoms: C_3  and  C_27
REMARK    3  A    between atoms: C_4  and  C_20
REMARK    4  A    between atoms: C_10  and  C_15
REMARK    5  A    between atoms: C_27  and  O_29
REMARK    6  A    between atoms: O_29  and  C_30
REMARK    7  A    between atoms: C_30  and  C_31
REMARK                            x       y       z     vdW  Elec       q    Type
REMARK                         _______ _______ _______ _____ _____    ______ ____
ROOT
ATOM      1  C   UNL     1      -1.807   0.095  -4.546  0.00  0.00    +0.061 C 
ATOM      2  C   UNL     1      -1.606   1.089  -3.431  0.00  0.00    +0.016 C 
ATOM      3  C   UNL     1      -2.258   2.264  -3.459  0.00  0.00    +0.065 C 
ATOM      4  C   UNL     1      -2.077   3.280  -2.369  0.00  0.00    +0.092 C 
ATOM      5  C   UNL     1      -1.478   2.651  -1.137  0.00  0.00    +0.024 C 
ATOM      6  C   UNL     1      -0.852   1.457  -1.207  0.00  0.00    +0.016 C 
ATOM      7  N   UNL     1      -0.763   0.788  -2.398  0.00  0.00    -0.321 N 
ATOM      8  C   UNL     1      -0.240   0.828   0.020  0.00  0.00    +0.060 C 
ATOM      9  C   UNL     1      -1.037   1.238   1.260  0.00  0.00    +0.039 C 
ATOM     10  C   UNL     1      -1.033   2.767   1.357  0.00  0.00    +0.088 C 
ATOM     11  C   UNL     1      -1.592   3.340   0.083  0.00  0.00    +0.162 C 
ATOM     12  O   UNL     1      -2.152   4.418   0.110  0.00  0.00    -0.292 OA
ATOM     13  H   UNL     1      -0.003   0.002  -2.519  0.00  0.00    +0.152 HD
ENDROOT
BRANCH   4  14
ATOM     14  C   UNL     1      -1.165   4.375  -2.860  0.00  0.00    -0.035 A 
ATOM     15  C   UNL     1       0.136   4.078  -3.223  0.00  0.00    +0.006 A 
ATOM     16  C   UNL     1       0.972   5.081  -3.679  0.00  0.00    +0.020 A 
ATOM     17  C   UNL     1       0.510   6.382  -3.760  0.00  0.00    +0.041 A 
ATOM     18  C   UNL     1      -0.790   6.679  -3.392  0.00  0.00    +0.020 A 
ATOM     19  C   UNL     1      -1.626   5.675  -2.942  0.00  0.00    +0.006 A 
ATOM     20 CL   UNL     1       1.562   7.643  -4.325  0.00  0.00    -0.084 Cl
ENDBRANCH   4  14
BRANCH   9  21
ATOM     21  C   UNL     1      -0.397   0.651   2.491  0.00  0.00    -0.006 A 
ATOM     22  C   UNL     1      -0.923  -0.204   3.402  0.00  0.00    +0.011 A 
ATOM     23  C   UNL     1      -0.141  -0.615   4.465  0.00  0.00    +0.008 A 
ATOM     24  C   UNL     1       1.129  -0.151   4.565  0.00  0.00    +0.045 A 
ATOM     25  S   UNL     1       1.254   0.896   3.125  0.00  0.00    -0.101 S 
ENDBRANCH   9  21
BRANCH   3  26
ATOM     26  C   UNL     1      -3.130   2.549  -4.535  0.00  0.00    +0.338 C 
ATOM     27  O   UNL     1      -4.335   2.510  -4.369  0.00  0.00    -0.245 OA
BRANCH  26  28
ATOM     28  O   UNL     1      -2.626   2.863  -5.747  0.00  0.00    -0.457 OA
BRANCH  28  29
ATOM     29  C   UNL     1      -3.565   3.139  -6.788  0.00  0.00    +0.268 C 
BRANCH  29  30
ATOM     30  C   UNL     1      -2.823   3.467  -8.059  0.00  0.00    -0.010 A 
ATOM     31  C   UNL     1      -2.484   4.777  -8.341  0.00  0.00    +0.007 A 
ATOM     32  C   UNL     1      -1.799   5.078  -9.504  0.00  0.00    +0.000 A 
ATOM     33  C   UNL     1      -1.464   4.071 -10.389  0.00  0.00    +0.000 A 
ATOM     34  C   UNL     1      -1.808   2.762 -10.109  0.00  0.00    +0.000 A 
ATOM     35  C   UNL     1      -2.488   2.460  -8.944  0.00  0.00    +0.007 A 
ENDBRANCH  29  30
ENDBRANCH  28  29
ENDBRANCH  26  28
ENDBRANCH   3  26
TORSDOF 6
