REMARK  Name = ZINC39951212
REMARK  7 active torsions:
REMARK  status: ('A' for Active; 'I' for Inactive)
REMARK    1  A    between atoms: C_1  and  C_2
REMARK    2  A    between atoms: C_2  and  C_3
REMARK    3  A    between atoms: C_3  and  C_4
REMARK    4  A    between atoms: C_9  and  C_24
REMARK    5  A    between atoms: C_15  and  C_17
REMARK    6  A    between atoms: C_22  and  N_23
REMARK    7  A    between atoms: C_24  and  C_25
REMARK                            x       y       z     vdW  Elec       q    Type
REMARK                         _______ _______ _______ _____ _____    ______ ____
ROOT
ATOM      1  C   UNL     1       0.558  -2.711   0.399  0.00  0.00    +0.028 C 
ATOM      2  C   UNL     1       1.259  -2.965  -0.924  0.00  0.00    -0.060 C 
ATOM      3  N   UNL     1       0.877  -4.130  -1.663  0.00  0.00    +0.393 N 
ATOM      4  C   UNL     1       1.562  -5.370  -1.394  0.00  0.00    -0.075 C 
ATOM      5  C   UNL     1       1.905  -5.631   0.030  0.00  0.00    -0.003 C 
ATOM      6  C   UNL     1       0.902  -5.159   1.038  0.00  0.00    +0.040 C 
ATOM      7  C   UNL     1       1.084  -3.720   1.413  0.00  0.00    +0.146 C 
ATOM      8  O   UNL     1       1.621  -3.384   2.441  0.00  0.00    -0.296 OA
ATOM      9  C   UNL     1      -0.535  -5.400   0.580  0.00  0.00    +0.097 C 
ATOM     10  N   UNL     1      -1.069  -4.360  -0.283  0.00  0.00    -0.310 NA
ATOM     11  C   UNL     1      -0.949  -2.993   0.285  0.00  0.00    +0.095 C 
ATOM     12  C   UNL     1      -0.570  -4.377  -1.658  0.00  0.00    +0.035 C 
ATOM     13  H   UNL     1       1.102  -3.923  -2.625  0.00  0.00    -0.079 HD
ENDROOT
BRANCH  12  14
ATOM     14  C   UNL     1      -0.852  -5.721  -2.277  0.00  0.00    -0.027 A 
ATOM     15  C   UNL     1      -0.011  -6.224  -3.250  0.00  0.00    +0.005 A 
ATOM     16  C   UNL     1      -0.268  -7.458  -3.819  0.00  0.00    +0.000 A 
ATOM     17  C   UNL     1      -1.368  -8.193  -3.416  0.00  0.00    +0.002 A 
ATOM     18  C   UNL     1      -2.213  -7.696  -2.443  0.00  0.00    +0.023 A 
ATOM     19  C   UNL     1      -1.954  -6.459  -1.865  0.00  0.00    +0.027 A 
BRANCH  19  20
ATOM     20  N   UNL     1      -2.804  -5.956  -0.877  0.00  0.00    -0.358 N 
ATOM     21  H   UNL     1      -2.850  -5.000  -0.719  0.00  0.00    +0.142 HD
ATOM     22  H   UNL     1      -3.347  -6.563  -0.350  0.00  0.00    +0.142 HD
ENDBRANCH  19  20
ENDBRANCH  12  14
BRANCH   6  23
ATOM     23  C   UNL     1       1.106  -5.988   2.307  0.00  0.00    +0.012 C 
ATOM     24  C   UNL     1       0.770  -7.452   2.019  0.00  0.00    +0.005 C 
ENDBRANCH   6  23
BRANCH   1  25
ATOM     25  C   UNL     1       0.808  -1.279   0.878  0.00  0.00    +0.013 C 
BRANCH  25  27
ATOM     26  C   UNL     1       0.343   0.376   2.692  0.00  0.00    +0.004 C 
ATOM     27  C   UNL     1       0.093  -1.056   2.212  0.00  0.00    -0.002 C 
ENDBRANCH  25  27
ENDBRANCH   1  25
TORSDOF 5
