REMARK  Name = ZINC64162153
REMARK  4 active torsions:
REMARK  status: ('A' for Active; 'I' for Inactive)
REMARK    1  A    between atoms: C_6  and  C_10
REMARK    2  A    between atoms: C_15  and  C_20
REMARK    3  A    between atoms: C_16  and  C_18
REMARK    4  A    between atoms: C_23  and  N_25
REMARK                            x       y       z     vdW  Elec       q    Type
REMARK                         _______ _______ _______ _____ _____    ______ ____
ROOT
ATOM      1  C   UNL     1       3.587  -2.812   1.171  0.00  0.00    +0.110 C 
ATOM      2  C   UNL     1       5.089  -2.946   1.116  0.00  0.00    +0.084 A 
ATOM      3  C   UNL     1       5.584  -4.197   0.714  0.00  0.00    +0.122 A 
ATOM      4  N   UNL     1       6.875  -4.437   0.599  0.00  0.00    -0.225 NA
ATOM      5  C   UNL     1       7.757  -3.481   0.885  0.00  0.00    +0.177 A 
ATOM      6  C   UNL     1       7.283  -2.228   1.310  0.00  0.00    +0.176 A 
ATOM      7  N   UNL     1       5.980  -2.001   1.410  0.00  0.00    -0.235 NA
ATOM      8  S   UNL     1       4.165  -5.239   0.456  0.00  0.00    -0.085 S 
ATOM      9  C   UNL     1       2.894  -4.190   1.268  0.00  0.00    +0.128 C 
ENDROOT
BRANCH   1  15
ATOM     10  C   UNL     1       5.872  -0.123  -3.187  0.00  0.00    +0.002 A 
ATOM     11  C   UNL     1       5.694  -1.366  -3.820  0.00  0.00    +0.002 A 
ATOM     12  C   UNL     1       4.932  -2.347  -3.295  0.00  0.00    +0.027 A 
ATOM     13  C   UNL     1       4.253  -2.128  -2.011  0.00  0.00    +0.060 A 
ATOM     14  N   UNL     1       3.474  -2.876  -1.283  0.00  0.00    -0.363 N 
ATOM     15  C   UNL     1       3.104  -2.099  -0.093  0.00  0.00    +0.185 C 
ATOM     16  N   UNL     1       3.772  -0.798  -0.224  0.00  0.00    -0.363 N 
ATOM     17  C   UNL     1       4.441  -0.813  -1.340  0.00  0.00    +0.060 A 
ATOM     18  C   UNL     1       5.294   0.180  -2.007  0.00  0.00    +0.027 A 
ATOM     19  H   UNL     1       3.189  -3.780  -1.489  0.00  0.00    +0.162 HD
ATOM     20  H   UNL     1       3.723  -0.061   0.406  0.00  0.00    +0.162 HD
ENDBRANCH   1  15
BRANCH   9  21
ATOM     21  N   UNL     1       1.631  -4.207   0.519  0.00  0.00    -0.318 NA
ATOM     22  H   UNL     1       1.156  -5.090   0.630  0.00  0.00    +0.119 HD
ATOM     23  H   UNL     1       1.036  -3.440   0.795  0.00  0.00    +0.119 HD
ENDBRANCH   9  21
BRANCH   6  24
ATOM     24  C   UNL     1       8.213  -1.189   1.637  0.00  0.00    +0.122 C 
ATOM     25  N   UNL     1       8.950  -0.365   1.897  0.00  0.00    -0.189 NA
ENDBRANCH   6  24
BRANCH   5  26
ATOM     26  C   UNL     1       9.163  -3.726   0.762  0.00  0.00    +0.122 C 
ATOM     27  N   UNL     1      10.278  -3.920   0.665  0.00  0.00    -0.189 NA
ENDBRANCH   5  26
TORSDOF 4
