REMARK  Name = ZINC11128044
REMARK  10 active torsions:
REMARK  status: ('A' for Active; 'I' for Inactive)
REMARK    1  A    between atoms: C_1  and  C_2
REMARK    2  A    between atoms: C_5  and  S_8
REMARK    3  A    between atoms: S_8  and  N_11
REMARK    4  A    between atoms: C_14  and  C_17
REMARK    5  A    between atoms: N_19  and  C_20
REMARK    6  A    between atoms: C_21  and  C_32
REMARK    7  A    between atoms: C_25  and  C_30
REMARK    8  A    between atoms: C_25  and  C_31
REMARK    9  A    between atoms: C_26  and  C_28
REMARK   10  A    between atoms: C_26  and  C_29
REMARK                            x       y       z     vdW  Elec       q    Type
REMARK                         _______ _______ _______ _____ _____    ______ ____
ROOT
ATOM      1  C   UNL     1       1.178  -0.662  -0.012  0.00  0.00    +0.221 C 
ATOM      2  O   UNL     1       2.220  -0.041  -0.018  0.00  0.00    -0.275 OA
ATOM      3  N   UNL     1       0.002  -0.004   0.002  0.00  0.00    -0.279 N 
ATOM      4  H   UNL     1      -0.831  -0.500   0.007  0.00  0.00    +0.155 HD
ENDROOT
BRANCH   3   5
ATOM      5  C   UNL     1      -0.017   1.384   0.010  0.00  0.00    +0.090 A 
ATOM      6  C   UNL     1      -1.119   2.228   0.031  0.00  0.00    +0.084 A 
ATOM      7  C   UNL     1      -0.864   3.654   0.028  0.00  0.00    -0.021 A 
ATOM      8  C   UNL     1       0.440   4.013   0.018  0.00  0.00    -0.015 A 
ATOM      9  S   UNL     1       1.325   2.480   0.003  0.00  0.00    -0.078 S 
ATOM     10  C   UNL     1       0.980   5.407   0.012  0.00  0.00    -0.041 C 
ATOM     11  C   UNL     1      -1.333   5.961   0.765  0.00  0.00    -0.069 C 
ATOM     12  C   UNL     1      -1.926   4.745   0.047  0.00  0.00    +0.024 C 
ATOM     13  C   UNL     1      -2.352   7.112   0.667  0.00  0.00    -0.010 C 
ATOM     14  C   UNL     1      -1.142   5.626   2.248  0.00  0.00    -0.010 C 
ATOM     15  C   UNL     1       2.013   5.559   1.137  0.00  0.00    -0.005 C 
ATOM     16  C   UNL     1       1.703   5.643  -1.329  0.00  0.00    -0.005 C 
ATOM     17  N   UNL     1      -0.078   6.449   0.141  0.00  0.00    +0.389 N 
ATOM     18  H   UNL     1      -0.300   6.802  -0.798  0.00  0.00    -0.084 HD
ATOM     19  H   UNL     1       0.292   7.216   0.715  0.00  0.00    -0.084 HD
BRANCH   6  20
ATOM     20  C   UNL     1      -2.450   1.700   0.044  0.00  0.00    +0.102 C 
ATOM     21  N   UNL     1      -3.505   1.282   0.054  0.00  0.00    -0.191 NA
ENDBRANCH   6  20
ENDBRANCH   3   5
BRANCH   1  25
ATOM     22  N   UNL     1       1.867  -4.704   1.042  0.00  0.00    -0.177 NA
ATOM     23  C   UNL     1       2.665  -4.190  -0.080  0.00  0.00    +0.110 C 
ATOM     24  C   UNL     1       2.648  -2.659  -0.036  0.00  0.00    +0.030 C 
ATOM     25  C   UNL     1       1.199  -2.169  -0.021  0.00  0.00    +0.078 C 
ATOM     26  C   UNL     1       0.494  -2.695   1.232  0.00  0.00    +0.030 C 
ATOM     27  C   UNL     1       0.486  -4.227   1.203  0.00  0.00    +0.110 C 
BRANCH  22  28
ATOM     28  S   UNL     1       2.510  -5.800   2.103  0.00  0.00    +0.061 S 
ATOM     29  O   UNL     1       1.415  -6.499   2.679  0.00  0.00    -0.153 OA
ATOM     30  O   UNL     1       3.561  -6.463   1.415  0.00  0.00    -0.153 OA
BRANCH  28  35
ATOM     31  C   UNL     1       5.086  -2.661   6.566  0.00  0.00    +0.044 C 
ATOM     32  C   UNL     1       4.443  -3.445   5.452  0.00  0.00    -0.050 A 
ATOM     33  C   UNL     1       3.116  -3.821   5.548  0.00  0.00    +0.005 A 
ATOM     34  C   UNL     1       2.526  -4.540   4.525  0.00  0.00    +0.029 A 
ATOM     35  C   UNL     1       3.262  -4.883   3.406  0.00  0.00    +0.105 A 
ATOM     36  C   UNL     1       4.590  -4.511   3.313  0.00  0.00    +0.029 A 
ATOM     37  C   UNL     1       5.179  -3.788   4.333  0.00  0.00    +0.005 A 
ENDBRANCH  28  35
ENDBRANCH  22  28
ENDBRANCH   1  25
TORSDOF 5
