REMARK  Name = ZINC10099914
REMARK  10 active torsions:
REMARK  status: ('A' for Active; 'I' for Inactive)
REMARK    1  A    between atoms: C_1  and  C_2
REMARK    2  A    between atoms: C_2  and  O_3
REMARK    3  A    between atoms: O_3  and  C_4
REMARK    4  A    between atoms: C_7  and  C_9
REMARK    5  A    between atoms: C_13  and  N_14
REMARK    6  A    between atoms: C_15  and  C_17
REMARK    7  A    between atoms: C_20  and  S_23
REMARK    8  A    between atoms: S_23  and  N_26
REMARK    9  A    between atoms: N_26  and  C_27
REMARK   10  A    between atoms: N_26  and  C_28
REMARK                            x       y       z     vdW  Elec       q    Type
REMARK                         _______ _______ _______ _____ _____    ______ ____
ROOT
ATOM      1  C   UNL     1      -0.558   0.998   2.575  0.00  0.00    +0.069 A 
ATOM      2  C   UNL     1      -0.732   1.580   1.257  0.00  0.00    -0.023 A 
ATOM      3  C   UNL     1      -1.601   2.615   1.194  0.00  0.00    -0.004 A 
ATOM      4  S   UNL     1      -2.179   2.821   2.854  0.00  0.00    -0.077 S 
ATOM      5  C   UNL     1      -1.284   1.552   3.623  0.00  0.00    +0.085 A 
ATOM      6  C   UNL     1      -1.979   3.405  -0.021  0.00  0.00    +0.043 C 
ATOM      7  C   UNL     1      -0.956   3.111  -1.127  0.00  0.00    +0.005 C 
ATOM      8  C   UNL     1      -0.758   1.595  -1.227  0.00  0.00    +0.005 C 
ATOM      9  C   UNL     1      -0.013   1.086   0.008  0.00  0.00    +0.037 C 
ENDROOT
BRANCH   1  13
ATOM     10  C   UNL     1       2.477  -0.944   3.305  0.00  0.00    +0.407 C 
ATOM     11  O   UNL     1       2.066  -2.082   3.205  0.00  0.00    -0.226 OA
ATOM     12  N   UNL     1       1.642   0.095   3.105  0.00  0.00    -0.217 N 
ATOM     13  C   UNL     1       0.350  -0.131   2.793  0.00  0.00    +0.255 C 
ATOM     14  O   UNL     1      -0.062  -1.271   2.693  0.00  0.00    -0.270 OA
ATOM     15  H   UNL     1       1.970   1.004   3.185  0.00  0.00    +0.161 HD
BRANCH  10  16
ATOM     16  O   UNL     1       3.768  -0.719   3.616  0.00  0.00    -0.450 OA
BRANCH  16  18
ATOM     17  C   UNL     1       6.031  -1.433   4.161  0.00  0.00    +0.048 C 
ATOM     18  C   UNL     1       4.610  -1.885   3.818  0.00  0.00    +0.230 C 
ENDBRANCH  16  18
ENDBRANCH  10  16
ENDBRANCH   1  13
BRANCH   5  19
ATOM     19  N   UNL     1      -1.290   1.179   4.957  0.00  0.00    -0.275 N 
ATOM     20  C   UNL     1      -2.067   1.841   5.837  0.00  0.00    +0.249 C 
ATOM     21  O   UNL     1      -2.762   2.764   5.460  0.00  0.00    -0.270 OA
ATOM     22  H   UNL     1      -0.736   0.443   5.257  0.00  0.00    +0.156 HD
BRANCH  20  23
ATOM     23  C   UNL     1      -2.074   1.444   7.261  0.00  0.00    +0.037 A 
ATOM     24  C   UNL     1      -1.281   0.380   7.695  0.00  0.00    +0.015 A 
ATOM     25  C   UNL     1      -1.289   0.017   9.026  0.00  0.00    +0.029 A 
ATOM     26  C   UNL     1      -2.088   0.699   9.928  0.00  0.00    +0.106 A 
ATOM     27  C   UNL     1      -2.879   1.751   9.502  0.00  0.00    +0.029 A 
ATOM     28  C   UNL     1      -2.877   2.127   8.175  0.00  0.00    +0.015 A 
BRANCH  26  29
ATOM     29  S   UNL     1      -2.097   0.224  11.625  0.00  0.00    +0.061 S 
ATOM     30  O   UNL     1      -0.861  -0.433  11.869  0.00  0.00    -0.153 OA
ATOM     31  O   UNL     1      -2.511   1.365  12.363  0.00  0.00    -0.153 OA
BRANCH  29  32
ATOM     32  N   UNL     1      -3.284  -0.915  11.808  0.00  0.00    -0.177 NA
ATOM     33  C   UNL     1      -2.969  -2.336  11.638  0.00  0.00    +0.132 C 
BRANCH  32  34
ATOM     34  C   UNL     1      -4.650  -0.503  12.141  0.00  0.00    +0.080 C 
ATOM     35  C   UNL     1      -5.653  -1.603  12.495  0.00  0.00    +0.022 C 
ATOM     36  C   UNL     1      -5.760  -0.873  11.155  0.00  0.00    +0.022 C 
ENDBRANCH  32  34
ENDBRANCH  29  32
ENDBRANCH  26  29
ENDBRANCH  20  23
ENDBRANCH   5  19
TORSDOF 8
