REMARK  Name = ZINC66085355
REMARK  7 active torsions:
REMARK  status: ('A' for Active; 'I' for Inactive)
REMARK    1  A    between atoms: C_1  and  C_2
REMARK    2  A    between atoms: C_4  and  O_21
REMARK    3  A    between atoms: C_7  and  N_8
REMARK    4  A    between atoms: N_8  and  C_9
REMARK    5  A    between atoms: C_9  and  C_10
REMARK    6  A    between atoms: C_12  and  C_15
REMARK    7  A    between atoms: O_21  and  C_22
REMARK                            x       y       z     vdW  Elec       q    Type
REMARK                         _______ _______ _______ _____ _____    ______ ____
ROOT
ATOM      1  C   UNL     1       0.047  -0.752   3.681  0.00  0.00    +0.200 C 
ENDROOT
BRANCH   1   2
ATOM      2  C   UNL     1       0.045   0.220   4.832  0.00  0.00    +0.245 A 
ATOM      3  N   UNL     1      -1.013   0.692   5.426  0.00  0.00    -0.190 NA
ATOM      4  C   UNL     1      -0.651   1.535   6.412  0.00  0.00    +0.209 A 
ATOM      5  N   UNL     1       0.660   1.599   6.446  0.00  0.00    -0.055 NA
ATOM      6  O   UNL     1       1.131   0.739   5.419  0.00  0.00    -0.336 OA
BRANCH   4   7
ATOM      7  C   UNL     1      -1.573   2.264   7.306  0.00  0.00    +0.061 A 
ATOM      8  C   UNL     1      -1.282   3.136   8.322  0.00  0.00    +0.034 A 
ATOM      9  C   UNL     1      -2.321   3.701   9.027  0.00  0.00    +0.026 A 
ATOM     10  C   UNL     1      -3.599   3.379   8.696  0.00  0.00    +0.061 A 
ATOM     11  S   UNL     1      -3.358   2.243   7.340  0.00  0.00    -0.092 S 
ATOM     12 BR   UNL     1      -1.973   4.911  10.439  0.00  0.00    -0.050 Br
ENDBRANCH   4   7
ENDBRANCH   1   2
BRANCH   1  13
ATOM     13  N   UNL     1       0.025  -0.012   2.416  0.00  0.00    -0.335 N 
ATOM     14  H   UNL     1       0.012   0.958   2.422  0.00  0.00    +0.147 HD
BRANCH  13  21
ATOM     15  C   UNL     1      -0.018   1.503   0.010  0.00  0.00    +0.046 C 
ATOM     16  C   UNL     1       0.002  -0.004   0.002  0.00  0.00    -0.026 A 
ATOM     17  C   UNL     1       0.006  -0.688  -1.198  0.00  0.00    +0.050 A 
ATOM     18  C   UNL     1       0.025  -2.075  -1.206  0.00  0.00    +0.120 A 
ATOM     19  C   UNL     1       0.040  -2.776  -0.009  0.00  0.00    +0.047 A 
ATOM     20  C   UNL     1       0.036  -2.094   1.192  0.00  0.00    +0.027 A 
ATOM     21  C   UNL     1       0.023  -0.705   1.200  0.00  0.00    +0.031 A 
BRANCH  18  22
ATOM     22  O   UNL     1       0.028  -2.748  -2.388  0.00  0.00    -0.495 OA
ATOM     23  C   UNL     1       0.047  -4.175  -2.321  0.00  0.00    +0.277 C 
ENDBRANCH  18  22
ENDBRANCH  13  21
ENDBRANCH   1  13
TORSDOF 5
