REMARK  Name = ZINC40910719
REMARK  11 active torsions:
REMARK  status: ('A' for Active; 'I' for Inactive)
REMARK    1  A    between atoms: C_1  and  C_2
REMARK    2  A    between atoms: C_2  and  C_3
REMARK    3  A    between atoms: C_6  and  C_9
REMARK    4  A    between atoms: N_10  and  N_11
REMARK    5  A    between atoms: C_12  and  C_14
REMARK    6  A    between atoms: C_14  and  O_15
REMARK    7  A    between atoms: O_15  and  C_16
REMARK    8  A    between atoms: C_18  and  C_26
REMARK    9  A    between atoms: C_21  and  C_22
REMARK   10  A    between atoms: C_22  and  C_23
REMARK   11  A    between atoms: C_22  and  C_24
REMARK                            x       y       z     vdW  Elec       q    Type
REMARK                         _______ _______ _______ _____ _____    ______ ____
ROOT
ATOM      1  N   UNL     1       4.631  -2.517  -5.862  0.00  0.00    -0.204 N 
ATOM      2  C   UNL     1       5.962  -2.729  -5.840  0.00  0.00    +0.270 C 
ATOM      3  O   UNL     1       6.592  -2.528  -4.824  0.00  0.00    -0.270 OA
ATOM      4  H   UNL     1       4.127  -2.678  -6.675  0.00  0.00    +0.177 HD
ENDROOT
BRANCH   1   6
ATOM      5  C   UNL     1       2.694  -1.860  -4.730  0.00  0.00    +0.138 C 
ATOM      6  N   UNL     1       3.975  -2.064  -4.709  0.00  0.00    -0.188 NA
BRANCH   5  10
ATOM      7  C   UNL     1       0.707  -0.490  -1.238  0.00  0.00    -0.048 A 
ATOM      8  C   UNL     1      -0.014  -0.718  -2.396  0.00  0.00    +0.004 A 
ATOM      9  C   UNL     1       0.625  -1.163  -3.535  0.00  0.00    +0.010 A 
ATOM     10  C   UNL     1       2.004  -1.384  -3.516  0.00  0.00    -0.005 A 
ATOM     11  C   UNL     1       2.726  -1.151  -2.344  0.00  0.00    +0.010 A 
ATOM     12  C   UNL     1       2.075  -0.701  -1.214  0.00  0.00    +0.004 A 
BRANCH   7  14
ATOM     13  C   UNL     1      -0.019   1.526   0.010  0.00  0.00    +0.009 C 
ATOM     14  C   UNL     1       0.002  -0.004   0.002  0.00  0.00    +0.032 C 
ENDBRANCH   7  14
ENDBRANCH   5  10
ENDBRANCH   1   6
BRANCH   2  15
ATOM     15  C   UNL     1       6.667  -3.216  -7.080  0.00  0.00    +0.326 C 
BRANCH  15  16
ATOM     16  O   UNL     1       8.062  -3.363  -6.808  0.00  0.00    -0.482 OA
BRANCH  16  17
ATOM     17  C   UNL     1       8.847  -3.798  -7.828  0.00  0.00    +0.125 A 
ATOM     18  C   UNL     1       8.287  -4.071  -9.068  0.00  0.00    +0.050 A 
ATOM     19  C   UNL     1       9.087  -4.513 -10.104  0.00  0.00    -0.033 A 
ATOM     20  C   UNL     1      10.446  -4.682  -9.906  0.00  0.00    +0.021 A 
ATOM     21  C   UNL     1      11.006  -4.411  -8.671  0.00  0.00    +0.023 A 
ATOM     22  C   UNL     1      10.211  -3.963  -7.633  0.00  0.00    -0.002 A 
ATOM     23 BR   UNL     1      11.539  -5.287 -11.326  0.00  0.00    -0.050 Br
ATOM     24  C   UNL     1       8.480  -4.810 -11.450  0.00  0.00    +0.045 C 
BRANCH  22  25
ATOM     25  C   UNL     1      10.822  -3.660  -6.290  0.00  0.00    +0.016 C 
ATOM     26  C   UNL     1      11.485  -4.923  -5.735  0.00  0.00    +0.012 C 
ATOM     27  C   UNL     1      11.873  -2.559  -6.445  0.00  0.00    +0.012 C 
ENDBRANCH  22  25
ENDBRANCH  16  17
ENDBRANCH  15  16
ENDBRANCH   2  15
TORSDOF 7
