REMARK  Name = ZINC12391939
REMARK  7 active torsions:
REMARK  status: ('A' for Active; 'I' for Inactive)
REMARK    1  A    between atoms: C_1  and  O_2
REMARK    2  A    between atoms: O_2  and  C_3
REMARK    3  A    between atoms: C_6  and  C_11
REMARK    4  A    between atoms: C_8  and  O_9
REMARK    5  A    between atoms: O_9  and  C_10
REMARK    6  A    between atoms: C_11  and  N_12
REMARK    7  A    between atoms: C_24  and  O_29
REMARK                            x       y       z     vdW  Elec       q    Type
REMARK                         _______ _______ _______ _____ _____    ______ ____
ROOT
ATOM      1  N   UNL     1       1.993   1.173  -1.221  0.00  0.00    -0.280 N 
ATOM      2  C   UNL     1       1.876   1.892  -2.345  0.00  0.00    +0.136 C 
ATOM      3  S   UNL     1       2.704   1.368  -3.749  0.00  0.00    -0.019 S 
ATOM      4  N   UNL     1       1.134   3.008  -2.416  0.00  0.00    -0.320 N 
ATOM      5  C   UNL     1       0.408   3.519  -1.251  0.00  0.00    +0.041 C 
ATOM      6  C   UNL     1       0.344   5.046  -1.314  0.00  0.00    +0.026 C 
ATOM      7  C   UNL     1      -0.392   5.474  -2.585  0.00  0.00    +0.002 C 
ATOM      8  C   UNL     1      -1.811   4.902  -2.571  0.00  0.00    +0.000 C 
ATOM      9  C   UNL     1      -1.744   3.375  -2.512  0.00  0.00    +0.002 C 
ATOM     10  C   UNL     1      -1.010   2.946  -1.240  0.00  0.00    +0.026 C 
ATOM     11  C   UNL     1       1.143   3.088   0.019  0.00  0.00    +0.063 C 
ATOM     12  C   UNL     1       1.286   1.562  -0.002  0.00  0.00    +0.139 C 
ATOM     13  C   UNL     1       2.062   1.114   1.236  0.00  0.00    +0.055 C 
ATOM     14  C   UNL     1       1.286   1.528   2.490  0.00  0.00    +0.004 C 
ATOM     15  C   UNL     1       1.111   3.047   2.512  0.00  0.00    +0.001 C 
ATOM     16  C   UNL     1       0.352   3.499   1.261  0.00  0.00    +0.010 C 
ATOM     17  H   UNL     1       1.078   3.488  -3.257  0.00  0.00    +0.148 HD
ENDROOT
BRANCH  12  18
ATOM     18  O   UNL     1      -0.011   0.963   0.007  0.00  0.00    -0.371 OA
ATOM     19  H   UNL     1       0.002  -0.004   0.002  0.00  0.00    +0.212 HD
ENDBRANCH  12  18
BRANCH   1  20
ATOM     20  C   UNL     1       2.841  -0.022  -1.218  0.00  0.00    +0.144 C 
BRANCH  20  24
ATOM     21  C   UNL     1       0.507  -3.431  -2.321  0.00  0.00    +0.162 A 
ATOM     22  C   UNL     1       0.616  -3.064  -0.989  0.00  0.00    +0.050 A 
ATOM     23  C   UNL     1       1.376  -1.965  -0.635  0.00  0.00    +0.009 A 
ATOM     24  C   UNL     1       2.019  -1.223  -1.609  0.00  0.00    -0.026 A 
ATOM     25  C   UNL     1       1.914  -1.583  -2.939  0.00  0.00    +0.054 A 
ATOM     26  C   UNL     1       1.159  -2.687  -3.300  0.00  0.00    +0.162 A 
BRANCH  21  28
ATOM     27  C   UNL     1      -0.877  -5.231  -1.613  0.00  0.00    +0.277 C 
ATOM     28  O   UNL     1      -0.236  -4.516  -2.671  0.00  0.00    -0.491 OA
ENDBRANCH  21  28
BRANCH  26  29
ATOM     29  O   UNL     1       1.055  -3.044  -4.609  0.00  0.00    -0.491 OA
ATOM     30  C   UNL     1       1.751  -2.235  -5.558  0.00  0.00    +0.277 C 
ENDBRANCH  26  29
ENDBRANCH  20  24
ENDBRANCH   1  20
TORSDOF 5
