REMARK  Name = ZINC06757205
REMARK  12 active torsions:
REMARK  status: ('A' for Active; 'I' for Inactive)
REMARK    1  A    between atoms: C_1  and  C_2
REMARK    2  A    between atoms: C_2  and  C_3
REMARK    3  A    between atoms: C_3  and  N_4
REMARK    4  A    between atoms: N_4  and  C_5
REMARK    5  A    between atoms: C_5  and  C_6
REMARK    6  A    between atoms: C_16  and  C_18
REMARK    7  A    between atoms: C_23  and  O_24
REMARK    8  A    between atoms: O_24  and  C_25
REMARK    9  A    between atoms: N_28  and  C_29
REMARK   10  A    between atoms: C_29  and  C_30
REMARK   11  A    between atoms: C_29  and  C_31
REMARK   12  A    between atoms: C_29  and  C_32
REMARK                            x       y       z     vdW  Elec       q    Type
REMARK                         _______ _______ _______ _____ _____    ______ ____
ROOT
ATOM      1  C   UNL     1      -1.139   3.927   3.714  0.00  0.00    +0.234 C 
ATOM      2  O   UNL     1      -1.978   3.665   2.878  0.00  0.00    -0.274 OA
ATOM      3  N   UNL     1      -0.964   5.201   4.117  0.00  0.00    -0.286 N 
ATOM      4  C   UNL     1      -0.047   5.527   5.219  0.00  0.00    +0.130 C 
ATOM      5  C   UNL     1       1.102   6.387   4.683  0.00  0.00    +0.140 C 
ATOM      6  N   UNL     1       0.554   7.450   3.832  0.00  0.00    -0.347 N 
ATOM      7  C   UNL     1       1.175   8.604   3.463  0.00  0.00    +0.086 A 
ATOM      8  C   UNL     1       0.333   9.302   2.672  0.00  0.00    +0.019 A 
ATOM      9  C   UNL     1      -0.855   8.552   2.551  0.00  0.00    +0.025 A 
ATOM     10  C   UNL     1      -0.693   7.430   3.270  0.00  0.00    +0.044 A 
ATOM     11  C   UNL     1      -1.683   6.310   3.462  0.00  0.00    +0.157 C 
ENDROOT
BRANCH  11  12
ATOM     12  C   UNL     1      -2.215   5.860   2.126  0.00  0.00    +0.020 A 
ATOM     13  C   UNL     1      -1.357   5.320   1.187  0.00  0.00    +0.009 A 
ATOM     14  C   UNL     1      -1.845   4.903  -0.038  0.00  0.00    +0.001 A 
ATOM     15  C   UNL     1      -3.191   5.034  -0.329  0.00  0.00    +0.004 A 
ATOM     16  C   UNL     1      -4.051   5.578   0.604  0.00  0.00    +0.046 A 
ATOM     17  C   UNL     1      -3.565   5.993   1.836  0.00  0.00    +0.125 A 
BRANCH  17  18
ATOM     18  O   UNL     1      -4.410   6.528   2.756  0.00  0.00    -0.495 OA
ATOM     19  C   UNL     1      -5.787   6.634   2.388  0.00  0.00    +0.277 C 
ENDBRANCH  17  18
ENDBRANCH  11  12
BRANCH   1  20
ATOM     20  C   UNL     1      -0.292   2.828   4.302  0.00  0.00    +0.205 C 
BRANCH  20  21
ATOM     21  N   UNL     1      -0.673   1.545   3.704  0.00  0.00    -0.277 N 
ATOM     22  C   UNL     1      -1.639   0.797   4.273  0.00  0.00    +0.303 C 
ATOM     23  O   UNL     1      -2.195   1.187   5.282  0.00  0.00    -0.253 OA
ATOM     24  N   UNL     1      -1.989  -0.383   3.723  0.00  0.00    -0.294 N 
ATOM     25  H   UNL     1      -1.546  -0.693   2.918  0.00  0.00    +0.151 HD
BRANCH  24  26
ATOM     26  C   UNL     1      -3.040  -1.196   4.341  0.00  0.00    +0.028 C 
ATOM     27  C   UNL     1      -4.347  -0.401   4.374  0.00  0.00    +0.031 C 
ATOM     28  C   UNL     1      -3.241  -2.474   3.525  0.00  0.00    +0.031 C 
ATOM     29  C   UNL     1      -2.628  -1.561   5.769  0.00  0.00    +0.031 C 
ENDBRANCH  24  26
BRANCH  21  30
ATOM     30  C   UNL     1      -0.003   1.076   2.489  0.00  0.00    +0.109 C 
BRANCH  30  32
ATOM     31  C   UNL     1      -0.062   1.093  -0.009  0.00  0.00    +0.005 C 
ATOM     32  C   UNL     1      -0.762   1.583   1.261  0.00  0.00    +0.016 C 
ENDBRANCH  30  32
ENDBRANCH  21  30
ENDBRANCH  20  21
ENDBRANCH   1  20
TORSDOF 7
