REMARK  Name = ZINC24950816
REMARK  7 active torsions:
REMARK  status: ('A' for Active; 'I' for Inactive)
REMARK    1  A    between atoms: C_1  and  C_2
REMARK    2  A    between atoms: C_2  and  C_4
REMARK    3  A    between atoms: C_2  and  S_20
REMARK    4  A    between atoms: C_10  and  C_15
REMARK    5  A    between atoms: S_20  and  C_21
REMARK    6  A    between atoms: C_24  and  C_27
REMARK    7  A    between atoms: N_25  and  N_26
REMARK                            x       y       z     vdW  Elec       q    Type
REMARK                         _______ _______ _______ _____ _____    ______ ____
ROOT
ATOM      1  C   UNL     1      -0.019   1.526   0.010  0.00  0.00    +0.027 C 
ATOM      2  C   UNL     1       0.002  -0.004   0.002  0.00  0.00    +0.117 C 
ENDROOT
BRANCH   2   3
ATOM      3  C   UNL     1      -1.412  -0.526   0.013  0.00  0.00    +0.124 A 
ATOM      4  N   UNL     1      -1.993  -0.855   1.195  0.00  0.00    -0.309 N 
ATOM      5  H   UNL     1      -1.490  -0.749   2.018  0.00  0.00    +0.170 HD
ATOM      6  C   UNL     1      -3.253  -1.323   1.248  0.00  0.00    +0.260 A 
ATOM      7  O   UNL     1      -3.761  -1.613   2.318  0.00  0.00    -0.267 OA
ATOM      8  C   UNL     1      -3.989  -1.476   0.030  0.00  0.00    +0.083 A 
ATOM      9  C   UNL     1      -5.351  -1.957  -0.172  0.00  0.00    +0.039 A 
ATOM     10  C   UNL     1      -5.841  -2.014  -1.436  0.00  0.00    +0.059 A 
ATOM     11  S   UNL     1      -4.487  -1.420  -2.431  0.00  0.00    -0.076 S 
ATOM     12  C   UNL     1      -3.307  -1.111  -1.142  0.00  0.00    +0.116 A 
ATOM     13  N   UNL     1      -2.059  -0.649  -1.115  0.00  0.00    -0.225 NA
BRANCH   9  14
ATOM     14  C   UNL     1      -6.180  -2.374   0.977  0.00  0.00    +0.136 A 
ATOM     15  C   UNL     1      -7.453  -1.968   1.232  0.00  0.00    +0.050 A 
ATOM     16  C   UNL     1      -7.854  -2.609   2.422  0.00  0.00    +0.042 A 
ATOM     17  C   UNL     1      -6.818  -3.366   2.830  0.00  0.00    +0.196 A 
ATOM     18  O   UNL     1      -5.810  -3.227   1.952  0.00  0.00    -0.463 OA
ENDBRANCH   9  14
ENDBRANCH   2   3
BRANCH   2  19
ATOM     19  S   UNL     1       0.879  -0.605   1.472  0.00  0.00    -0.074 S 
BRANCH  19  20
ATOM     20  C   UNL     1       2.533  -0.042   1.241  0.00  0.00    +0.209 A 
ATOM     21  N   UNL     1       2.985   0.657   0.225  0.00  0.00    -0.121 NA
ATOM     22  N   UNL     1       4.239   0.893   0.382  0.00  0.00    -0.132 NA
ATOM     23  C   UNL     1       4.658   0.365   1.497  0.00  0.00    +0.154 A 
ATOM     24  N   UNL     1       3.585  -0.245   2.087  0.00  0.00    -0.228 N 
BRANCH  23  25
ATOM     25  C   UNL     1       6.063   0.421   2.039  0.00  0.00    +0.059 C 
ATOM     26  C   UNL     1       6.469   1.880   2.253  0.00  0.00    +0.011 C 
ATOM     27  C   UNL     1       7.896   1.937   2.803  0.00  0.00    +0.001 C 
ATOM     28  C   UNL     1       8.854   1.282   1.806  0.00  0.00    +0.000 C 
ATOM     29  C   UNL     1       8.447  -0.178   1.592  0.00  0.00    +0.001 C 
ATOM     30  C   UNL     1       7.021  -0.234   1.042  0.00  0.00    +0.011 C 
ENDBRANCH  23  25
BRANCH  24  31
ATOM     31  N   UNL     1       3.571  -0.920   3.274  0.00  0.00    -0.295 N 
ATOM     32  H   UNL     1       3.776  -1.898   3.137  0.00  0.00    +0.163 HD
ATOM     33  H   UNL     1       4.211  -0.505   3.934  0.00  0.00    +0.163 HD
ENDBRANCH  24  31
ENDBRANCH  19  20
ENDBRANCH   2  19
TORSDOF 6
