REMARK  Name = ZINC01430719
REMARK  3 active torsions:
REMARK  status: ('A' for Active; 'I' for Inactive)
REMARK    1  A    between atoms: C_6  and  C_11
REMARK    2  A    between atoms: N_16  and  C_24
REMARK    3  A    between atoms: C_25  and  C_33
REMARK                            x       y       z     vdW  Elec       q    Type
REMARK                         _______ _______ _______ _____ _____    ______ ____
ROOT
ATOM      1  C   UNL     1       5.008  -2.700  -0.063  0.00  0.00    +0.063 C 
ATOM      2  C   UNL     1       5.118  -3.597   1.175  0.00  0.00    +0.109 C 
ATOM      3  C   UNL     1       6.319  -4.495   1.018  0.00  0.00    +0.225 C 
ATOM      4  O   UNL     1       6.963  -4.822   1.992  0.00  0.00    -0.275 OA
ATOM      5  N   UNL     1       6.675  -4.934  -0.203  0.00  0.00    -0.236 N 
ATOM      6  C   UNL     1       5.911  -4.639  -1.307  0.00  0.00    +0.026 C 
ATOM      7  C   UNL     1       5.097  -3.562  -1.301  0.00  0.00    +0.020 C 
ATOM      8  C   UNL     1       4.328  -3.220  -2.425  0.00  0.00    +0.161 C 
ATOM      9  O   UNL     1       3.607  -2.243  -2.382  0.00  0.00    -0.292 OA
ATOM     10  C   UNL     1       4.382  -4.046  -3.682  0.00  0.00    +0.080 C 
ATOM     11  C   UNL     1       5.758  -4.713  -3.783  0.00  0.00    +0.014 C 
ATOM     12  C   UNL     1       5.998  -5.536  -2.516  0.00  0.00    +0.052 C 
ENDROOT
BRANCH   1  18
ATOM     13  C   UNL     1      -0.017   1.356   0.008  0.00  0.00    +0.001 A 
ATOM     14  C   UNL     1       1.168   2.090  -0.001  0.00  0.00    +0.001 A 
ATOM     15  C   UNL     1       2.378   1.467  -0.016  0.00  0.00    +0.008 A 
ATOM     16  C   UNL     1       2.437   0.063  -0.023  0.00  0.00    -0.018 A 
ATOM     17  C   UNL     1       3.668  -0.615  -0.038  0.00  0.00    +0.012 A 
ATOM     18  C   UNL     1       3.686  -1.976  -0.045  0.00  0.00    -0.039 A 
ATOM     19  C   UNL     1       2.502  -2.710  -0.037  0.00  0.00    +0.005 A 
ATOM     20  C   UNL     1       1.292  -2.087  -0.021  0.00  0.00    +0.009 A 
ATOM     21  C   UNL     1       1.232  -0.683  -0.014  0.00  0.00    -0.018 A 
ATOM     22  C   UNL     1       0.002  -0.005   0.002  0.00  0.00    +0.008 A 
ENDBRANCH   1  18
BRANCH   5  23
ATOM     23  C   UNL     1       7.830  -5.694  -0.350  0.00  0.00    +0.097 A 
ATOM     24  C   UNL     1       9.104  -5.267  -0.690  0.00  0.00    +0.084 A 
ATOM     25  C   UNL     1      10.149  -6.271  -0.778  0.00  0.00    -0.018 A 
ATOM     26  C   UNL     1       9.753  -7.537  -0.515  0.00  0.00    -0.004 A 
ATOM     27  S   UNL     1       8.027  -7.403  -0.146  0.00  0.00    -0.076 S 
ATOM     28  C   UNL     1      10.603  -8.770  -0.529  0.00  0.00    +0.043 C 
ATOM     29  C   UNL     1      11.916  -8.444  -1.254  0.00  0.00    +0.005 C 
ATOM     30  C   UNL     1      12.476  -7.132  -0.695  0.00  0.00    +0.005 C 
ATOM     31  C   UNL     1      11.596  -5.961  -1.139  0.00  0.00    +0.037 C 
BRANCH  24  32
ATOM     32  C   UNL     1       9.381  -3.885  -0.944  0.00  0.00    +0.102 C 
ATOM     33  N   UNL     1       9.600  -2.789  -1.146  0.00  0.00    -0.191 NA
ENDBRANCH  24  32
ENDBRANCH   5  23
TORSDOF 3
