REMARK  Name = ZINC39638751
REMARK  12 active torsions:
REMARK  status: ('A' for Active; 'I' for Inactive)
REMARK    1  A    between atoms: C_1  and  C_2
REMARK    2  A    between atoms: C_2  and  O_3
REMARK    3  A    between atoms: O_3  and  C_4
REMARK    4  A    between atoms: C_9  and  C_10
REMARK    5  A    between atoms: C_10  and  N_11
REMARK    6  A    between atoms: C_12  and  C_14
REMARK    7  A    between atoms: C_25  and  C_27
REMARK    8  A    between atoms: C_27  and  C_29
REMARK    9  A    between atoms: C_27  and  O_32
REMARK   10  A    between atoms: C_29  and  C_30
REMARK   11  A    between atoms: C_29  and  C_31
REMARK   12  A    between atoms: O_32  and  C_33
REMARK                            x       y       z     vdW  Elec       q    Type
REMARK                         _______ _______ _______ _____ _____    ______ ____
ROOT
ATOM      1  C   UNL     1       5.668   0.200  -3.347  0.00  0.00    +0.100 C 
ATOM      2  C   UNL     1       5.361   1.126  -2.148  0.00  0.00    +0.121 C 
ATOM      3  N   UNL     1       6.269   2.284  -2.328  0.00  0.00    -0.297 N 
ATOM      4  C   UNL     1       6.262   2.534  -3.789  0.00  0.00    +0.115 C 
ATOM      5  C   UNL     1       6.258   1.129  -4.422  0.00  0.00    -0.004 C 
ATOM      6  C   UNL     1       5.381   1.115  -5.670  0.00  0.00    -0.010 C 
ATOM      7  C   UNL     1       6.019   2.000  -6.746  0.00  0.00    -0.082 C 
ATOM      8  N   UNL     1       7.362   1.499  -7.061  0.00  0.00    +0.379 N 
ATOM      9  C   UNL     1       8.225   1.602  -5.878  0.00  0.00    -0.082 C 
ATOM     10  C   UNL     1       7.681   0.701  -4.766  0.00  0.00    -0.010 C 
ATOM     11  C   UNL     1       6.947   2.957  -1.377  0.00  0.00    +0.257 C 
ATOM     12  O   UNL     1       7.588   3.943  -1.673  0.00  0.00    -0.272 OA
ATOM     13  H   UNL     1       7.301   0.533  -7.348  0.00  0.00    -0.086 HD
ATOM     14  H   UNL     1       7.756   2.045  -7.812  0.00  0.00    -0.086 HD
ENDROOT
BRANCH   1  16
ATOM     15  N   UNL     1       4.466  -1.579  -4.574  0.00  0.00    -0.311 N 
ATOM     16  C   UNL     1       4.402  -0.445  -3.849  0.00  0.00    +0.218 C 
ATOM     17  O   UNL     1       3.326   0.056  -3.599  0.00  0.00    -0.275 OA
ATOM     18  H   UNL     1       5.327  -1.980  -4.773  0.00  0.00    +0.149 HD
BRANCH  15  19
ATOM     19  C   UNL     1       3.235  -2.207  -5.061  0.00  0.00    +0.143 C 
BRANCH  19  25
ATOM     20  C   UNL     1       3.874  -4.630  -5.168  0.00  0.00    +0.125 A 
ATOM     21  C   UNL     1       4.185  -5.775  -5.886  0.00  0.00    +0.046 A 
ATOM     22  C   UNL     1       4.208  -5.738  -7.267  0.00  0.00    +0.004 A 
ATOM     23  C   UNL     1       3.920  -4.561  -7.933  0.00  0.00    +0.001 A 
ATOM     24  C   UNL     1       3.609  -3.418  -7.219  0.00  0.00    +0.009 A 
ATOM     25  C   UNL     1       3.580  -3.451  -5.838  0.00  0.00    +0.011 A 
BRANCH  20  26
ATOM     26  O   UNL     1       3.851  -4.663  -3.809  0.00  0.00    -0.492 OA
BRANCH  26  28
ATOM     27  C   UNL     1       4.087  -5.755  -1.666  0.00  0.00    +0.048 C 
ATOM     28  C   UNL     1       4.164  -5.911  -3.186  0.00  0.00    +0.225 C 
ENDBRANCH  26  28
ENDBRANCH  20  26
ENDBRANCH  19  25
ENDBRANCH  15  19
ENDBRANCH   1  16
BRANCH  11  29
ATOM     29  C   UNL     1       6.908   2.485   0.053  0.00  0.00    +0.261 C 
BRANCH  29  30
ATOM     30  C   UNL     1       5.706   3.110   0.764  0.00  0.00    +0.033 C 
ATOM     31  C   UNL     1       4.429   2.788  -0.014  0.00  0.00    +0.011 C 
ATOM     32  C   UNL     1       5.598   2.539   2.180  0.00  0.00    +0.011 C 
ENDBRANCH  29  30
BRANCH  29  33
ATOM     33  O   UNL     1       8.111   2.877   0.717  0.00  0.00    -0.479 OA
BRANCH  33  34
ATOM     34  C   UNL     1       8.593   2.035   1.669  0.00  0.00    +0.122 A 
ATOM     35  C   UNL     1       7.976   0.814   1.893  0.00  0.00    +0.045 A 
ATOM     36  C   UNL     1       8.469  -0.041   2.861  0.00  0.00    +0.004 A 
ATOM     37  C   UNL     1       9.575   0.322   3.606  0.00  0.00    +0.000 A 
ATOM     38  C   UNL     1      10.192   1.540   3.385  0.00  0.00    +0.004 A 
ATOM     39  C   UNL     1       9.707   2.394   2.414  0.00  0.00    +0.045 A 
ENDBRANCH  33  34
ENDBRANCH  29  33
ENDBRANCH  11  29
TORSDOF 9
