REMARK  Name = ZINC45050156
REMARK  6 active torsions:
REMARK  status: ('A' for Active; 'I' for Inactive)
REMARK    1  A    between atoms: C_1  and  C_2
REMARK    2  A    between atoms: C_2  and  C_3
REMARK    3  A    between atoms: C_2  and  C_4
REMARK    4  A    between atoms: C_4  and  N_5
REMARK    5  A    between atoms: C_14  and  C_16
REMARK    6  A    between atoms: N_25  and  C_28
REMARK                            x       y       z     vdW  Elec       q    Type
REMARK                         _______ _______ _______ _____ _____    ______ ____
ROOT
ATOM      1  N   UNL     1      -0.008  -0.140   2.444  0.00  0.00    -0.228 N 
ATOM      2  C   UNL     1      -0.932  -1.004   2.911  0.00  0.00    +0.275 A 
ATOM      3  O   UNL     1      -1.136  -2.064   2.347  0.00  0.00    -0.266 OA
ATOM      4  C   UNL     1      -1.688  -0.637   4.117  0.00  0.00    +0.050 A 
ATOM      5  C   UNL     1      -2.661  -1.458   4.678  0.00  0.00    +0.014 A 
ATOM      6  C   UNL     1      -3.326  -1.040   5.812  0.00  0.00    +0.001 A 
ATOM      7  C   UNL     1      -3.033   0.186   6.394  0.00  0.00    +0.001 A 
ATOM      8  C   UNL     1      -2.072   1.014   5.854  0.00  0.00    +0.011 A 
ATOM      9  C   UNL     1      -1.389   0.611   4.711  0.00  0.00    +0.020 A 
ATOM     10  C   UNL     1      -0.350   1.434   4.071  0.00  0.00    +0.154 A 
ATOM     11  N   UNL     1       0.252   0.984   2.997  0.00  0.00    -0.163 NA
ENDROOT
BRANCH  10  12
ATOM     12  C   UNL     1       0.013   2.749   4.635  0.00  0.00    +0.270 C 
ATOM     13  O   UNL     1      -0.546   3.158   5.634  0.00  0.00    -0.268 OA
ATOM     14  N   UNL     1       0.966   3.496   4.043  0.00  0.00    -0.259 N 
ATOM     15  C   UNL     1       1.308   4.733   4.574  0.00  0.00    +0.165 A 
ATOM     16  N   UNL     1       2.201   5.593   4.133  0.00  0.00    -0.229 NA
ATOM     17  C   UNL     1       2.423   6.748   4.747  0.00  0.00    +0.056 A 
ATOM     18  C   UNL     1       1.664   6.965   5.855  0.00  0.00    +0.028 A 
ATOM     19  S   UNL     1       0.676   5.500   5.935  0.00  0.00    -0.055 S 
ATOM     20  C   UNL     1       1.696   8.159   6.744  0.00  0.00    +0.128 C 
ATOM     21  N   UNL     1       2.923   8.923   6.441  0.00  0.00    -0.300 NA
ATOM     22  C   UNL     1       3.067   9.123   4.993  0.00  0.00    +0.090 C 
ATOM     23  C   UNL     1       3.430   7.802   4.307  0.00  0.00    +0.071 C 
ATOM     24  C   UNL     1       2.932  10.208   7.153  0.00  0.00    +0.105 C 
ATOM     25  H   UNL     1       1.413   3.170   3.246  0.00  0.00    +0.157 HD
ENDBRANCH  10  12
BRANCH   1  26
ATOM     26  C   UNL     1       0.742  -0.511   1.242  0.00  0.00    +0.150 C 
BRANCH  26  28
ATOM     27  C   UNL     1      -0.019   1.526   0.010  0.00  0.00    +0.009 C 
ATOM     28  C   UNL     1       0.002  -0.004   0.002  0.00  0.00    +0.004 C 
ATOM     29  C   UNL     1       0.718  -0.497  -1.257  0.00  0.00    +0.009 C 
ENDBRANCH  26  28
ENDBRANCH   1  26
TORSDOF 3
