REMARK  Name = ZINC34748062
REMARK  6 active torsions:
REMARK  status: ('A' for Active; 'I' for Inactive)
REMARK    1  A    between atoms: C_4  and  C_7
REMARK    2  A    between atoms: C_7  and  C_8
REMARK    3  A    between atoms: C_8  and  C_9
REMARK    4  A    between atoms: C_9  and  N_10
REMARK    5  A    between atoms: N_23  and  C_26
REMARK    6  A    between atoms: C_26  and  C_27
REMARK                            x       y       z     vdW  Elec       q    Type
REMARK                         _______ _______ _______ _____ _____    ______ ____
ROOT
ATOM      1  N   UNL     1       6.040  -2.023   2.721  0.00  0.00    -0.280 N 
ATOM      2  C   UNL     1       6.892  -1.159   3.305  0.00  0.00    +0.264 A 
ATOM      3  O   UNL     1       7.376  -0.240   2.667  0.00  0.00    -0.267 OA
ATOM      4  C   UNL     1       7.219  -1.337   4.686  0.00  0.00    +0.076 A 
ATOM      5  C   UNL     1       8.119  -0.520   5.516  0.00  0.00    -0.023 A 
ATOM      6  C   UNL     1       8.267  -0.891   6.798  0.00  0.00    -0.004 A 
ATOM      7  S   UNL     1       7.235  -2.328   6.983  0.00  0.00    -0.073 S 
ATOM      8  C   UNL     1       6.608  -2.424   5.327  0.00  0.00    +0.117 A 
ATOM      9  N   UNL     1       5.776  -3.242   4.692  0.00  0.00    -0.208 NA
ATOM     10  C   UNL     1       5.486  -3.053   3.421  0.00  0.00    +0.202 A 
ATOM     11  N   UNL     1       4.617  -3.909   2.791  0.00  0.00    -0.304 N 
ATOM     12  C   UNL     1       5.108  -5.114   2.104  0.00  0.00    +0.089 C 
ATOM     13  C   UNL     1       4.292  -6.316   2.589  0.00  0.00    -0.059 C 
ATOM     14  N   UNL     1       2.862  -6.048   2.394  0.00  0.00    +0.387 N 
ATOM     15  C   UNL     1       2.445  -4.921   3.238  0.00  0.00    -0.059 C 
ATOM     16  C   UNL     1       3.169  -3.652   2.790  0.00  0.00    +0.089 C 
ATOM     17  C   UNL     1       9.210   0.011   7.547  0.00  0.00    +0.043 C 
ATOM     18  C   UNL     1       9.982   0.766   6.442  0.00  0.00    +0.010 C 
ATOM     19  C   UNL     1       8.978   0.725   5.274  0.00  0.00    +0.037 C 
ATOM     20  H   UNL     1       2.693  -5.821   1.425  0.00  0.00    -0.081 HD
ENDROOT
BRANCH   1  21
ATOM     21  C   UNL     1       5.697  -1.849   1.307  0.00  0.00    +0.128 C 
BRANCH  21  22
ATOM     22  C   UNL     1       4.555  -0.838   1.180  0.00  0.00    +0.026 C 
BRANCH  22  23
ATOM     23  C   UNL     1       4.197  -0.656  -0.296  0.00  0.00    +0.037 C 
BRANCH  23  27
ATOM     24  C   UNL     1       1.009   2.165  -0.654  0.00  0.00    +0.000 A 
ATOM     25  C   UNL     1       2.322   2.598  -0.679  0.00  0.00    +0.000 A 
ATOM     26  C   UNL     1       3.353   1.685  -0.563  0.00  0.00    +0.003 A 
ATOM     27  C   UNL     1       3.072   0.339  -0.422  0.00  0.00    -0.047 A 
ATOM     28  C   UNL     1       1.760  -0.094  -0.396  0.00  0.00    +0.003 A 
ATOM     29  C   UNL     1       0.729   0.819  -0.513  0.00  0.00    +0.000 A 
ENDBRANCH  23  27
ENDBRANCH  22  23
ENDBRANCH  21  22
ENDBRANCH   1  21
BRANCH  14  30
ATOM     30  C   UNL     1       2.087  -7.242   2.756  0.00  0.00    +0.019 C 
BRANCH  30  31
ATOM     31  C   UNL     1       0.631  -7.011   2.441  0.00  0.00    +0.199 C 
ATOM     32  O   UNL     1       0.275  -5.955   1.962  0.00  0.00    -0.278 OA
ATOM     33  N   UNL     1      -0.274  -7.977   2.692  0.00  0.00    -0.300 N 
ATOM     34  C   UNL     1      -0.558  -9.322   3.197  0.00  0.00    +0.126 C 
ATOM     35  C   UNL     1      -1.670  -8.421   2.657  0.00  0.00    +0.126 C 
ENDBRANCH  30  31
ENDBRANCH  14  30
TORSDOF 6
