REMARK  Name = ZINC11591973
REMARK  7 active torsions:
REMARK  status: ('A' for Active; 'I' for Inactive)
REMARK    1  A    between atoms: C_1  and  C_2
REMARK    2  A    between atoms: C_2  and  C_4
REMARK    3  A    between atoms: C_2  and  S_16
REMARK    4  A    between atoms: N_6  and  C_7
REMARK    5  A    between atoms: S_16  and  C_17
REMARK    6  A    between atoms: C_20  and  C_23
REMARK    7  A    between atoms: N_21  and  N_22
REMARK                            x       y       z     vdW  Elec       q    Type
REMARK                         _______ _______ _______ _____ _____    ______ ____
ROOT
ATOM      1  C   UNL     1       2.917   8.802  -0.707  0.00  0.00    +0.029 C 
ATOM      2  C   UNL     1       2.104   9.925  -1.354  0.00  0.00    +0.137 C 
ENDROOT
BRANCH   2   3
ATOM      3  C   UNL     1       2.983  11.134  -1.548  0.00  0.00    +0.230 C 
ATOM      4  O   UNL     1       3.465  11.365  -2.637  0.00  0.00    -0.274 OA
ATOM      5  N   UNL     1       3.232  11.959  -0.512  0.00  0.00    -0.282 N 
ATOM      6  H   UNL     1       2.789  11.816   0.339  0.00  0.00    +0.155 HD
BRANCH   5   7
ATOM      7  C   UNL     1       4.132  13.022  -0.663  0.00  0.00    +0.071 A 
ATOM      8  C   UNL     1       5.483  12.833  -0.400  0.00  0.00    +0.065 A 
ATOM      9  C   UNL     1       6.369  13.883  -0.555  0.00  0.00    +0.042 A 
ATOM     10  C   UNL     1       5.910  15.123  -0.962  0.00  0.00    +0.044 A 
ATOM     11  C   UNL     1       4.564  15.315  -1.221  0.00  0.00    +0.042 A 
ATOM     12  C   UNL     1       3.674  14.268  -1.072  0.00  0.00    +0.065 A 
ATOM     13 CL   UNL     1       1.986  14.510  -1.397  0.00  0.00    -0.082 Cl
ATOM     14 CL   UNL     1       7.025  16.441  -1.149  0.00  0.00    -0.083 Cl
ATOM     15 CL   UNL     1       6.059  11.279   0.117  0.00  0.00    -0.082 Cl
ENDBRANCH   5   7
ENDBRANCH   2   3
BRANCH   2  16
ATOM     16  S   UNL     1       1.480   9.369  -2.960  0.00  0.00    -0.072 S 
BRANCH  16  17
ATOM     17  C   UNL     1       0.396   8.082  -2.438  0.00  0.00    +0.209 A 
ATOM     18  N   UNL     1       0.173   7.706  -1.199  0.00  0.00    -0.121 NA
ATOM     19  N   UNL     1      -0.673   6.739  -1.175  0.00  0.00    -0.126 NA
ATOM     20  C   UNL     1      -1.042   6.436  -2.400  0.00  0.00    +0.188 A 
ATOM     21  N   UNL     1      -0.364   7.284  -3.247  0.00  0.00    -0.223 N 
BRANCH  20  22
ATOM     22  C   UNL     1      -1.996   5.385  -2.792  0.00  0.00    +0.058 A 
ATOM     23  C   UNL     1      -2.896   4.701  -2.016  0.00  0.00    +0.019 A 
ATOM     24  C   UNL     1      -3.698   3.754  -2.612  0.00  0.00    +0.008 A 
ATOM     25  C   UNL     1      -3.567   3.519  -3.943  0.00  0.00    +0.046 A 
ATOM     26  S   UNL     1      -2.282   4.670  -4.403  0.00  0.00    -0.093 S 
ENDBRANCH  20  22
BRANCH  21  27
ATOM     27  N   UNL     1      -0.438   7.322  -4.611  0.00  0.00    -0.295 N 
ATOM     28  H   UNL     1      -1.164   7.952  -4.916  0.00  0.00    +0.163 HD
ATOM     29  H   UNL     1       0.453   7.573  -5.014  0.00  0.00    +0.163 HD
ENDBRANCH  21  27
ENDBRANCH  16  17
ENDBRANCH   2  16
TORSDOF 6
