REMARK  Name = ZINC13623246
REMARK  11 active torsions:
REMARK  status: ('A' for Active; 'I' for Inactive)
REMARK    1  A    between atoms: C_1  and  C_2
REMARK    2  A    between atoms: C_2  and  C_3
REMARK    3  A    between atoms: C_2  and  C_4
REMARK    4  A    between atoms: C_4  and  C_5
REMARK    5  A    between atoms: C_5  and  O_6
REMARK    6  A    between atoms: O_6  and  C_7
REMARK    7  A    between atoms: C_12  and  C_13
REMARK    8  A    between atoms: N_15  and  N_16
REMARK    9  A    between atoms: C_17  and  C_19
REMARK   10  A    between atoms: N_24  and  C_26
REMARK   11  A    between atoms: C_26  and  C_27
REMARK                            x       y       z     vdW  Elec       q    Type
REMARK                         _______ _______ _______ _____ _____    ______ ____
ROOT
ATOM      1  C   UNL     1      -0.014   1.212   0.009  0.00  0.00    +0.264 C 
ATOM      2  O   UNL     1       0.002  -0.004   0.002  0.00  0.00    -0.269 OA
ATOM      3  N   UNL     1      -1.191   1.870   0.018  0.00  0.00    -0.230 N 
ATOM      4  H   UNL     1      -1.204   2.840   0.023  0.00  0.00    +0.173 HD
ENDROOT
BRANCH   1  10
ATOM      5  C   UNL     1       2.478   1.287  -0.009  0.00  0.00    +0.133 A 
ATOM      6  C   UNL     1       3.664   2.006  -0.022  0.00  0.00    +0.047 A 
ATOM      7  C   UNL     1       3.636   3.386  -0.014  0.00  0.00    +0.019 A 
ATOM      8  C   UNL     1       2.427   4.063   0.001  0.00  0.00    +0.019 A 
ATOM      9  C   UNL     1       1.239   3.364   0.008  0.00  0.00    +0.032 A 
ATOM     10  C   UNL     1       1.253   1.967   0.001  0.00  0.00    +0.081 A 
ATOM     11 BR   UNL     1       2.406   5.954   0.011  0.00  0.00    -0.050 Br
BRANCH   5  12
ATOM     12  O   UNL     1       2.504  -0.070  -0.011  0.00  0.00    -0.491 OA
BRANCH  12  13
ATOM     13  C   UNL     1       3.790  -0.694  -0.021  0.00  0.00    +0.229 C 
BRANCH  13  14
ATOM     14  C   UNL     1       3.619  -2.214  -0.021  0.00  0.00    +0.044 C 
BRANCH  14  16
ATOM     15  C   UNL     1       5.729  -2.558   1.271  0.00  0.00    +0.007 C 
ATOM     16  C   UNL     1       4.995  -2.882  -0.032  0.00  0.00    -0.014 C 
ATOM     17  C   UNL     1       4.825  -4.398  -0.158  0.00  0.00    +0.007 C 
ENDBRANCH  14  16
ENDBRANCH  13  14
ENDBRANCH  12  13
ENDBRANCH   5  12
ENDBRANCH   1  10
BRANCH   3  18
ATOM     18  N   UNL     1      -2.394   1.153   0.020  0.00  0.00    -0.234 N 
ATOM     19  C   UNL     1      -3.571   1.811   0.029  0.00  0.00    +0.234 C 
ATOM     20  O   UNL     1      -3.587   3.023   0.035  0.00  0.00    -0.274 OA
ATOM     21  H   UNL     1      -2.381   0.183   0.014  0.00  0.00    +0.173 HD
BRANCH  19  22
ATOM     22  C   UNL     1      -4.865   1.040   0.031  0.00  0.00    +0.102 C 
ATOM     23  C   UNL     1      -5.053   0.277   1.363  0.00  0.00    +0.110 C 
ATOM     24  C   UNL     1      -6.537   0.374   1.640  0.00  0.00    +0.217 C 
ATOM     25  O   UNL     1      -7.143  -0.318   2.430  0.00  0.00    -0.276 OA
ATOM     26  N   UNL     1      -7.086   1.341   0.884  0.00  0.00    -0.296 N 
ATOM     27  C   UNL     1      -6.078   1.996   0.042  0.00  0.00    +0.121 C 
BRANCH  26  28
ATOM     28  C   UNL     1      -8.508   1.694   0.898  0.00  0.00    +0.142 C 
BRANCH  28  29
ATOM     29  C   UNL     1      -9.241   0.869  -0.128  0.00  0.00    -0.030 A 
ATOM     30  C   UNL     1      -9.380   1.338  -1.421  0.00  0.00    +0.005 A 
ATOM     31  C   UNL     1     -10.049   0.579  -2.363  0.00  0.00    +0.000 A 
ATOM     32  C   UNL     1     -10.587  -0.645  -2.010  0.00  0.00    +0.000 A 
ATOM     33  C   UNL     1     -10.451  -1.112  -0.716  0.00  0.00    +0.000 A 
ATOM     34  C   UNL     1      -9.779  -0.355   0.225  0.00  0.00    +0.005 A 
ENDBRANCH  28  29
ENDBRANCH  26  28
ENDBRANCH  19  22
ENDBRANCH   3  18
TORSDOF 9
