REMARK  Name = ZINC40568741
REMARK  10 active torsions:
REMARK  status: ('A' for Active; 'I' for Inactive)
REMARK    1  A    between atoms: C_1  and  C_2
REMARK    2  A    between atoms: C_2  and  C_3
REMARK    3  A    between atoms: C_3  and  C_4
REMARK    4  A    between atoms: C_12  and  C_20
REMARK    5  A    between atoms: C_14  and  C_18
REMARK    6  A    between atoms: C_15  and  N_17
REMARK    7  A    between atoms: C_22  and  O_28
REMARK    8  A    between atoms: C_25  and  O_26
REMARK    9  A    between atoms: O_26  and  C_27
REMARK   10  A    between atoms: O_28  and  C_29
REMARK                            x       y       z     vdW  Elec       q    Type
REMARK                         _______ _______ _______ _____ _____    ______ ____
ROOT
ATOM      1  C   UNL     1       0.739  -2.004  -1.265  0.00  0.00    +0.023 A 
ATOM      2  C   UNL     1      -0.218  -2.679  -1.938  0.00  0.00    +0.068 A 
ATOM      3  C   UNL     1      -0.203  -4.090  -1.949  0.00  0.00    +0.141 A 
ATOM      4  C   UNL     1       0.796  -4.753  -1.268  0.00  0.00    +0.072 A 
ATOM      5  C   UNL     1       1.766  -4.010  -0.583  0.00  0.00    +0.257 A 
ATOM      6  O   UNL     1       2.657  -4.584   0.025  0.00  0.00    -0.267 OA
ATOM      7  N   UNL     1       1.722  -2.665  -0.600  0.00  0.00    -0.326 N 
ATOM      8  H   UNL     1       2.401  -2.159  -0.126  0.00  0.00    +0.169 HD
ATOM      9  C   UNL     1       0.850  -6.256  -1.254  0.00  0.00    +0.107 C 
ATOM     10  C   UNL     1      -0.469  -6.826  -1.695  0.00  0.00    +0.098 C 
ATOM     11  C   UNL     1      -1.383  -6.064  -2.342  0.00  0.00    +0.199 C 
ATOM     12  O   UNL     1      -1.158  -4.768  -2.621  0.00  0.00    -0.441 OA
ENDROOT
BRANCH   9  13
ATOM     13  C   UNL     1       1.932  -6.724  -2.193  0.00  0.00    +0.011 A 
ATOM     14  C   UNL     1       1.873  -6.398  -3.534  0.00  0.00    +0.053 A 
ATOM     15  C   UNL     1       2.868  -6.829  -4.397  0.00  0.00    +0.121 A 
ATOM     16  C   UNL     1       3.925  -7.588  -3.915  0.00  0.00    +0.049 A 
ATOM     17  C   UNL     1       3.984  -7.914  -2.574  0.00  0.00    +0.049 A 
ATOM     18  C   UNL     1       2.991  -7.478  -1.709  0.00  0.00    +0.124 A 
BRANCH  18  19
ATOM     19  O   UNL     1       3.053  -7.795  -0.388  0.00  0.00    -0.495 OA
ATOM     20  C   UNL     1       4.171  -8.574   0.040  0.00  0.00    +0.277 C 
ENDBRANCH  18  19
BRANCH  15  21
ATOM     21  O   UNL     1       2.809  -6.508  -5.718  0.00  0.00    -0.495 OA
ATOM     22  C   UNL     1       3.869  -6.985  -6.549  0.00  0.00    +0.277 C 
ENDBRANCH  15  21
ENDBRANCH   9  13
BRANCH  11  23
ATOM     23  N   UNL     1      -2.572  -6.631  -2.724  0.00  0.00    -0.328 N 
ATOM     24  H   UNL     1      -2.749  -7.564  -2.530  0.00  0.00    +0.145 HD
ATOM     25  H   UNL     1      -3.237  -6.098  -3.188  0.00  0.00    +0.145 HD
ENDBRANCH  11  23
BRANCH  10  26
ATOM     26  C   UNL     1      -0.766  -8.200  -1.426  0.00  0.00    +0.101 C 
ATOM     27  N   UNL     1      -1.001  -9.291  -1.213  0.00  0.00    -0.191 NA
ENDBRANCH  10  26
BRANCH   1  28
ATOM     28  C   UNL     1       0.718  -0.497  -1.257  0.00  0.00    +0.053 C 
BRANCH  28  30
ATOM     29  C   UNL     1      -0.019   1.526   0.010  0.00  0.00    +0.004 C 
ATOM     30  C   UNL     1       0.002  -0.004   0.002  0.00  0.00    +0.003 C 
ENDBRANCH  28  30
ENDBRANCH   1  28
TORSDOF 7
