REMARK  Name = ZINC05603246
REMARK  7 active torsions:
REMARK  status: ('A' for Active; 'I' for Inactive)
REMARK    1  A    between atoms: C_1  and  C_2
REMARK    2  A    between atoms: C_4  and  C_31
REMARK    3  A    between atoms: C_5  and  N_15
REMARK    4  A    between atoms: N_8  and  C_9
REMARK    5  A    between atoms: N_15  and  C_16
REMARK    6  A    between atoms: C_16  and  N_18
REMARK    7  A    between atoms: C_19  and  C_21
REMARK                            x       y       z     vdW  Elec       q    Type
REMARK                         _______ _______ _______ _____ _____    ______ ____
ROOT
ATOM      1  N   UNL     1      -3.309  -0.439   2.895  0.00  0.00    -0.293 N 
ATOM      2  H   UNL     1      -4.146  -0.370   2.410  0.00  0.00    +0.154 HD
ENDROOT
BRANCH   1   6
ATOM      3  C   UNL     1      -0.802   2.615   0.463  0.00  0.00    +0.033 C 
ATOM      4  C   UNL     1      -0.729   1.924   1.826  0.00  0.00    +0.106 C 
ATOM      5  C   UNL     1      -2.119   1.599   2.321  0.00  0.00    -0.026 C 
ATOM      6  C   UNL     1      -2.185   0.273   2.457  0.00  0.00    +0.096 C 
ATOM      7  C   UNL     1      -0.897  -0.327   2.077  0.00  0.00    +0.265 C 
ATOM      8  O   UNL     1      -0.649  -1.517   2.096  0.00  0.00    -0.268 OA
ATOM      9  N   UNL     1      -0.034   0.636   1.704  0.00  0.00    -0.260 N 
ATOM     10  C   UNL     1      -3.223   2.586   2.606  0.00  0.00    +0.043 C 
BRANCH   9  11
ATOM     11  C   UNL     1       1.285   0.446   1.278  0.00  0.00    +0.037 A 
ATOM     12  C   UNL     1       2.064   1.537   0.916  0.00  0.00    +0.023 A 
ATOM     13  C   UNL     1       3.367   1.346   0.500  0.00  0.00    +0.002 A 
ATOM     14  C   UNL     1       3.893   0.069   0.434  0.00  0.00    +0.000 A 
ATOM     15  C   UNL     1       3.118  -1.021   0.789  0.00  0.00    +0.002 A 
ATOM     16  C   UNL     1       1.816  -0.836   1.210  0.00  0.00    +0.023 A 
ENDBRANCH   9  11
ENDBRANCH   1   6
BRANCH   1  17
ATOM     17  C   UNL     1      -3.227  -1.219   3.991  0.00  0.00    +0.141 C 
ATOM     18  S   UNL     1      -1.789  -1.243   4.920  0.00  0.00    -0.018 S 
BRANCH  17  19
ATOM     19  N   UNL     1      -4.277  -1.981   4.356  0.00  0.00    -0.267 N 
ATOM     20  C   UNL     1      -4.196  -2.761   5.452  0.00  0.00    +0.225 C 
ATOM     21  O   UNL     1      -3.178  -2.778   6.109  0.00  0.00    -0.275 OA
ATOM     22  H   UNL     1      -5.092  -1.968   3.829  0.00  0.00    +0.157 HD
BRANCH  20  23
ATOM     23  C   UNL     1      -5.370  -3.613   5.859  0.00  0.00    +0.048 C 
ATOM     24  C   UNL     1      -5.706  -4.592   4.732  0.00  0.00    +0.019 C 
ATOM     25  C   UNL     1      -6.898  -5.457   5.146  0.00  0.00    -0.009 C 
ATOM     26  C   UNL     1      -6.546  -6.238   6.413  0.00  0.00    +0.007 C 
ATOM     27  C   UNL     1      -6.211  -5.259   7.540  0.00  0.00    -0.009 C 
ATOM     28  C   UNL     1      -5.018  -4.394   7.126  0.00  0.00    +0.019 C 
ATOM     29  C   UNL     1      -7.420  -4.363   7.814  0.00  0.00    +0.007 C 
ATOM     30  C   UNL     1      -7.772  -3.581   6.547  0.00  0.00    -0.009 C 
ATOM     31  C   UNL     1      -8.108  -4.560   5.420  0.00  0.00    +0.007 C 
ATOM     32  C   UNL     1      -6.580  -2.716   6.133  0.00  0.00    +0.019 C 
ENDBRANCH  20  23
ENDBRANCH  17  19
ENDBRANCH   1  17
TORSDOF 5
