REMARK  Name = ZINC39993706
REMARK  6 active torsions:
REMARK  status: ('A' for Active; 'I' for Inactive)
REMARK    1  A    between atoms: C_8  and  N_26
REMARK    2  A    between atoms: C_9  and  C_12
REMARK    3  A    between atoms: C_13  and  C_14
REMARK    4  A    between atoms: C_13  and  C_16
REMARK    5  A    between atoms: N_18  and  C_19
REMARK    6  A    between atoms: C_29  and  C_32
REMARK                            x       y       z     vdW  Elec       q    Type
REMARK                         _______ _______ _______ _____ _____    ______ ____
ROOT
ATOM      1  C   UNL     1       0.202   1.425   0.687  0.00  0.00    +0.005 A 
ATOM      2  C   UNL     1       1.387   2.109   0.384  0.00  0.00    +0.018 A 
ATOM      3  C   UNL     1       2.503   1.418   0.057  0.00  0.00    +0.096 A 
ATOM      4  N   UNL     1       2.495   0.056   0.018  0.00  0.00    -0.268 N 
ATOM      5  C   UNL     1       1.354  -0.638   0.309  0.00  0.00    +0.142 A 
ATOM      6  C   UNL     1       0.184   0.062   0.650  0.00  0.00    +0.047 A 
ATOM      7  N   UNL     1       1.325  -1.972   0.278  0.00  0.00    -0.214 NA
ATOM      8  C   UNL     1       2.396  -2.684  -0.037  0.00  0.00    +0.136 A 
ATOM      9  C   UNL     1       3.609  -2.020  -0.350  0.00  0.00    +0.081 A 
ATOM     10  C   UNL     1       3.627  -0.601  -0.312  0.00  0.00    +0.267 A 
ATOM     11  O   UNL     1       4.647   0.013  -0.573  0.00  0.00    -0.267 OA
ENDROOT
BRANCH   8  12
ATOM     12  N   UNL     1       2.332  -4.059  -0.059  0.00  0.00    -0.314 N 
ATOM     13  C   UNL     1       3.441  -4.868   0.463  0.00  0.00    +0.107 C 
ATOM     14  C   UNL     1       2.888  -5.853   1.498  0.00  0.00    +0.031 C 
ATOM     15  C   UNL     1       1.756  -6.668   0.868  0.00  0.00    +0.078 C 
ATOM     16  C   UNL     1       0.625  -5.730   0.441  0.00  0.00    +0.031 C 
ATOM     17  C   UNL     1       1.150  -4.744  -0.601  0.00  0.00    +0.107 C 
BRANCH  15  18
ATOM     18  C   UNL     1       1.233  -7.661   1.873  0.00  0.00    +0.214 C 
ATOM     19  O   UNL     1       1.716  -7.712   2.984  0.00  0.00    -0.276 OA
ATOM     20  N   UNL     1       0.227  -8.493   1.537  0.00  0.00    -0.329 N 
ATOM     21  H   UNL     1      -0.160  -8.453   0.648  0.00  0.00    +0.145 HD
ATOM     22  H   UNL     1      -0.110  -9.132   2.184  0.00  0.00    +0.145 HD
ENDBRANCH  15  18
ENDBRANCH   8  12
BRANCH   9  23
ATOM     23  C   UNL     1       4.763  -2.747  -0.688  0.00  0.00    +0.040 C 
ATOM     24  C   UNL     1       5.885  -2.689   0.130  0.00  0.00    +0.114 C 
BRANCH  24  25
ATOM     25  C   UNL     1       7.127  -3.349  -0.283  0.00  0.00    +0.259 C 
ATOM     26  O   UNL     1       7.176  -3.948  -1.341  0.00  0.00    -0.269 OA
ATOM     27  N   UNL     1       8.215  -3.293   0.511  0.00  0.00    -0.281 N 
ATOM     28  H   UNL     1       8.198  -2.760   1.321  0.00  0.00    +0.155 HD
BRANCH  27  29
ATOM     29  C   UNL     1       9.370  -4.004   0.166  0.00  0.00    +0.034 A 
ATOM     30  C   UNL     1      10.157  -4.576   1.157  0.00  0.00    +0.025 A 
ATOM     31  C   UNL     1      11.296  -5.277   0.813  0.00  0.00    +0.022 A 
ATOM     32  C   UNL     1      11.654  -5.409  -0.517  0.00  0.00    +0.041 A 
ATOM     33  C   UNL     1      10.872  -4.839  -1.506  0.00  0.00    +0.022 A 
ATOM     34  C   UNL     1       9.729  -4.143  -1.169  0.00  0.00    +0.025 A 
ATOM     35 CL   UNL     1      13.087  -6.290  -0.945  0.00  0.00    -0.084 Cl
ENDBRANCH  27  29
ENDBRANCH  24  25
BRANCH  24  36
ATOM     36  C   UNL     1       5.827  -1.985   1.375  0.00  0.00    +0.104 C 
ATOM     37  N   UNL     1       5.781  -1.427   2.363  0.00  0.00    -0.191 NA
ENDBRANCH  24  36
ENDBRANCH   9  23
TORSDOF 6
