REMARK  Name = ZINC40730537
REMARK  9 active torsions:
REMARK  status: ('A' for Active; 'I' for Inactive)
REMARK    1  A    between atoms: C_1  and  C_2
REMARK    2  A    between atoms: C_2  and  C_3
REMARK    3  A    between atoms: C_2  and  O_4
REMARK    4  A    between atoms: O_4  and  C_5
REMARK    5  A    between atoms: C_8  and  C_12
REMARK    6  A    between atoms: C_12  and  N_13
REMARK    7  A    between atoms: N_13  and  C_14
REMARK    8  A    between atoms: C_14  and  C_15
REMARK    9  A    between atoms: C_15  and  C_16
REMARK                            x       y       z     vdW  Elec       q    Type
REMARK                         _______ _______ _______ _____ _____    ______ ____
ROOT
ATOM      1  C   UNL     1       2.014  -0.653  -1.086  0.00  0.00    +0.149 A 
ATOM      2  C   UNL     1       2.883   0.390  -1.378  0.00  0.00    +0.061 A 
ATOM      3  C   UNL     1       4.248   0.196  -1.287  0.00  0.00    +0.024 A 
ATOM      4  C   UNL     1       4.750  -1.036  -0.906  0.00  0.00    -0.031 A 
ATOM      5  C   UNL     1       3.887  -2.076  -0.616  0.00  0.00    +0.024 A 
ATOM      6  C   UNL     1       2.520  -1.886  -0.699  0.00  0.00    +0.061 A 
ATOM      7 BR   UNL     1       1.340  -3.307  -0.293  0.00  0.00    -0.046 Br
ATOM      8 BR   UNL     1       2.199   2.073  -1.899  0.00  0.00    -0.046 Br
ENDROOT
BRANCH   1   9
ATOM      9  O   UNL     1       0.671  -0.465  -1.174  0.00  0.00    -0.487 OA
BRANCH   9  11
ATOM     10  C   UNL     1      -0.019   1.526   0.010  0.00  0.00    +0.051 C 
ATOM     11  C   UNL     1       0.002  -0.004   0.002  0.00  0.00    +0.167 C 
ATOM     12  C   UNL     1      -1.433  -0.534   0.013  0.00  0.00    +0.051 C 
ENDBRANCH   9  11
ENDBRANCH   1   9
BRANCH   4  13
ATOM     13  C   UNL     1       6.239  -1.244  -0.809  0.00  0.00    +0.116 C 
BRANCH  13  14
ATOM     14  N   UNL     1       6.691  -0.914   0.549  0.00  0.00    -0.312 NA
ATOM     15  H   UNL     1       6.427   0.026   0.800  0.00  0.00    +0.122 HD
BRANCH  14  16
ATOM     16  C   UNL     1       8.142  -1.106   0.682  0.00  0.00    +0.086 C 
BRANCH  16  17
ATOM     17  C   UNL     1       8.575  -0.754   2.106  0.00  0.00    +0.050 C 
BRANCH  17  18
ATOM     18  C   UNL     1      10.063  -0.950   2.242  0.00  0.00    -0.046 A 
ATOM     19  C   UNL     1      10.564  -2.178   2.635  0.00  0.00    +0.006 A 
ATOM     20  C   UNL     1      11.929  -2.359   2.759  0.00  0.00    +0.038 A 
ATOM     21  C   UNL     1      12.793  -1.312   2.490  0.00  0.00    +0.123 A 
ATOM     22  C   UNL     1      12.290  -0.083   2.097  0.00  0.00    +0.038 A 
ATOM     23  C   UNL     1      10.926   0.095   1.968  0.00  0.00    +0.006 A 
ATOM     24  F   UNL     1      14.127  -1.488   2.612  0.00  0.00    -0.205 F 
ENDBRANCH  17  18
ENDBRANCH  16  17
ENDBRANCH  14  16
ENDBRANCH  13  14
ENDBRANCH   4  13
TORSDOF 7
