REMARK  Name = ZINC17159139
REMARK  7 active torsions:
REMARK  status: ('A' for Active; 'I' for Inactive)
REMARK    1  A    between atoms: C_1  and  C_2
REMARK    2  A    between atoms: C_2  and  C_4
REMARK    3  A    between atoms: C_2  and  N_20
REMARK    4  A    between atoms: N_6  and  N_7
REMARK    5  A    between atoms: C_8  and  C_10
REMARK    6  A    between atoms: N_20  and  S_21
REMARK    7  A    between atoms: S_21  and  C_24
REMARK                            x       y       z     vdW  Elec       q    Type
REMARK                         _______ _______ _______ _____ _____    ______ ____
ROOT
ATOM      1  C   UNL     1      -2.841   3.429  -1.701  0.00  0.00    +0.247 C 
ATOM      2  O   UNL     1      -3.490   2.422  -1.887  0.00  0.00    -0.273 OA
ATOM      3  N   UNL     1      -3.417   4.639  -1.850  0.00  0.00    -0.233 N 
ATOM      4  H   UNL     1      -2.897   5.445  -1.702  0.00  0.00    +0.173 HD
ENDROOT
BRANCH   3   5
ATOM      5  N   UNL     1      -4.765   4.733  -2.219  0.00  0.00    -0.234 N 
ATOM      6  C   UNL     1      -5.340   5.942  -2.368  0.00  0.00    +0.235 C 
ATOM      7  O   UNL     1      -4.691   6.950  -2.182  0.00  0.00    -0.274 OA
ATOM      8  H   UNL     1      -5.284   3.927  -2.368  0.00  0.00    +0.173 HD
BRANCH   6   9
ATOM      9  C   UNL     1      -6.791   6.043  -2.764  0.00  0.00    +0.049 C 
ATOM     10  C   UNL     1      -6.997   5.367  -4.121  0.00  0.00    +0.019 C 
ATOM     11  C   UNL     1      -8.469   5.469  -4.524  0.00  0.00    -0.009 C 
ATOM     12  C   UNL     1      -8.870   6.942  -4.623  0.00  0.00    +0.007 C 
ATOM     13  C   UNL     1      -8.664   7.619  -3.266  0.00  0.00    -0.009 C 
ATOM     14  C   UNL     1      -7.191   7.516  -2.863  0.00  0.00    +0.019 C 
ATOM     15  C   UNL     1      -9.530   6.924  -2.213  0.00  0.00    +0.007 C 
ATOM     16  C   UNL     1      -9.130   5.451  -2.115  0.00  0.00    -0.009 C 
ATOM     17  C   UNL     1      -9.335   4.774  -3.472  0.00  0.00    +0.007 C 
ATOM     18  C   UNL     1      -7.657   5.348  -1.712  0.00  0.00    +0.019 C 
ENDBRANCH   6   9
ENDBRANCH   3   5
BRANCH   1  20
ATOM     19  C   UNL     1      -0.525   4.023  -2.357  0.00  0.00    +0.035 C 
ATOM     20  C   UNL     1      -1.391   3.329  -1.305  0.00  0.00    +0.160 C 
BRANCH  20  21
ATOM     21  N   UNL     1      -1.007   1.918  -1.210  0.00  0.00    -0.178 NA
ATOM     22  H   UNL     1      -1.374   1.273  -1.834  0.00  0.00    +0.149 HD
BRANCH  21  23
ATOM     23  S   UNL     1       0.053   1.425  -0.037  0.00  0.00    +0.062 S 
ATOM     24  O   UNL     1      -0.409   1.980   1.187  0.00  0.00    -0.153 OA
ATOM     25  O   UNL     1       0.238   0.028  -0.219  0.00  0.00    -0.153 OA
BRANCH  23  26
ATOM     26  C   UNL     1       1.603   2.188  -0.383  0.00  0.00    +0.140 A 
ATOM     27  C   UNL     1       2.128   3.117   0.496  0.00  0.00    +0.031 A 
ATOM     28  C   UNL     1       3.347   3.711   0.228  0.00  0.00    +0.002 A 
ATOM     29  C   UNL     1       4.037   3.385  -0.925  0.00  0.00    +0.003 A 
ATOM     30  C   UNL     1       3.512   2.461  -1.808  0.00  0.00    +0.040 A 
ATOM     31  C   UNL     1       2.294   1.861  -1.537  0.00  0.00    +0.150 A 
ATOM     32  F   UNL     1       1.779   0.957  -2.400  0.00  0.00    -0.203 F 
ENDBRANCH  23  26
ENDBRANCH  21  23
ENDBRANCH  20  21
ENDBRANCH   1  20
TORSDOF 6
