REMARK  Name = ZINC36156925
REMARK  11 active torsions:
REMARK  status: ('A' for Active; 'I' for Inactive)
REMARK    1  A    between atoms: C_2  and  C_3
REMARK    2  A    between atoms: C_3  and  O_4
REMARK    3  A    between atoms: O_4  and  C_5
REMARK    4  A    between atoms: C_5  and  C_6
REMARK    5  A    between atoms: C_6  and  C_8
REMARK    6  A    between atoms: C_6  and  O_33
REMARK    7  A    between atoms: C_8  and  N_9
REMARK    8  A    between atoms: N_9  and  C_10
REMARK    9  A    between atoms: N_9  and  C_17
REMARK   10  A    between atoms: C_10  and  C_11
REMARK   11  A    between atoms: C_17  and  C_18
REMARK                            x       y       z     vdW  Elec       q    Type
REMARK                         _______ _______ _______ _____ _____    ______ ____
ROOT
ATOM      1  N   UNL     1       4.490   5.823   0.262  0.00  0.00    +0.389 N 
ATOM      2  H   UNL     1       5.017   5.566  -0.559  0.00  0.00    -0.081 HD
ENDROOT
BRANCH   1   3
ATOM      3  C   UNL     1       3.072   5.503   0.055  0.00  0.00    -0.044 C 
BRANCH   3   4
ATOM      4  C   UNL     1       2.934   4.032  -0.344  0.00  0.00    +0.124 C 
BRANCH   4   5
ATOM      5  O   UNL     1       3.614   3.808  -1.581  0.00  0.00    -0.391 OA
ATOM      6  H   UNL     1       3.275   4.336  -2.317  0.00  0.00    +0.210 HD
ENDBRANCH   4   5
BRANCH   4   7
ATOM      7  C   UNL     1       1.453   3.684  -0.506  0.00  0.00    +0.190 C 
BRANCH   7   8
ATOM      8  O   UNL     1       1.318   2.285  -0.764  0.00  0.00    -0.365 OA
BRANCH   8   9
ATOM      9  C   UNL     1      -0.034   1.853  -0.932  0.00  0.00    +0.248 C 
BRANCH   9  11
ATOM     10  C   UNL     1      -0.076  -0.751  -1.398  0.00  0.00    +0.006 C 
ATOM     11  C   UNL     1      -0.058   0.404  -1.191  0.00  0.00    -0.077 C 
ENDBRANCH   9  11
ENDBRANCH   8   9
ENDBRANCH   7   8
ENDBRANCH   4   7
ENDBRANCH   3   4
ENDBRANCH   1   3
BRANCH   1  12
ATOM     12  C   UNL     1       4.997   5.075   1.421  0.00  0.00    -0.042 C 
BRANCH  12  13
ATOM     13  C   UNL     1       4.182   5.425   2.640  0.00  0.00    -0.064 A 
ATOM     14  C   UNL     1       4.549   6.496   3.433  0.00  0.00    +0.002 A 
ATOM     15  C   UNL     1       3.802   6.817   4.550  0.00  0.00    +0.000 A 
ATOM     16  C   UNL     1       2.687   6.067   4.875  0.00  0.00    +0.000 A 
ATOM     17  C   UNL     1       2.319   4.996   4.081  0.00  0.00    +0.000 A 
ATOM     18  C   UNL     1       3.064   4.678   2.961  0.00  0.00    +0.002 A 
ENDBRANCH  12  13
ENDBRANCH   1  12
BRANCH   1  19
ATOM     19  C   UNL     1       4.636   7.264   0.507  0.00  0.00    -0.003 C 
BRANCH  19  20
ATOM     20  C   UNL     1       6.100   7.612   0.598  0.00  0.00    +0.094 A 
ATOM     21  N   UNL     1       6.466   8.899   0.828  0.00  0.00    -0.312 N 
ATOM     22  H   UNL     1       5.780   9.577   0.931  0.00  0.00    +0.170 HD
ATOM     23  C   UNL     1       7.761   9.254   0.917  0.00  0.00    +0.260 A 
ATOM     24  O   UNL     1       8.073  10.414   1.124  0.00  0.00    -0.267 OA
ATOM     25  C   UNL     1       8.768   8.245   0.763  0.00  0.00    +0.075 A 
ATOM     26  C   UNL     1      10.221   8.396   0.819  0.00  0.00    -0.023 A 
ATOM     27  C   UNL     1      10.959   7.279   0.642  0.00  0.00    -0.004 A 
ATOM     28  S   UNL     1       9.778   5.981   0.395  0.00  0.00    -0.073 S 
ATOM     29  C   UNL     1       8.293   6.945   0.529  0.00  0.00    +0.116 A 
ATOM     30  N   UNL     1       6.994   6.670   0.460  0.00  0.00    -0.229 NA
ATOM     31  C   UNL     1      12.453   7.168   0.652  0.00  0.00    +0.043 C 
ATOM     32  C   UNL     1      13.045   8.580   0.524  0.00  0.00    +0.005 C 
ATOM     33  C   UNL     1      12.333   9.502   1.518  0.00  0.00    +0.005 C 
ATOM     34  C   UNL     1      10.893   9.744   1.064  0.00  0.00    +0.037 C 
ENDBRANCH  19  20
ENDBRANCH   1  19
TORSDOF 11
