REMARK  Name = ZINC36347924
REMARK  7 active torsions:
REMARK  status: ('A' for Active; 'I' for Inactive)
REMARK    1  A    between atoms: C_1  and  O_2
REMARK    2  A    between atoms: O_2  and  C_3
REMARK    3  A    between atoms: C_6  and  O_27
REMARK    4  A    between atoms: C_7  and  C_9
REMARK    5  A    between atoms: C_9  and  N_10
REMARK    6  A    between atoms: C_19  and  C_21
REMARK    7  A    between atoms: O_27  and  C_28
REMARK                            x       y       z     vdW  Elec       q    Type
REMARK                         _______ _______ _______ _____ _____    ______ ____
ROOT
ATOM      1  N   UNL     1      -2.864  -4.663  -1.291  0.00  0.00    +0.391 N 
ATOM      2  C   UNL     1      -4.243  -4.353  -1.675  0.00  0.00    -0.075 C 
ATOM      3  C   UNL     1      -4.504  -4.723  -3.129  0.00  0.00    +0.003 C 
ATOM      4  C   UNL     1      -3.234  -4.501  -3.956  0.00  0.00    +0.119 C 
ATOM      5  N   UNL     1      -2.420  -5.722  -3.916  0.00  0.00    -0.352 N 
ATOM      6  C   UNL     1      -1.824  -6.330  -4.979  0.00  0.00    +0.086 A 
ATOM      7  C   UNL     1      -1.155  -7.410  -4.525  0.00  0.00    +0.019 A 
ATOM      8  C   UNL     1      -1.351  -7.473  -3.131  0.00  0.00    +0.021 A 
ATOM      9  C   UNL     1      -2.134  -6.433  -2.786  0.00  0.00    +0.009 A 
ATOM     10  C   UNL     1      -2.626  -6.109  -1.396  0.00  0.00    +0.011 C 
ATOM     11  H   UNL     1      -2.229  -4.174  -1.903  0.00  0.00    -0.080 HD
ENDROOT
BRANCH  10  12
ATOM     12  C   UNL     1      -1.587  -6.523  -0.386  0.00  0.00    -0.055 A 
ATOM     13  C   UNL     1      -1.888  -7.481   0.563  0.00  0.00    +0.002 A 
ATOM     14  C   UNL     1      -0.935  -7.861   1.489  0.00  0.00    +0.000 A 
ATOM     15  C   UNL     1       0.320  -7.282   1.467  0.00  0.00    +0.000 A 
ATOM     16  C   UNL     1       0.622  -6.323   0.517  0.00  0.00    +0.000 A 
ATOM     17  C   UNL     1      -0.330  -5.947  -0.412  0.00  0.00    +0.002 A 
ENDBRANCH  10  12
BRANCH   1  18
ATOM     18  C   UNL     1      -2.635  -4.231   0.095  0.00  0.00    -0.038 C 
BRANCH  18  23
ATOM     19  C   UNL     1      -1.850  -0.540   0.289  0.00  0.00    +0.121 A 
ATOM     20  C   UNL     1      -3.121   0.011   0.363  0.00  0.00    +0.049 A 
ATOM     21  C   UNL     1      -4.231  -0.811   0.352  0.00  0.00    +0.049 A 
ATOM     22  C   UNL     1      -4.075  -2.186   0.265  0.00  0.00    +0.122 A 
ATOM     23  C   UNL     1      -2.805  -2.737   0.189  0.00  0.00    -0.019 A 
ATOM     24  C   UNL     1      -1.694  -1.915   0.196  0.00  0.00    +0.051 A 
BRANCH  19  26
ATOM     25  C   UNL     1      -0.992   1.675   0.398  0.00  0.00    +0.277 C 
ATOM     26  O   UNL     1      -0.757   0.269   0.301  0.00  0.00    -0.495 OA
ENDBRANCH  19  26
BRANCH  22  27
ATOM     27  O   UNL     1      -5.168  -2.995   0.253  0.00  0.00    -0.495 OA
ATOM     28  C   UNL     1      -6.446  -2.361   0.334  0.00  0.00    +0.277 C 
ENDBRANCH  22  27
ENDBRANCH  18  23
ENDBRANCH   1  18
TORSDOF 5
