REMARK  Name = ZINC12078267
REMARK  8 active torsions:
REMARK  status: ('A' for Active; 'I' for Inactive)
REMARK    1  A    between atoms: C_1  and  C_2
REMARK    2  A    between atoms: C_10  and  C_11
REMARK    3  A    between atoms: N_13  and  C_14
REMARK    4  A    between atoms: C_19  and  C_21
REMARK    5  A    between atoms: C_19  and  C_22
REMARK    6  A    between atoms: N_23  and  C_24
REMARK    7  A    between atoms: C_24  and  C_25
REMARK    8  A    between atoms: C_25  and  C_26
REMARK                            x       y       z     vdW  Elec       q    Type
REMARK                         _______ _______ _______ _____ _____    ______ ____
ROOT
ATOM      1  C   UNL     1       2.679   0.142   0.031  0.00  0.00    +0.046 C 
ATOM      2  C   UNL     1       2.415   1.626   0.036  0.00  0.00    -0.019 A 
ATOM      3  C   UNL     1       1.138   2.113  -0.273  0.00  0.00    +0.051 A 
ATOM      4  C   UNL     1      -0.045   1.391  -0.617  0.00  0.00    +0.130 A 
ATOM      5  N   UNL     1      -1.155   2.061  -0.877  0.00  0.00    -0.220 NA
ATOM      6  C   UNL     1      -1.214   3.379  -0.821  0.00  0.00    +0.224 A 
ATOM      7  N   UNL     1      -0.156   4.103  -0.510  0.00  0.00    -0.228 NA
ATOM      8  C   UNL     1       0.995   3.522  -0.240  0.00  0.00    +0.114 A 
ATOM      9  S   UNL     1       2.615   4.086   0.210  0.00  0.00    -0.064 S 
ATOM     10  C   UNL     1       3.417   2.496   0.339  0.00  0.00    +0.079 A 
ATOM     11  N   UNL     1      -0.029   0.013  -0.682  0.00  0.00    -0.328 N 
ATOM     12  H   UNL     1       0.808  -0.467  -0.583  0.00  0.00    +0.147 HD
ENDROOT
BRANCH  10  13
ATOM     13  C   UNL     1       4.812   2.200   0.688  0.00  0.00    +0.251 C 
ATOM     14  O   UNL     1       5.196   1.046   0.731  0.00  0.00    -0.270 OA
ATOM     15  N   UNL     1       5.666   3.206   0.960  0.00  0.00    -0.308 N 
ATOM     16  H   UNL     1       5.360   4.126   0.926  0.00  0.00    +0.149 HD
BRANCH  15  17
ATOM     17  C   UNL     1       7.058   2.911   1.308  0.00  0.00    +0.078 C 
ATOM     18  C   UNL     1       7.160   2.615   2.807  0.00  0.00    +0.050 C 
ATOM     19  C   UNL     1       8.629   2.385   3.175  0.00  0.00    +0.162 C 
ATOM     20  O   UNL     1       9.395   3.536   2.812  0.00  0.00    -0.374 OA
ATOM     21  C   UNL     1       9.375   3.832   1.414  0.00  0.00    +0.066 C 
ATOM     22  C   UNL     1       7.937   4.120   0.975  0.00  0.00    +0.056 C 
ATOM     23  C   UNL     1      10.248   5.059   1.141  0.00  0.00    +0.041 C 
ATOM     24  C   UNL     1       9.918   2.635   0.631  0.00  0.00    +0.041 C 
ENDBRANCH  15  17
ENDBRANCH  10  13
BRANCH  11  25
ATOM     25  C   UNL     1      -1.275  -0.725  -0.899  0.00  0.00    +0.107 C 
BRANCH  25  26
ATOM     26  C   UNL     1      -0.981  -2.226  -0.930  0.00  0.00    +0.056 C 
BRANCH  26  27
ATOM     27  C   UNL     1      -2.263  -2.985  -1.153  0.00  0.00    -0.021 A 
ATOM     28  C   UNL     1      -3.050  -3.520  -0.206  0.00  0.00    +0.087 A 
ATOM     29  N   UNL     1      -4.128  -4.132  -0.786  0.00  0.00    -0.360 N 
ATOM     30  H   UNL     1      -4.835  -4.589  -0.304  0.00  0.00    +0.165 HD
ATOM     31  C   UNL     1      -4.059  -4.003  -2.155  0.00  0.00    +0.047 A 
ATOM     32  C   UNL     1      -2.891  -3.273  -2.445  0.00  0.00    +0.003 A 
ATOM     33  C   UNL     1      -2.562  -2.983  -3.770  0.00  0.00    +0.010 A 
ATOM     34  C   UNL     1      -3.380  -3.405  -4.780  0.00  0.00    +0.001 A 
ATOM     35  C   UNL     1      -4.535  -4.122  -4.500  0.00  0.00    +0.002 A 
ATOM     36  C   UNL     1      -4.874  -4.427  -3.199  0.00  0.00    +0.026 A 
ENDBRANCH  26  27
ENDBRANCH  25  26
ENDBRANCH  11  25
TORSDOF 5
