REMARK  Name = ZINC09886467
REMARK  12 active torsions:
REMARK  status: ('A' for Active; 'I' for Inactive)
REMARK    1  A    between atoms: C_1  and  C_2
REMARK    2  A    between atoms: C_5  and  C_8
REMARK    3  A    between atoms: C_8  and  N_9
REMARK    4  A    between atoms: C_10  and  C_38
REMARK    5  A    between atoms: C_11  and  C_18
REMARK    6  A    between atoms: N_19  and  N_20
REMARK    7  A    between atoms: C_21  and  C_23
REMARK    8  A    between atoms: C_23  and  C_25
REMARK    9  A    between atoms: C_23  and  N_28
REMARK   10  A    between atoms: C_25  and  C_26
REMARK   11  A    between atoms: C_25  and  C_27
REMARK   12  A    between atoms: C_29  and  C_31
REMARK                            x       y       z     vdW  Elec       q    Type
REMARK                         _______ _______ _______ _____ _____    ______ ____
ROOT
ATOM      1  C   UNL     1      -4.762  -2.143  -0.073  0.00  0.00    +0.140 C 
ATOM      2  N   UNL     1      -4.676  -1.128   0.733  0.00  0.00    -0.188 NA
ENDROOT
BRANCH   1   5
ATOM      3  N   UNL     1      -2.529  -5.034  -0.171  0.00  0.00    -0.339 N 
ATOM      4  C   UNL     1      -3.763  -4.469  -0.049  0.00  0.00    +0.026 A 
ATOM      5  C   UNL     1      -3.661  -3.117  -0.150  0.00  0.00    +0.023 A 
ATOM      6  C   UNL     1      -2.233  -2.817  -0.359  0.00  0.00    +0.009 A 
ATOM      7  C   UNL     1      -1.573  -4.057  -0.357  0.00  0.00    +0.050 A 
ATOM      8  C   UNL     1      -0.194  -4.096  -0.532  0.00  0.00    +0.026 A 
ATOM      9  C   UNL     1       0.511  -2.925  -0.699  0.00  0.00    +0.002 A 
ATOM     10  C   UNL     1      -0.141  -1.700  -0.695  0.00  0.00    +0.001 A 
ATOM     11  C   UNL     1      -1.506  -1.640  -0.524  0.00  0.00    +0.010 A 
ATOM     12  C   UNL     1      -5.047  -5.229   0.165  0.00  0.00    +0.064 C 
BRANCH   3  13
ATOM     13  C   UNL     1      -2.256  -6.472  -0.112  0.00  0.00    +0.157 C 
BRANCH  13  18
ATOM     14  C   UNL     1      -2.588  -8.716  -5.427  0.00  0.00    +0.044 C 
ATOM     15  C   UNL     1      -2.501  -8.131  -4.040  0.00  0.00    -0.050 A 
ATOM     16  C   UNL     1      -1.295  -7.648  -3.568  0.00  0.00    +0.004 A 
ATOM     17  C   UNL     1      -1.216  -7.111  -2.297  0.00  0.00    +0.005 A 
ATOM     18  C   UNL     1      -2.342  -7.057  -1.498  0.00  0.00    -0.028 A 
ATOM     19  C   UNL     1      -3.547  -7.545  -1.968  0.00  0.00    +0.005 A 
ATOM     20  C   UNL     1      -3.628  -8.079  -3.241  0.00  0.00    +0.004 A 
ENDBRANCH  13  18
ENDBRANCH   3  13
ENDBRANCH   1   5
BRANCH   2  21
ATOM     21  N   UNL     1      -3.573  -1.004   1.589  0.00  0.00    -0.205 N 
ATOM     22  C   UNL     1      -3.524   0.003   2.482  0.00  0.00    +0.253 C 
ATOM     23  O   UNL     1      -4.406   0.836   2.508  0.00  0.00    -0.272 OA
ATOM     24  H   UNL     1      -2.846  -1.644   1.538  0.00  0.00    +0.177 HD
BRANCH  22  25
ATOM     25  C   UNL     1      -2.372   0.096   3.450  0.00  0.00    +0.163 C 
BRANCH  25  26
ATOM     26  N   UNL     1      -2.391   1.405   4.108  0.00  0.00    -0.300 N 
ATOM     27  C   UNL     1      -1.252   1.925   4.605  0.00  0.00    +0.245 C 
ATOM     28  O   UNL     1      -0.208   1.308   4.509  0.00  0.00    -0.270 OA
ATOM     29  H   UNL     1      -3.223   1.897   4.185  0.00  0.00    +0.150 HD
BRANCH  27  30
ATOM     30  C   UNL     1      -1.270   3.245   5.269  0.00  0.00    +0.037 A 
ATOM     31  C   UNL     1      -2.466   3.959   5.376  0.00  0.00    +0.014 A 
ATOM     32  C   UNL     1      -2.478   5.188   6.002  0.00  0.00    +0.021 A 
ATOM     33  C   UNL     1      -1.305   5.720   6.512  0.00  0.00    +0.041 A 
ATOM     34  C   UNL     1      -0.115   5.020   6.403  0.00  0.00    +0.021 A 
ATOM     35  C   UNL     1      -0.091   3.787   5.785  0.00  0.00    +0.014 A 
ATOM     36 CL   UNL     1      -1.327   7.271   7.291  0.00  0.00    -0.084 Cl
ENDBRANCH  27  30
ENDBRANCH  25  26
BRANCH  25  37
ATOM     37  C   UNL     1      -2.502  -1.006   4.504  0.00  0.00    +0.012 C 
ATOM     38  C   UNL     1      -2.346  -2.373   3.835  0.00  0.00    +0.009 C 
ATOM     39  C   UNL     1      -1.412  -0.830   5.563  0.00  0.00    +0.009 C 
ENDBRANCH  25  37
ENDBRANCH  22  25
ENDBRANCH   2  21
TORSDOF 8
