REMARK  Name = ZINC40916336
REMARK  7 active torsions:
REMARK  status: ('A' for Active; 'I' for Inactive)
REMARK    1  A    between atoms: C_1  and  C_2
REMARK    2  A    between atoms: C_5  and  C_8
REMARK    3  A    between atoms: C_8  and  O_9
REMARK    4  A    between atoms: O_9  and  C_10
REMARK    5  A    between atoms: C_14  and  C_16
REMARK    6  A    between atoms: C_21  and  C_25
REMARK    7  A    between atoms: C_21  and  C_26
REMARK                            x       y       z     vdW  Elec       q    Type
REMARK                         _______ _______ _______ _____ _____    ______ ____
ROOT
ATOM      1  C   UNL     1       4.491  -8.522  -0.058  0.00  0.00    +0.176 C 
ATOM      2  C   UNL     1       4.695  -9.374   1.175  0.00  0.00    +0.041 C 
ATOM      3  C   UNL     1       4.732 -10.723   1.118  0.00  0.00    +0.020 C 
ATOM      4  C   UNL     1       4.919 -11.548   2.369  0.00  0.00    +0.058 C 
ATOM      5  C   UNL     1       5.776 -10.774   3.372  0.00  0.00    -0.023 C 
ATOM      6  C   UNL     1       5.073  -9.448   3.685  0.00  0.00    +0.086 C 
ATOM      7  C   UNL     1       4.847  -8.700   2.401  0.00  0.00    +0.164 C 
ATOM      8  O   UNL     1       4.795  -7.487   2.422  0.00  0.00    -0.292 OA
ATOM      9  C   UNL     1       7.154 -10.496   2.768  0.00  0.00    +0.011 C 
ATOM     10  C   UNL     1       5.931 -11.591   4.657  0.00  0.00    +0.011 C 
ATOM     11  N   UNL     1       4.609 -11.401  -0.071  0.00  0.00    -0.287 N 
ATOM     12  C   UNL     1       4.735 -10.681  -1.248  0.00  0.00    +0.218 A 
ATOM     13  N   UNL     1       4.686  -9.327  -1.256  0.00  0.00    -0.221 N 
ATOM     14  N   UNL     1       4.851  -8.936  -2.584  0.00  0.00    -0.156 NA
ATOM     15  C   UNL     1       4.982 -10.034  -3.288  0.00  0.00    +0.247 A 
ATOM     16  N   UNL     1       4.910 -11.086  -2.476  0.00  0.00    -0.201 NA
ATOM     17  H   UNL     1       4.438 -12.355  -0.086  0.00  0.00    +0.155 HD
ENDROOT
BRANCH   1  22
ATOM     18  C   UNL     1       1.608  -6.079  -0.040  0.00  0.00    +0.121 A 
ATOM     19  C   UNL     1       0.520  -6.939  -0.044  0.00  0.00    +0.045 A 
ATOM     20  C   UNL     1       0.721  -8.306  -0.053  0.00  0.00    +0.004 A 
ATOM     21  C   UNL     1       2.006  -8.817  -0.058  0.00  0.00    +0.006 A 
ATOM     22  C   UNL     1       3.092  -7.962  -0.053  0.00  0.00    -0.015 A 
ATOM     23  C   UNL     1       2.896  -6.594  -0.050  0.00  0.00    +0.051 A 
BRANCH  18  24
ATOM     24  O   UNL     1       1.413  -4.734  -0.032  0.00  0.00    -0.487 OA
BRANCH  24  25
ATOM     25  C   UNL     1       0.059  -4.275  -0.021  0.00  0.00    +0.264 C 
BRANCH  25  30
ATOM     26  C   UNL     1      -0.018   1.503   0.010  0.00  0.00    +0.044 C 
ATOM     27  C   UNL     1       0.002  -0.004   0.002  0.00  0.00    -0.050 A 
ATOM     28  C   UNL     1       0.006  -0.689  -1.199  0.00  0.00    +0.004 A 
ATOM     29  C   UNL     1       0.025  -2.071  -1.206  0.00  0.00    +0.007 A 
ATOM     30  C   UNL     1       0.040  -2.768  -0.013  0.00  0.00    -0.010 A 
ATOM     31  C   UNL     1       0.037  -2.084   1.188  0.00  0.00    +0.007 A 
ATOM     32  C   UNL     1       0.023  -0.702   1.195  0.00  0.00    +0.004 A 
ENDBRANCH  25  30
ENDBRANCH  24  25
ENDBRANCH  18  24
ENDBRANCH   1  22
TORSDOF 4
