REMARK  Name = ZINC39732683
REMARK  7 active torsions:
REMARK  status: ('A' for Active; 'I' for Inactive)
REMARK    1  A    between atoms: C_1  and  C_2
REMARK    2  A    between atoms: C_5  and  N_9
REMARK    3  A    between atoms: C_6  and  C_8
REMARK    4  A    between atoms: C_10  and  C_12
REMARK    5  A    between atoms: C_12  and  N_23
REMARK    6  A    between atoms: C_13  and  C_14
REMARK    7  A    between atoms: C_24  and  C_26
REMARK                            x       y       z     vdW  Elec       q    Type
REMARK                         _______ _______ _______ _____ _____    ______ ____
ROOT
ATOM      1  C   UNL     1      -0.429  -6.253  -1.192  0.00  0.00    +0.097 C 
ATOM      2  C   UNL     1      -0.271  -6.934  -0.005  0.00  0.00    +0.034 C 
ENDROOT
BRANCH   2   3
ATOM      3  C   UNL     1      -0.091  -6.227   1.188  0.00  0.00    -0.017 C 
ATOM      4  C   UNL     1       0.189  -6.755   2.447  0.00  0.00    +0.003 A 
ATOM      5  C   UNL     1       0.370  -8.077   2.909  0.00  0.00    +0.010 A 
ATOM      6  C   UNL     1       0.638  -8.300   4.220  0.00  0.00    +0.001 A 
ATOM      7  C   UNL     1       0.741  -7.250   5.138  0.00  0.00    +0.002 A 
ATOM      8  C   UNL     1       0.579  -5.958   4.767  0.00  0.00    +0.026 A 
ATOM      9  C   UNL     1       0.296  -5.643   3.409  0.00  0.00    +0.043 A 
ATOM     10  N   UNL     1       0.098  -4.492   2.806  0.00  0.00    -0.380 N 
ATOM     11  C   UNL     1      -0.153  -4.728   1.381  0.00  0.00    +0.149 C 
ATOM     12  H   UNL     1       0.120  -3.622   3.236  0.00  0.00    +0.160 HD
ENDBRANCH   2   3
BRANCH   1  14
ATOM     13  N   UNL     1      -1.294  -3.976  -0.967  0.00  0.00    -0.280 N 
ATOM     14  C   UNL     1      -0.252  -4.788  -1.232  0.00  0.00    +0.262 C 
ATOM     15  O   UNL     1       0.834  -4.314  -1.504  0.00  0.00    -0.268 OA
ATOM     16  H   UNL     1      -2.153  -4.354  -0.718  0.00  0.00    +0.155 HD
BRANCH  13  21
ATOM     17  C   UNL     1      -0.664   1.650  -1.311  0.00  0.00    +0.044 C 
ATOM     18  C   UNL     1      -0.832   0.155  -1.219  0.00  0.00    -0.050 A 
ATOM     19  C   UNL     1       0.276  -0.654  -1.039  0.00  0.00    +0.005 A 
ATOM     20  C   UNL     1       0.126  -2.024  -0.955  0.00  0.00    +0.024 A 
ATOM     21  C   UNL     1      -1.139  -2.590  -1.051  0.00  0.00    +0.037 A 
ATOM     22  C   UNL     1      -2.249  -1.775  -1.232  0.00  0.00    -0.029 A 
ATOM     23  C   UNL     1      -2.093  -0.405  -1.310  0.00  0.00    +0.008 A 
ATOM     24  C   UNL     1      -3.623  -2.384  -1.337  0.00  0.00    +0.045 C 
ENDBRANCH  13  21
ENDBRANCH   1  14
BRANCH   1  25
ATOM     25  N   UNL     1      -0.753  -6.942  -2.345  0.00  0.00    -0.277 N 
ATOM     26  C   UNL     1      -0.781  -6.298  -3.529  0.00  0.00    +0.248 C 
ATOM     27  O   UNL     1      -0.458  -5.128  -3.592  0.00  0.00    -0.270 OA
ATOM     28  H   UNL     1      -0.961  -7.889  -2.303  0.00  0.00    +0.155 HD
BRANCH  26  29
ATOM     29  C   UNL     1      -1.203  -7.015  -4.750  0.00  0.00    +0.037 A 
ATOM     30  C   UNL     1      -1.580  -8.358  -4.680  0.00  0.00    +0.013 A 
ATOM     31  C   UNL     1      -1.974  -9.021  -5.824  0.00  0.00    +0.001 A 
ATOM     32  C   UNL     1      -1.995  -8.359  -7.039  0.00  0.00    +0.000 A 
ATOM     33  C   UNL     1      -1.623  -7.029  -7.115  0.00  0.00    +0.001 A 
ATOM     34  C   UNL     1      -1.233  -6.352  -5.978  0.00  0.00    +0.013 A 
ENDBRANCH  26  29
ENDBRANCH   1  25
TORSDOF 5
