REMARK  Name = ZINC10646190
REMARK  5 active torsions:
REMARK  status: ('A' for Active; 'I' for Inactive)
REMARK    1  A    between atoms: C_3  and  O_10
REMARK    2  A    between atoms: C_4  and  C_8
REMARK    3  A    between atoms: O_10  and  C_11
REMARK    4  A    between atoms: C_11  and  C_12
REMARK    5  A    between atoms: N_17  and  C_18
REMARK                            x       y       z     vdW  Elec       q    Type
REMARK                         _______ _______ _______ _____ _____    ______ ____
ROOT
ATOM      1  C   UNL     1       3.712  -0.859  -0.039  0.00  0.00    +0.258 C 
ATOM      2  O   UNL     1       4.662  -0.105  -0.044  0.00  0.00    -0.272 OA
ATOM      3  N   UNL     1       3.909  -2.192  -0.049  0.00  0.00    -0.237 N 
ATOM      4  C   UNL     1       5.162  -2.688  -0.064  0.00  0.00    +0.306 C 
ATOM      5  O   UNL     1       6.115  -1.933  -0.069  0.00  0.00    -0.252 OA
ATOM      6  N   UNL     1       5.359  -4.021  -0.073  0.00  0.00    -0.294 N 
ATOM      7  H   UNL     1       3.149  -2.794  -0.045  0.00  0.00    +0.159 HD
ATOM      8  H   UNL     1       4.599  -4.624  -0.070  0.00  0.00    +0.151 HD
ENDROOT
BRANCH   6   9
ATOM      9  C   UNL     1       6.721  -4.560  -0.090  0.00  0.00    +0.037 C 
ATOM     10  C   UNL     1       7.449  -4.070  -1.343  0.00  0.00    +0.029 C 
ATOM     11  C   UNL     1       8.871  -4.633  -1.361  0.00  0.00    -0.008 C 
ATOM     12  C   UNL     1       8.815  -6.162  -1.369  0.00  0.00    +0.007 C 
ATOM     13  C   UNL     1       8.087  -6.652  -0.115  0.00  0.00    -0.008 C 
ATOM     14  C   UNL     1       6.665  -6.089  -0.098  0.00  0.00    +0.029 C 
ATOM     15  C   UNL     1       8.839  -6.176   1.130  0.00  0.00    +0.007 C 
ATOM     16  C   UNL     1       8.896  -4.647   1.138  0.00  0.00    -0.008 C 
ATOM     17  C   UNL     1       9.623  -4.157  -0.116  0.00  0.00    +0.007 C 
ATOM     18  C   UNL     1       7.473  -4.084   1.155  0.00  0.00    +0.029 C 
ENDBRANCH   6   9
BRANCH   1  19
ATOM     19  C   UNL     1       2.311  -0.304  -0.022  0.00  0.00    +0.325 C 
BRANCH  19  20
ATOM     20  O   UNL     1       2.364   1.124  -0.015  0.00  0.00    -0.482 OA
BRANCH  20  23
ATOM     21  C   UNL     1      -1.218   1.749   0.017  0.00  0.00    +0.019 A 
ATOM     22  C   UNL     1      -0.013   1.076   0.008  0.00  0.00    +0.047 A 
ATOM     23  C   UNL     1       1.179   1.784   0.000  0.00  0.00    +0.131 A 
ATOM     24  C   UNL     1       1.154   3.188   0.008  0.00  0.00    +0.057 A 
ATOM     25  C   UNL     1      -0.076   3.857   0.024  0.00  0.00    +0.030 A 
ATOM     26  C   UNL     1      -1.249   3.135   0.031  0.00  0.00    +0.019 A 
ATOM     27 BR   UNL     1      -2.910   4.039   0.051  0.00  0.00    -0.050 Br
BRANCH  24  28
ATOM     28  C   UNL     1       2.409   3.950  -0.000  0.00  0.00    +0.262 C 
ATOM     29  O   UNL     1       2.382   5.163   0.007  0.00  0.00    -0.296 OA
ENDBRANCH  24  28
ENDBRANCH  20  23
ENDBRANCH  19  20
ENDBRANCH   1  19
TORSDOF 5
