REMARK  Name = ZINC12577889
REMARK  6 active torsions:
REMARK  status: ('A' for Active; 'I' for Inactive)
REMARK    1  A    between atoms: C_1  and  C_2
REMARK    2  A    between atoms: N_8  and  N_9
REMARK    3  A    between atoms: C_10  and  C_12
REMARK    4  A    between atoms: C_12  and  C_14
REMARK    5  A    between atoms: C_12  and  O_15
REMARK    6  A    between atoms: O_15  and  C_16
REMARK                            x       y       z     vdW  Elec       q    Type
REMARK                         _______ _______ _______ _____ _____    ______ ____
ROOT
ATOM      1  N   UNL     1      -0.577   2.991   3.040  0.00  0.00    -0.204 N 
ATOM      2  C   UNL     1       0.011   3.580   4.100  0.00  0.00    +0.273 C 
ATOM      3  O   UNL     1       1.221   3.624   4.176  0.00  0.00    -0.270 OA
ATOM      4  H   UNL     1      -1.544   2.955   2.979  0.00  0.00    +0.177 HD
ENDROOT
BRANCH   1  11
ATOM      5  C   UNL     1      -3.757   2.328  -0.709  0.00  0.00    +0.008 C 
ATOM      6  C   UNL     1      -2.251   2.489  -0.496  0.00  0.00    -0.009 C 
ATOM      7  C   UNL     1      -1.498   1.770  -1.616  0.00  0.00    +0.004 C 
ATOM      8  C   UNL     1       0.006   2.001  -1.462  0.00  0.00    +0.006 C 
ATOM      9  C   UNL     1       0.485   1.374  -0.148  0.00  0.00    +0.052 C 
ATOM     10  C   UNL     1      -0.347   1.931   0.986  0.00  0.00    +0.037 C 
ATOM     11  N   UNL     1       0.210   2.431   2.025  0.00  0.00    -0.189 NA
ATOM     12  C   UNL     1      -1.857   1.881   0.854  0.00  0.00    +0.055 C 
ENDBRANCH   1  11
BRANCH   2  13
ATOM     13  C   UNL     1      -0.835   4.182   5.192  0.00  0.00    +0.257 C 
ATOM     14  C   UNL     1      -1.623   3.076   5.896  0.00  0.00    +0.062 C 
BRANCH  13  15
ATOM     15  O   UNL     1       0.008   4.842   6.139  0.00  0.00    -0.478 OA
BRANCH  15  16
ATOM     16  C   UNL     1      -0.556   5.829   6.885  0.00  0.00    +0.140 A 
ATOM     17  C   UNL     1      -1.918   6.075   6.795  0.00  0.00    +0.048 A 
ATOM     18  C   UNL     1      -2.490   7.074   7.558  0.00  0.00    +0.023 A 
ATOM     19  C   UNL     1      -1.704   7.837   8.404  0.00  0.00    +0.043 A 
ATOM     20  C   UNL     1      -0.344   7.597   8.492  0.00  0.00    +0.043 A 
ATOM     21  C   UNL     1       0.231   6.594   7.734  0.00  0.00    +0.084 A 
ATOM     22 CL   UNL     1       1.938   6.293   7.844  0.00  0.00    -0.080 Cl
ATOM     23 CL   UNL     1      -2.425   9.097   9.357  0.00  0.00    -0.083 Cl
ENDBRANCH  15  16
ENDBRANCH  13  15
ENDBRANCH   2  13
TORSDOF 4
