REMARK  Name = ZINC16751093
REMARK  7 active torsions:
REMARK  status: ('A' for Active; 'I' for Inactive)
REMARK    1  A    between atoms: C_1  and  C_2
REMARK    2  A    between atoms: C_2  and  C_3
REMARK    3  A    between atoms: C_3  and  N_4
REMARK    4  A    between atoms: C_5  and  C_20
REMARK    5  A    between atoms: C_22  and  O_28
REMARK    6  A    between atoms: C_23  and  O_27
REMARK    7  A    between atoms: O_28  and  C_29
REMARK                            x       y       z     vdW  Elec       q    Type
REMARK                         _______ _______ _______ _____ _____    ______ ____
ROOT
ATOM      1  N   UNL     1       2.687  -1.793   4.782  0.00  0.00    -0.284 N 
ATOM      2  C   UNL     1       2.776  -0.825   3.682  0.00  0.00    +0.145 C 
ATOM      3  C   UNL     1       3.982   0.028   3.976  0.00  0.00    +0.072 A 
ATOM      4  C   UNL     1       4.598   1.155   3.268  0.00  0.00    +0.199 A 
ATOM      5  O   UNL     1       4.138   1.582   2.224  0.00  0.00    -0.287 OA
ATOM      6  C   UNL     1       5.802   1.746   3.885  0.00  0.00    +0.064 A 
ATOM      7  C   UNL     1       6.467   2.820   3.297  0.00  0.00    +0.015 A 
ATOM      8  C   UNL     1       7.580   3.338   3.901  0.00  0.00    +0.001 A 
ATOM      9  C   UNL     1       8.047   2.799   5.092  0.00  0.00    +0.004 A 
ATOM     10  C   UNL     1       7.401   1.737   5.686  0.00  0.00    +0.047 A 
ATOM     11  C   UNL     1       6.266   1.194   5.091  0.00  0.00    +0.139 A 
ATOM     12  O   UNL     1       5.625   0.157   5.658  0.00  0.00    -0.450 OA
ATOM     13  C   UNL     1       4.524  -0.417   5.135  0.00  0.00    +0.199 A 
ATOM     14  C   UNL     1       3.705  -1.554   5.627  0.00  0.00    +0.283 C 
ATOM     15  O   UNL     1       3.923  -2.178   6.646  0.00  0.00    -0.267 OA
ENDROOT
BRANCH   2  16
ATOM     16  C   UNL     1       1.534   0.028   3.639  0.00  0.00    -0.018 A 
ATOM     17  C   UNL     1       0.993   0.398   2.422  0.00  0.00    +0.055 A 
ATOM     18  C   UNL     1      -0.148   1.182   2.380  0.00  0.00    +0.163 A 
ATOM     19  C   UNL     1      -0.745   1.600   3.566  0.00  0.00    +0.173 A 
ATOM     20  C   UNL     1      -0.200   1.222   4.783  0.00  0.00    +0.063 A 
ATOM     21  C   UNL     1       0.939   0.438   4.817  0.00  0.00    +0.025 A 
ATOM     22 BR   UNL     1      -1.011   1.783   6.397  0.00  0.00    -0.046 Br
BRANCH  19  23
ATOM     23  O   UNL     1      -1.863   2.374   3.530  0.00  0.00    -0.503 OA
ATOM     24  H   UNL     1      -2.689   1.872   3.523  0.00  0.00    +0.292 HD
ENDBRANCH  19  23
BRANCH  18  25
ATOM     25  O   UNL     1      -0.682   1.547   1.184  0.00  0.00    -0.491 OA
ATOM     26  C   UNL     1      -0.013   1.086   0.008  0.00  0.00    +0.277 C 
ENDBRANCH  18  25
ENDBRANCH   2  16
BRANCH   1  27
ATOM     27  C   UNL     1       1.669  -2.835   4.933  0.00  0.00    +0.109 C 
BRANCH  27  29
ATOM     28  C   UNL     1       1.081  -5.205   4.402  0.00  0.00    +0.005 C 
ATOM     29  C   UNL     1       2.144  -4.116   4.245  0.00  0.00    +0.016 C 
ENDBRANCH  27  29
ENDBRANCH   1  27
TORSDOF 5
