REMARK  Name = ZINC54580947
REMARK  11 active torsions:
REMARK  status: ('A' for Active; 'I' for Inactive)
REMARK    1  A    between atoms: C_1  and  C_2
REMARK    2  A    between atoms: C_2  and  C_4
REMARK    3  A    between atoms: C_2  and  N_15
REMARK    4  A    between atoms: C_7  and  S_10
REMARK    5  A    between atoms: S_10  and  N_13
REMARK    6  A    between atoms: N_13  and  C_14
REMARK    7  A    between atoms: N_18  and  C_19
REMARK    8  A    between atoms: C_19  and  C_20
REMARK    9  A    between atoms: C_20  and  C_21
REMARK   10  A    between atoms: C_21  and  N_22
REMARK   11  A    between atoms: N_22  and  C_23
REMARK                            x       y       z     vdW  Elec       q    Type
REMARK                         _______ _______ _______ _____ _____    ______ ____
ROOT
ATOM      1  N   UNL     1       0.711  -0.489   1.189  0.00  0.00    -0.293 N 
ATOM      2  C   UNL     1       0.051  -0.633   2.355  0.00  0.00    +0.300 C 
ATOM      3  O   UNL     1      -1.132  -0.361   2.423  0.00  0.00    -0.253 OA
ATOM      4  N   UNL     1       0.703  -1.080   3.447  0.00  0.00    -0.299 N 
ATOM      5  H   UNL     1       1.654  -0.707   1.135  0.00  0.00    +0.151 HD
ATOM      6  H   UNL     1       1.647  -1.298   3.394  0.00  0.00    +0.150 HD
ENDROOT
BRANCH   1   8
ATOM      7  C   UNL     1      -0.019   1.526   0.010  0.00  0.00    +0.033 C 
ATOM      8  C   UNL     1       0.002  -0.004   0.002  0.00  0.00    +0.102 C 
BRANCH   8   9
ATOM      9  C   UNL     1       0.707  -0.490  -1.238  0.00  0.00    -0.027 A 
ATOM     10  C   UNL     1       2.089  -0.511  -1.284  0.00  0.00    +0.007 A 
ATOM     11  C   UNL     1       2.736  -0.957  -2.421  0.00  0.00    +0.029 A 
ATOM     12  C   UNL     1       2.002  -1.382  -3.512  0.00  0.00    +0.105 A 
ATOM     13  C   UNL     1       0.620  -1.362  -3.466  0.00  0.00    +0.029 A 
ATOM     14  C   UNL     1      -0.027  -0.920  -2.327  0.00  0.00    +0.007 A 
BRANCH  12  15
ATOM     15  S   UNL     1       2.826  -1.949  -4.962  0.00  0.00    +0.058 S 
ATOM     16  O   UNL     1       1.916  -1.778  -6.040  0.00  0.00    -0.153 OA
ATOM     17  O   UNL     1       4.117  -1.356  -4.954  0.00  0.00    -0.153 OA
BRANCH  15  18
ATOM     18  N   UNL     1       3.054  -3.580  -4.790  0.00  0.00    -0.193 NA
ATOM     19  C   UNL     1       1.899  -4.480  -4.736  0.00  0.00    +0.127 C 
ATOM     20  H   UNL     1       3.953  -3.940  -4.724  0.00  0.00    +0.148 HD
ENDBRANCH  15  18
ENDBRANCH  12  15
ENDBRANCH   8   9
ENDBRANCH   1   8
BRANCH   4  21
ATOM     21  C   UNL     1      -0.014  -1.237   4.715  0.00  0.00    +0.104 C 
BRANCH  21  22
ATOM     22  C   UNL     1       0.950  -1.754   5.785  0.00  0.00    -0.000 C 
BRANCH  22  23
ATOM     23  C   UNL     1       0.201  -1.917   7.110  0.00  0.00    -0.081 C 
BRANCH  23  24
ATOM     24  N   UNL     1       1.126  -2.414   8.137  0.00  0.00    +0.381 N 
ATOM     25  H   UNL     1       1.501  -3.306   7.850  0.00  0.00    -0.086 HD
ATOM     26  H   UNL     1       1.881  -1.755   8.257  0.00  0.00    -0.086 HD
BRANCH  24  27
ATOM     27  C   UNL     1       0.408  -2.571   9.409  0.00  0.00    -0.072 C 
ATOM     28  C   UNL     1      -0.052  -1.200   9.907  0.00  0.00    -0.016 C 
ATOM     29  C   UNL     1      -0.801  -1.363  11.231  0.00  0.00    -0.002 C 
ATOM     30  C   UNL     1       0.129  -1.997  12.268  0.00  0.00    -0.000 C 
ATOM     31  C   UNL     1       0.589  -3.369  11.769  0.00  0.00    -0.002 C 
ATOM     32  C   UNL     1       1.337  -3.205  10.445  0.00  0.00    -0.016 C 
ENDBRANCH  24  27
ENDBRANCH  23  24
ENDBRANCH  22  23
ENDBRANCH  21  22
ENDBRANCH   4  21
TORSDOF 9
