REMARK  Name = ZINC36028158
REMARK  11 active torsions:
REMARK  status: ('A' for Active; 'I' for Inactive)
REMARK    1  A    between atoms: C_1  and  C_2
REMARK    2  A    between atoms: C_2  and  C_3
REMARK    3  A    between atoms: C_3  and  C_5
REMARK    4  A    between atoms: C_3  and  C_6
REMARK    5  A    between atoms: N_10  and  C_31
REMARK    6  A    between atoms: N_15  and  S_18
REMARK    7  A    between atoms: S_18  and  C_21
REMARK    8  A    between atoms: C_31  and  C_32
REMARK    9  A    between atoms: C_32  and  C_33
REMARK   10  A    between atoms: C_33  and  O_34
REMARK   11  A    between atoms: O_34  and  C_35
REMARK                            x       y       z     vdW  Elec       q    Type
REMARK                         _______ _______ _______ _____ _____    ______ ____
ROOT
ATOM      1  C   UNL     1      -1.247  -1.909  -0.003  0.00  0.00    +0.022 C 
ATOM      2  C   UNL     1      -0.664  -2.569  -1.234  0.00  0.00    +0.201 C 
ATOM      3  O   UNL     1       0.299  -2.177  -1.858  0.00  0.00    -0.277 OA
ATOM      4  N   UNL     1      -1.395  -3.666  -1.518  0.00  0.00    -0.314 N 
ATOM      5  C   UNL     1      -2.469  -3.808  -0.531  0.00  0.00    +0.006 C 
ATOM      6  N   UNL     1      -2.603  -2.494   0.137  0.00  0.00    +0.401 N 
ATOM      7  C   UNL     1      -3.780  -4.172  -1.224  0.00  0.00    +0.023 C 
ATOM      8  C   UNL     1      -3.620  -5.516  -1.941  0.00  0.00    +0.109 C 
ATOM      9  N   UNL     1      -3.140  -6.514  -0.975  0.00  0.00    -0.177 NA
ATOM     10  C   UNL     1      -1.925  -6.223  -0.202  0.00  0.00    +0.109 C 
ATOM     11  C   UNL     1      -2.100  -4.872   0.501  0.00  0.00    +0.023 C 
ATOM     12  H   UNL     1      -2.842  -2.609   1.110  0.00  0.00    -0.082 HD
ATOM     13  H   UNL     1      -3.288  -1.923  -0.336  0.00  0.00    -0.082 HD
ENDROOT
BRANCH   9  14
ATOM     14  S   UNL     1      -3.955  -7.939  -0.760  0.00  0.00    +0.063 S 
ATOM     15  O   UNL     1      -3.626  -8.402   0.543  0.00  0.00    -0.153 OA
ATOM     16  O   UNL     1      -5.296  -7.707  -1.170  0.00  0.00    -0.153 OA
BRANCH  14  17
ATOM     17  C   UNL     1      -3.276  -9.104  -1.894  0.00  0.00    +0.131 A 
ATOM     18  C   UNL     1      -2.619 -10.203  -1.434  0.00  0.00    +0.031 A 
ATOM     19  C   UNL     1      -2.074 -11.136  -2.314  0.00  0.00    +0.003 A 
ATOM     20  C   UNL     1      -2.186 -10.974  -3.661  0.00  0.00    +0.010 A 
ATOM     21  C   UNL     1      -2.858  -9.852  -4.172  0.00  0.00    +0.002 A 
ATOM     22  C   UNL     1      -3.417  -8.904  -3.279  0.00  0.00    +0.097 A 
ATOM     23  N   UNL     1      -4.062  -7.837  -3.760  0.00  0.00    -0.253 NA
ATOM     24  C   UNL     1      -4.196  -7.646  -5.050  0.00  0.00    +0.111 A 
ATOM     25  C   UNL     1      -3.675  -8.541  -5.981  0.00  0.00    +0.020 A 
ATOM     26  C   UNL     1      -2.995  -9.647  -5.558  0.00  0.00    +0.011 A 
ENDBRANCH  14  17
ENDBRANCH   9  14
BRANCH   1  27
ATOM     27  C   UNL     1      -1.338  -0.395  -0.203  0.00  0.00    -0.020 C 
ATOM     28  C   UNL     1      -2.176  -0.094  -1.448  0.00  0.00    +0.006 C 
BRANCH  27  30
ATOM     29  C   UNL     1      -0.013   1.708  -0.459  0.00  0.00    +0.004 C 
ATOM     30  C   UNL     1       0.067   0.182  -0.383  0.00  0.00    -0.001 C 
ENDBRANCH  27  30
ENDBRANCH   1  27
BRANCH   4  31
ATOM     31  C   UNL     1      -1.155  -4.575  -2.642  0.00  0.00    +0.108 C 
BRANCH  31  32
ATOM     32  C   UNL     1      -1.902  -4.069  -3.877  0.00  0.00    +0.047 C 
BRANCH  32  33
ATOM     33  C   UNL     1      -1.669  -5.031  -5.044  0.00  0.00    +0.161 C 
BRANCH  33  34
ATOM     34  O   UNL     1      -2.367  -4.558  -6.197  0.00  0.00    -0.383 OA
ATOM     35  C   UNL     1      -2.215  -5.389  -7.350  0.00  0.00    +0.193 C 
ENDBRANCH  33  34
ENDBRANCH  32  33
ENDBRANCH  31  32
ENDBRANCH   4  31
TORSDOF 8
