REMARK  Name = ZINC35035841
REMARK  6 active torsions:
REMARK  status: ('A' for Active; 'I' for Inactive)
REMARK    1  A    between atoms: C_1  and  C_2
REMARK    2  A    between atoms: C_2  and  C_3
REMARK    3  A    between atoms: C_3  and  C_5
REMARK    4  A    between atoms: C_3  and  N_16
REMARK    5  A    between atoms: C_20  and  C_23
REMARK    6  A    between atoms: N_26  and  C_27
REMARK                            x       y       z     vdW  Elec       q    Type
REMARK                         _______ _______ _______ _____ _____    ______ ____
ROOT
ATOM      1  N   UNL     1      -2.277  -0.354  -1.020  0.00  0.00    +0.388 N 
ATOM      2  C   UNL     1      -2.350   1.109  -0.924  0.00  0.00    -0.058 C 
ATOM      3  C   UNL     1      -3.026   1.670  -2.179  0.00  0.00    +0.091 C 
ATOM      4  N   UNL     1      -4.328   1.006  -2.344  0.00  0.00    -0.286 N 
ATOM      5  C   UNL     1      -4.370  -0.463  -2.289  0.00  0.00    +0.058 C 
ATOM      6  C   UNL     1      -3.631  -0.923  -1.028  0.00  0.00    -0.055 C 
ATOM      7  C   UNL     1      -5.824  -0.935  -2.239  0.00  0.00    +0.026 C 
ATOM      8  C   UNL     1      -5.452   1.725  -2.539  0.00  0.00    +0.307 C 
ATOM      9  O   UNL     1      -6.531   1.166  -2.578  0.00  0.00    -0.252 OA
ATOM     10  N   UNL     1      -5.379   3.062  -2.691  0.00  0.00    -0.268 N 
ATOM     11  H   UNL     1      -4.514   3.497  -2.749  0.00  0.00    +0.156 HD
ATOM     12  H   UNL     1      -1.802  -0.609  -1.873  0.00  0.00    -0.081 HD
ENDROOT
BRANCH  10  13
ATOM     13  C   UNL     1      -6.552   3.823  -2.765  0.00  0.00    +0.049 A 
ATOM     14  C   UNL     1      -7.775   3.249  -2.442  0.00  0.00    +0.024 A 
ATOM     15  C   UNL     1      -8.930   4.003  -2.515  0.00  0.00    +0.002 A 
ATOM     16  C   UNL     1      -8.870   5.327  -2.910  0.00  0.00    +0.001 A 
ATOM     17  C   UNL     1      -7.655   5.901  -3.232  0.00  0.00    +0.017 A 
ATOM     18  C   UNL     1      -6.494   5.154  -3.156  0.00  0.00    +0.039 A 
ATOM     19 BR   UNL     1      -4.831   5.942  -3.590  0.00  0.00    -0.048 Br
ENDBRANCH  10  13
BRANCH   1  20
ATOM     20  C   UNL     1      -1.533  -0.882   0.131  0.00  0.00    -0.001 C 
BRANCH  20  21
ATOM     21  C   UNL     1      -2.290  -0.584   1.399  0.00  0.00    +0.098 A 
ATOM     22  N   UNL     1      -3.366   0.148   1.318  0.00  0.00    -0.197 NA
ATOM     23  C   UNL     1      -4.096   0.457   2.407  0.00  0.00    +0.281 A 
ATOM     24  O   UNL     1      -5.100   1.143   2.315  0.00  0.00    -0.265 OA
ATOM     25  C   UNL     1      -3.646  -0.057   3.712  0.00  0.00    +0.065 A 
ATOM     26  C   UNL     1      -4.338   0.211   4.892  0.00  0.00    +0.015 A 
ATOM     27  C   UNL     1      -3.869  -0.298   6.083  0.00  0.00    +0.001 A 
ATOM     28  C   UNL     1      -2.717  -1.072   6.113  0.00  0.00    +0.002 A 
ATOM     29  C   UNL     1      -2.022  -1.346   4.954  0.00  0.00    +0.026 A 
ATOM     30  C   UNL     1      -2.479  -0.842   3.743  0.00  0.00    +0.053 A 
ATOM     31  N   UNL     1      -1.824  -1.091   2.554  0.00  0.00    -0.344 N 
ATOM     32  H   UNL     1      -1.020  -1.633   2.551  0.00  0.00    +0.167 HD
ENDBRANCH  20  21
BRANCH  20  34
ATOM     33  C   UNL     1      -0.500  -2.694  -1.245  0.00  0.00    +0.002 C 
ATOM     34  C   UNL     1      -1.367  -2.396  -0.020  0.00  0.00    -0.011 C 
ENDBRANCH  20  34
ENDBRANCH   1  20
TORSDOF 4
