REMARK  Name = ZINC09171210
REMARK  11 active torsions:
REMARK  status: ('A' for Active; 'I' for Inactive)
REMARK    1  A    between atoms: C_1  and  C_2
REMARK    2  A    between atoms: C_2  and  C_3
REMARK    3  A    between atoms: C_2  and  C_4
REMARK    4  A    between atoms: C_4  and  C_5
REMARK    5  A    between atoms: C_5  and  C_7
REMARK    6  A    between atoms: C_5  and  C_19
REMARK    7  A    between atoms: C_8  and  N_18
REMARK    8  A    between atoms: C_19  and  C_21
REMARK    9  A    between atoms: C_19  and  C_34
REMARK   10  A    between atoms: C_34  and  C_35
REMARK   11  A    between atoms: C_34  and  C_36
REMARK                            x       y       z     vdW  Elec       q    Type
REMARK                         _______ _______ _______ _____ _____    ______ ____
ROOT
ATOM      1  C   UNL     1       0.576  -0.624   3.093  0.00  0.00    +0.035 C 
ENDROOT
BRANCH   1   2
ATOM      2  C   UNL     1       1.055  -0.681   4.521  0.00  0.00    +0.061 A 
ATOM      3  C   UNL     1       1.211   0.488   5.262  0.00  0.00    +0.127 A 
ATOM      4  N   UNL     1       1.635   0.420   6.522  0.00  0.00    -0.214 NA
ATOM      5  C   UNL     1       1.914  -0.749   7.094  0.00  0.00    +0.142 A 
ATOM      6  C   UNL     1       2.360  -0.777   8.429  0.00  0.00    +0.047 A 
ATOM      7  C   UNL     1       2.646  -1.973   9.014  0.00  0.00    +0.005 A 
ATOM      8  C   UNL     1       2.493  -3.157   8.279  0.00  0.00    +0.018 A 
ATOM      9  C   UNL     1       2.064  -3.111   6.998  0.00  0.00    +0.096 A 
ATOM     10  N   UNL     1       1.774  -1.920   6.403  0.00  0.00    -0.268 N 
ATOM     11  C   UNL     1       1.343  -1.903   5.124  0.00  0.00    +0.264 A 
ATOM     12  O   UNL     1       1.211  -2.946   4.501  0.00  0.00    -0.267 OA
BRANCH   3  13
ATOM     13  N   UNL     1       0.928   1.714   4.691  0.00  0.00    -0.343 N 
ATOM     14  H   UNL     1       0.615   1.762   3.774  0.00  0.00    +0.144 HD
ATOM     15  H   UNL     1       1.042   2.528   5.207  0.00  0.00    +0.144 HD
ENDBRANCH   3  13
ENDBRANCH   1   2
BRANCH   1  16
ATOM     16  C   UNL     1       1.460  -1.520   2.223  0.00  0.00    +0.012 C 
BRANCH  16  18
ATOM     17  C   UNL     1       1.334  -0.020   0.228  0.00  0.00    +0.007 C 
ATOM     18  C   UNL     1       1.010  -1.417   0.764  0.00  0.00    -0.017 C 
ATOM     19  C   UNL     1       1.746  -2.466  -0.072  0.00  0.00    +0.007 C 
ENDBRANCH  16  18
ENDBRANCH   1  16
BRANCH   1  20
ATOM     20  C   UNL     1      -0.872  -1.113   3.022  0.00  0.00    +0.023 C 
BRANCH  20  21
ATOM     21  C   UNL     1      -0.980  -2.464   3.681  0.00  0.00    -0.006 C 
ATOM     22  C   UNL     1      -1.392  -3.530   2.969  0.00  0.00    +0.077 C 
ATOM     23  C   UNL     1      -1.320  -4.912   3.519  0.00  0.00    +0.159 C 
ATOM     24  N   UNL     1      -0.848  -5.135   4.726  0.00  0.00    -0.281 NA
ATOM     25  N   UNL     1      -1.749  -5.923   2.751  0.00  0.00    -0.212 NA
ATOM     26  C   UNL     1      -2.232  -5.739   1.528  0.00  0.00    +0.134 C 
ATOM     27  C   UNL     1      -2.657  -6.875   0.805  0.00  0.00    +0.044 C 
ATOM     28  C   UNL     1      -3.158  -6.729  -0.451  0.00  0.00    +0.005 C 
ATOM     29  C   UNL     1      -3.248  -5.448  -1.017  0.00  0.00    +0.016 C 
ATOM     30  C   UNL     1      -2.838  -4.370  -0.316  0.00  0.00    +0.085 C 
ATOM     31  N   UNL     1      -2.333  -4.503   0.948  0.00  0.00    -0.227 N 
ATOM     32  C   UNL     1      -1.944  -3.386   1.604  0.00  0.00    +0.259 C 
ATOM     33  O   UNL     1      -2.042  -2.292   1.084  0.00  0.00    -0.269 OA
ATOM     34  H   UNL     1      -0.807  -6.041   5.071  0.00  0.00    +0.188 HD
ENDBRANCH  20  21
BRANCH  20  35
ATOM     35  C   UNL     1      -1.783  -0.119   3.744  0.00  0.00    -0.010 C 
ATOM     36  C   UNL     1      -1.817   1.199   2.967  0.00  0.00    +0.008 C 
ATOM     37  C   UNL     1      -3.198  -0.695   3.834  0.00  0.00    +0.008 C 
ENDBRANCH  20  35
ENDBRANCH   1  20
TORSDOF 7
