REMARK  Name = ZINC59165695
REMARK  5 active torsions:
REMARK  status: ('A' for Active; 'I' for Inactive)
REMARK    1  A    between atoms: C_1  and  C_2
REMARK    2  A    between atoms: N_4  and  C_5
REMARK    3  A    between atoms: C_8  and  C_11
REMARK    4  A    between atoms: N_12  and  N_13
REMARK    5  A    between atoms: N_13  and  C_14
REMARK                            x       y       z     vdW  Elec       q    Type
REMARK                         _______ _______ _______ _____ _____    ______ ____
ROOT
ATOM      1  C   UNL     1      -1.192  -2.088  -0.088  0.00  0.00    +0.033 A 
ATOM      2  C   UNL     1      -0.007  -2.814  -0.091  0.00  0.00    +0.024 A 
ATOM      3  C   UNL     1      -0.039  -4.188  -0.187  0.00  0.00    +0.011 A 
ATOM      4  C   UNL     1      -1.265  -4.852  -0.280  0.00  0.00    -0.005 A 
ATOM      5  C   UNL     1      -2.455  -4.119  -0.277  0.00  0.00    +0.011 A 
ATOM      6  C   UNL     1      -2.415  -2.745  -0.175  0.00  0.00    +0.024 A 
ENDROOT
BRANCH   1  10
ATOM      7  C   UNL     1      -0.177   1.504  -0.566  0.00  0.00    +0.109 C 
ATOM      8  C   UNL     1      -0.161  -0.003  -0.582  0.00  0.00    +0.214 C 
ATOM      9  O   UNL     1       0.747  -0.594  -1.127  0.00  0.00    -0.276 OA
ATOM     10  N   UNL     1      -1.156  -0.694   0.009  0.00  0.00    -0.286 N 
ATOM     11  H   UNL     1      -1.846  -0.224   0.502  0.00  0.00    +0.155 HD
ENDBRANCH   1  10
BRANCH   4  12
ATOM     12  C   UNL     1      -1.304  -6.322  -0.383  0.00  0.00    +0.138 C 
ATOM     13  N   UNL     1      -2.444  -6.937  -0.470  0.00  0.00    -0.190 NA
BRANCH  13  14
ATOM     14  N   UNL     1      -2.481  -8.334  -0.567  0.00  0.00    -0.238 N 
ATOM     15  H   UNL     1      -1.655  -8.842  -0.570  0.00  0.00    +0.174 HD
BRANCH  14  16
ATOM     16  C   UNL     1      -3.707  -8.995  -0.660  0.00  0.00    +0.048 A 
ATOM     17  C   UNL     1      -4.891  -8.268  -0.662  0.00  0.00    +0.026 A 
ATOM     18  C   UNL     1      -6.102  -8.925  -0.755  0.00  0.00    +0.016 A 
ATOM     19  C   UNL     1      -6.137 -10.306  -0.845  0.00  0.00    +0.013 A 
ATOM     20  C   UNL     1      -4.959 -11.032  -0.843  0.00  0.00    +0.016 A 
ATOM     21  C   UNL     1      -3.745 -10.381  -0.757  0.00  0.00    +0.026 A 
ATOM     22  I   UNL     1      -7.977 -11.298  -0.984  0.00  0.00    -0.044 I 
ENDBRANCH  14  16
ENDBRANCH  13  14
ENDBRANCH   4  12
TORSDOF 4
