REMARK  Name = ZINC36484053
REMARK  11 active torsions:
REMARK  status: ('A' for Active; 'I' for Inactive)
REMARK    1  A    between atoms: C_1  and  C_2
REMARK    2  A    between atoms: C_2  and  C_3
REMARK    3  A    between atoms: C_3  and  C_4
REMARK    4  A    between atoms: C_4  and  N_5
REMARK    5  A    between atoms: C_6  and  C_8
REMARK    6  A    between atoms: C_8  and  C_10
REMARK    7  A    between atoms: C_8  and  N_19
REMARK    8  A    between atoms: C_11  and  O_18
REMARK    9  A    between atoms: C_13  and  O_17
REMARK   10  A    between atoms: C_15  and  O_16
REMARK   11  A    between atoms: N_19  and  C_22
REMARK                            x       y       z     vdW  Elec       q    Type
REMARK                         _______ _______ _______ _____ _____    ______ ____
ROOT
ATOM      1  C   UNL     1       2.321  -4.427   3.920  0.00  0.00    +0.204 C 
ENDROOT
BRANCH   1   2
ATOM      2  C   UNL     1       3.723  -3.877   3.947  0.00  0.00    +0.065 A 
ATOM      3  C   UNL     1       4.704  -4.441   3.145  0.00  0.00    +0.129 A 
ATOM      4  C   UNL     1       5.995  -3.935   3.170  0.00  0.00    +0.091 A 
ATOM      5  C   UNL     1       6.305  -2.865   3.995  0.00  0.00    +0.124 A 
ATOM      6  C   UNL     1       5.324  -2.300   4.796  0.00  0.00    +0.091 A 
ATOM      7  C   UNL     1       4.032  -2.804   4.769  0.00  0.00    +0.129 A 
BRANCH   7   8
ATOM      8  O   UNL     1       3.069  -2.247   5.550  0.00  0.00    -0.506 OA
ATOM      9  H   UNL     1       2.997  -2.645   6.428  0.00  0.00    +0.292 HD
ENDBRANCH   7   8
BRANCH   5  10
ATOM     10  O   UNL     1       7.570  -2.370   4.020  0.00  0.00    -0.507 OA
ATOM     11  H   UNL     1       7.729  -1.665   3.377  0.00  0.00    +0.292 HD
ENDBRANCH   5  10
BRANCH   3  12
ATOM     12  O   UNL     1       4.401  -5.490   2.336  0.00  0.00    -0.506 OA
ATOM     13  H   UNL     1       4.183  -5.236   1.429  0.00  0.00    +0.292 HD
ENDBRANCH   3  12
ENDBRANCH   1   2
BRANCH   1  15
ATOM     14  N   UNL     1       1.624  -3.042   1.992  0.00  0.00    -0.313 N 
ATOM     15  C   UNL     1       1.745  -4.269   2.536  0.00  0.00    +0.239 C 
ATOM     16  O   UNL     1       1.391  -5.247   1.912  0.00  0.00    -0.273 OA
ATOM     17  H   UNL     1       1.908  -2.260   2.492  0.00  0.00    +0.149 HD
BRANCH  14  18
ATOM     18  C   UNL     1       1.065  -2.889   0.647  0.00  0.00    +0.104 C 
BRANCH  18  19
ATOM     19  C   UNL     1       1.039  -1.406   0.271  0.00  0.00    +0.018 C 
BRANCH  19  21
ATOM     20  C   UNL     1       0.429   0.237  -1.509  0.00  0.00    +0.004 C 
ATOM     21  C   UNL     1       0.455  -1.246  -1.134  0.00  0.00    -0.002 C 
ENDBRANCH  19  21
ENDBRANCH  18  19
ENDBRANCH  14  18
ENDBRANCH   1  15
BRANCH   1  22
ATOM     22  N   UNL     1       2.346  -5.847   4.280  0.00  0.00    -0.258 N 
ATOM     23  C   UNL     1       1.200  -6.556   4.304  0.00  0.00    +0.333 C 
ATOM     24  O   UNL     1       1.230  -7.750   4.519  0.00  0.00    -0.279 OA
BRANCH  22  25
ATOM     25  C   UNL     1       3.559  -6.467   4.597  0.00  0.00    +0.039 A 
ATOM     26  C   UNL     1       4.295  -6.036   5.694  0.00  0.00    +0.023 A 
ATOM     27  C   UNL     1       5.492  -6.649   6.006  0.00  0.00    +0.003 A 
ATOM     28  C   UNL     1       5.960  -7.691   5.227  0.00  0.00    +0.020 A 
ATOM     29  C   UNL     1       5.230  -8.123   4.133  0.00  0.00    +0.043 A 
ATOM     30  C   UNL     1       4.028  -7.518   3.821  0.00  0.00    +0.043 A 
ATOM     31 CL   UNL     1       5.822  -9.432   3.158  0.00  0.00    -0.083 Cl
ENDBRANCH  22  25
ENDBRANCH   1  22
TORSDOF 10
