REMARK  Name = ZINC15015802
REMARK  6 active torsions:
REMARK  status: ('A' for Active; 'I' for Inactive)
REMARK    1  A    between atoms: C_5  and  C_7
REMARK    2  A    between atoms: C_7  and  S_8
REMARK    3  A    between atoms: S_8  and  C_9
REMARK    4  A    between atoms: C_22  and  C_25
REMARK    5  A    between atoms: C_28  and  O_34
REMARK    6  A    between atoms: C_29  and  N_31
REMARK                            x       y       z     vdW  Elec       q    Type
REMARK                         _______ _______ _______ _____ _____    ______ ____
ROOT
ATOM      1  C   UNL     1      -8.067  -1.337   2.105  0.00  0.00    +0.213 A 
ATOM      2  N   UNL     1      -6.816  -0.951   1.866  0.00  0.00    -0.184 NA
ATOM      3  C   UNL     1      -6.569   0.322   1.612  0.00  0.00    +0.248 A 
ATOM      4  C   UNL     1      -7.649   1.234   1.597  0.00  0.00    +0.156 A 
ATOM      5  N   UNL     1      -8.870   0.786   1.847  0.00  0.00    -0.141 NA
ATOM      6  N   UNL     1      -9.066  -0.464   2.092  0.00  0.00    -0.122 NA
ATOM      7  C   UNL     1      -7.397   2.659   1.300  0.00  0.00    +0.028 A 
ATOM      8  C   UNL     1      -7.930   3.672   2.088  0.00  0.00    +0.012 A 
ATOM      9  C   UNL     1      -7.681   4.992   1.769  0.00  0.00    +0.001 A 
ATOM     10  C   UNL     1      -6.906   5.313   0.668  0.00  0.00    +0.002 A 
ATOM     11  C   UNL     1      -6.365   4.315  -0.122  0.00  0.00    +0.024 A 
ATOM     12  C   UNL     1      -6.599   2.989   0.188  0.00  0.00    +0.039 A 
ATOM     13  N   UNL     1      -6.041   1.954  -0.566  0.00  0.00    -0.305 N 
ATOM     14  C   UNL     1      -4.994   1.131   0.032  0.00  0.00    +0.294 C 
ATOM     15  O   UNL     1      -5.312   0.763   1.369  0.00  0.00    -0.449 OA
ATOM     16  H   UNL     1      -6.377   1.755  -1.595  0.00  0.00    +0.150 HD
ENDROOT
BRANCH  14  17
ATOM     17  C   UNL     1      -3.700   1.904   0.030  0.00  0.00    +0.014 A 
ATOM     18  C   UNL     1      -3.391   2.729  -1.036  0.00  0.00    +0.012 A 
ATOM     19  C   UNL     1      -2.206   3.439  -1.040  0.00  0.00    +0.048 A 
ATOM     20  C   UNL     1      -1.328   3.328   0.029  0.00  0.00    +0.147 A 
ATOM     21  C   UNL     1      -1.638   2.495   1.094  0.00  0.00    +0.168 A 
ATOM     22  C   UNL     1      -2.825   1.787   1.093  0.00  0.00    +0.045 A 
BRANCH  21  23
ATOM     23  N   UNL     1      -0.701   2.369   2.233  0.00  0.00    +0.060 N 
ATOM     24  O   UNL     1      -0.976   1.641   3.170  0.00  0.00    -0.126 OA
ATOM     25  O   UNL     1       0.347   2.989   2.230  0.00  0.00    -0.126 OA
ENDBRANCH  21  23
BRANCH  20  26
ATOM     26  O   UNL     1      -0.164   4.029   0.030  0.00  0.00    -0.504 OA
ATOM     27  H   UNL     1       0.531   3.940   0.878  0.00  0.00    +0.292 HD
ENDBRANCH  20  26
ENDBRANCH  14  17
BRANCH   1  28
ATOM     28  S   UNL     1      -8.401  -3.033   2.444  0.00  0.00    -0.080 S 
BRANCH  28  29
ATOM     29  C   UNL     1     -10.194  -2.958   2.679  0.00  0.00    +0.114 C 
BRANCH  29  34
ATOM     30  C   UNL     1     -11.276  -6.032   4.585  0.00  0.00    +0.000 A 
ATOM     31  C   UNL     1     -11.679  -6.867   3.559  0.00  0.00    +0.001 A 
ATOM     32  C   UNL     1     -11.601  -6.437   2.248  0.00  0.00    +0.020 A 
ATOM     33  C   UNL     1     -11.126  -5.170   1.962  0.00  0.00    +0.045 A 
ATOM     34  C   UNL     1     -10.718  -4.337   2.989  0.00  0.00    -0.019 A 
ATOM     35  C   UNL     1     -10.797  -4.768   4.301  0.00  0.00    +0.006 A 
ATOM     36 CL   UNL     1     -11.034  -4.627   0.316  0.00  0.00    -0.083 Cl
ENDBRANCH  29  34
ENDBRANCH  28  29
ENDBRANCH   1  28
TORSDOF 6
