REMARK  Name = ZINC32927096
REMARK  6 active torsions:
REMARK  status: ('A' for Active; 'I' for Inactive)
REMARK    1  A    between atoms: C_3  and  S_19
REMARK    2  A    between atoms: C_5  and  C_6
REMARK    3  A    between atoms: C_6  and  C_7
REMARK    4  A    between atoms: C_7  and  N_8
REMARK    5  A    between atoms: C_13  and  C_15
REMARK    6  A    between atoms: S_19  and  N_22
REMARK                            x       y       z     vdW  Elec       q    Type
REMARK                         _______ _______ _______ _____ _____    ______ ____
ROOT
ATOM      1  C   UNL     1       4.262  -0.547  -1.484  0.00  0.00    +0.109 C 
ENDROOT
BRANCH   1   2
ATOM      2  N   UNL     1       5.654  -1.005  -1.499  0.00  0.00    -0.313 N 
ATOM      3  C   UNL     1       6.300  -1.215  -2.705  0.00  0.00    +0.216 A 
ATOM      4  N   UNL     1       5.645  -0.998  -3.836  0.00  0.00    -0.223 NA
ATOM      5  C   UNL     1       6.233  -1.189  -5.005  0.00  0.00    +0.116 A 
ATOM      6  C   UNL     1       7.550  -1.622  -5.037  0.00  0.00    +0.052 A 
ATOM      7  C   UNL     1       8.205  -1.839  -3.835  0.00  0.00    +0.149 A 
ATOM      8  N   UNL     1       7.560  -1.624  -2.700  0.00  0.00    -0.211 NA
ATOM      9  H   UNL     1       6.185  -1.182  -0.552  0.00  0.00    +0.149 HD
BRANCH   7  10
ATOM     10  C   UNL     1       9.636  -2.310  -3.822  0.00  0.00    +0.434 C 
ATOM     11  F   UNL     1      10.491  -1.203  -3.815  0.00  0.00    -0.164 F 
ATOM     12  F   UNL     1       9.863  -3.081  -2.676  0.00  0.00    -0.164 F 
ATOM     13  F   UNL     1       9.884  -3.084  -4.961  0.00  0.00    -0.164 F 
ENDBRANCH   7  10
ENDBRANCH   1   2
BRANCH   1  14
ATOM     14  C   UNL     1       3.791  -0.395  -0.036  0.00  0.00    +0.061 C 
BRANCH  14  19
ATOM     15  C   UNL     1       1.220  -0.658  -0.013  0.00  0.00    +0.013 A 
ATOM     16  C   UNL     1       0.002  -0.004   0.002  0.00  0.00    +0.036 A 
ATOM     17  C   UNL     1      -0.016   1.351   0.009  0.00  0.00    +0.142 A 
ATOM     18  S   UNL     1       1.725   1.744  -0.005  0.00  0.00    -0.073 S 
ATOM     19  C   UNL     1       2.360   0.076  -0.020  0.00  0.00    -0.007 A 
BRANCH  17  20
ATOM     20  S   UNL     1      -1.400   2.442   0.022  0.00  0.00    +0.062 S 
ATOM     21  O   UNL     1      -0.951   3.675  -0.524  0.00  0.00    -0.153 OA
ATOM     22  O   UNL     1      -2.493   1.719  -0.527  0.00  0.00    -0.153 OA
BRANCH  20  23
ATOM     23  N   UNL     1      -1.776   2.737   1.608  0.00  0.00    -0.203 NA
ATOM     24  H   UNL     1      -2.639   3.417   1.659  0.00  0.00    +0.144 HD
ATOM     25  H   UNL     1      -0.914   3.200   2.110  0.00  0.00    +0.144 HD
ENDBRANCH  20  23
ENDBRANCH  17  20
ENDBRANCH  14  19
ENDBRANCH   1  14
TORSDOF 6
