REMARK  Name = ZINC09647221
REMARK  7 active torsions:
REMARK  status: ('A' for Active; 'I' for Inactive)
REMARK    1  A    between atoms: C_4  and  N_7
REMARK    2  A    between atoms: C_16  and  C_18
REMARK    3  A    between atoms: C_18  and  O_20
REMARK    4  A    between atoms: O_20  and  C_21
REMARK    5  A    between atoms: C_21  and  C_22
REMARK    6  A    between atoms: N_24  and  C_25
REMARK    7  A    between atoms: C_26  and  C_33
REMARK                            x       y       z     vdW  Elec       q    Type
REMARK                         _______ _______ _______ _____ _____    ______ ____
ROOT
ATOM      1  C   UNL     1       2.331   4.387  -0.270  0.00  0.00    +0.361 C 
ATOM      2  O   UNL     1       3.420   3.848  -0.295  0.00  0.00    -0.243 OA
ENDROOT
BRANCH   1  12
ATOM      3  N   UNL     1      -1.175   3.514   0.031  0.00  0.00    -0.196 N 
ATOM      4  C   UNL     1      -1.257   2.173   0.144  0.00  0.00    +0.280 A 
ATOM      5  O   UNL     1      -2.336   1.622   0.256  0.00  0.00    -0.265 OA
ATOM      6  C   UNL     1      -0.012   1.392   0.135  0.00  0.00    +0.051 A 
ATOM      7  C   UNL     1       0.011   0.006   0.250  0.00  0.00    +0.014 A 
ATOM      8  C   UNL     1       1.222  -0.654   0.226  0.00  0.00    +0.001 A 
ATOM      9  C   UNL     1       2.411   0.050   0.089  0.00  0.00    +0.001 A 
ATOM     10  C   UNL     1       2.409   1.424  -0.026  0.00  0.00    +0.011 A 
ATOM     11  C   UNL     1       1.199   2.109  -0.004  0.00  0.00    +0.021 A 
ATOM     12  C   UNL     1       1.110   3.574  -0.122  0.00  0.00    +0.176 A 
ATOM     13  N   UNL     1      -0.070   4.147  -0.094  0.00  0.00    -0.156 NA
BRANCH   3  17
ATOM     14  C   UNL     1      -4.712   5.716   0.077  0.00  0.00    +0.000 A 
ATOM     15  C   UNL     1      -4.480   4.762   1.052  0.00  0.00    +0.002 A 
ATOM     16  C   UNL     1      -3.309   4.030   1.039  0.00  0.00    +0.028 A 
ATOM     17  C   UNL     1      -2.363   4.253   0.046  0.00  0.00    +0.069 A 
ATOM     18  C   UNL     1      -2.596   5.216  -0.928  0.00  0.00    +0.028 A 
ATOM     19  C   UNL     1      -3.772   5.940  -0.912  0.00  0.00    +0.002 A 
ENDBRANCH   3  17
ENDBRANCH   1  12
BRANCH   1  20
ATOM     20  O   UNL     1       2.240   5.727  -0.377  0.00  0.00    -0.451 OA
BRANCH  20  21
ATOM     21  C   UNL     1       3.483   6.463  -0.519  0.00  0.00    +0.328 C 
BRANCH  21  22
ATOM     22  C   UNL     1       3.186   7.937  -0.624  0.00  0.00    +0.255 C 
ATOM     23  O   UNL     1       2.038   8.328  -0.583  0.00  0.00    -0.272 OA
ATOM     24  N   UNL     1       4.194   8.820  -0.764  0.00  0.00    -0.277 N 
ATOM     25  H   UNL     1       5.112   8.507  -0.797  0.00  0.00    +0.155 HD
BRANCH  24  26
ATOM     26  C   UNL     1       3.920  10.175  -0.861  0.00  0.00    +0.084 A 
ATOM     27  C   UNL     1       4.811  11.226  -1.001  0.00  0.00    +0.068 A 
ATOM     28  C   UNL     1       4.258  12.577  -1.085  0.00  0.00    -0.023 A 
ATOM     29  C   UNL     1       2.917  12.651  -1.005  0.00  0.00    -0.004 A 
ATOM     30  S   UNL     1       2.381  10.967  -0.828  0.00  0.00    -0.077 S 
ATOM     31  C   UNL     1       2.424  14.070  -1.096  0.00  0.00    +0.043 C 
ATOM     32  C   UNL     1       3.616  14.859  -1.680  0.00  0.00    +0.010 C 
ATOM     33  C   UNL     1       4.813  13.993  -1.239  0.00  0.00    +0.037 C 
BRANCH  27  34
ATOM     34  C   UNL     1       6.257  10.991  -1.068  0.00  0.00    +0.244 C 
ATOM     35  O   UNL     1       6.795  10.807  -2.144  0.00  0.00    -0.270 OA
ATOM     36  N   UNL     1       6.990  10.980   0.063  0.00  0.00    -0.325 N 
ATOM     37  H   UNL     1       6.562  11.126   0.921  0.00  0.00    +0.145 HD
ATOM     38  H   UNL     1       7.947  10.825   0.019  0.00  0.00    +0.145 HD
ENDBRANCH  27  34
ENDBRANCH  24  26
ENDBRANCH  21  22
ENDBRANCH  20  21
ENDBRANCH   1  20
TORSDOF 7
