REMARK  Name = ZINC01148064
REMARK  6 active torsions:
REMARK  status: ('A' for Active; 'I' for Inactive)
REMARK    1  A    between atoms: C_1  and  C_2
REMARK    2  A    between atoms: C_5  and  S_8
REMARK    3  A    between atoms: S_8  and  N_11
REMARK    4  A    between atoms: N_11  and  C_12
REMARK    5  A    between atoms: C_12  and  C_13
REMARK    6  A    between atoms: N_15  and  C_16
REMARK                            x       y       z     vdW  Elec       q    Type
REMARK                         _______ _______ _______ _____ _____    ______ ____
ROOT
ATOM      1  N   UNL     1       1.233  -2.934  -1.598  0.00  0.00    -0.181 NA
ATOM      2  H   UNL     1       0.472  -3.420  -1.952  0.00  0.00    +0.149 HD
ENDROOT
BRANCH   1   3
ATOM      3  S   UNL     1       1.248  -2.462  -0.011  0.00  0.00    +0.059 S 
ATOM      4  O   UNL     1       2.504  -2.863   0.520  0.00  0.00    -0.153 OA
ATOM      5  O   UNL     1       0.014  -2.887   0.551  0.00  0.00    -0.153 OA
BRANCH   3  10
ATOM      6  C   UNL     1       1.191   3.571   0.060  0.00  0.00    +0.044 C 
ATOM      7  C   UNL     1       1.206   2.064   0.042  0.00  0.00    -0.050 A 
ATOM      8  C   UNL     1       0.015   1.361   0.048  0.00  0.00    +0.005 A 
ATOM      9  C   UNL     1       0.028  -0.021   0.032  0.00  0.00    +0.029 A 
ATOM     10  C   UNL     1       1.232  -0.701   0.009  0.00  0.00    +0.105 A 
ATOM     11  C   UNL     1       2.422   0.002   0.003  0.00  0.00    +0.029 A 
ATOM     12  C   UNL     1       2.409   1.384   0.018  0.00  0.00    +0.005 A 
ENDBRANCH   3  10
ENDBRANCH   1   3
BRANCH   1  13
ATOM     13  C   UNL     1       2.369  -2.618  -2.467  0.00  0.00    +0.201 C 
BRANCH  13  14
ATOM     14  C   UNL     1       2.289  -3.450  -3.721  0.00  0.00    +0.233 C 
ATOM     15  O   UNL     1       1.373  -4.231  -3.874  0.00  0.00    -0.274 OA
ATOM     16  N   UNL     1       3.236  -3.327  -4.673  0.00  0.00    -0.283 N 
ATOM     17  H   UNL     1       3.923  -2.648  -4.589  0.00  0.00    +0.155 HD
BRANCH  16  18
ATOM     18  C   UNL     1       3.227  -4.180  -5.783  0.00  0.00    +0.047 A 
ATOM     19  C   UNL     1       2.627  -5.429  -5.696  0.00  0.00    +0.024 A 
ATOM     20  C   UNL     1       2.617  -6.267  -6.794  0.00  0.00    +0.002 A 
ATOM     21  C   UNL     1       3.211  -5.867  -7.977  0.00  0.00    +0.001 A 
ATOM     22  C   UNL     1       3.813  -4.625  -8.066  0.00  0.00    +0.017 A 
ATOM     23  C   UNL     1       3.823  -3.780  -6.972  0.00  0.00    +0.039 A 
ATOM     24 BR   UNL     1       4.648  -2.083  -7.095  0.00  0.00    -0.048 Br
ENDBRANCH  16  18
ENDBRANCH  13  14
ENDBRANCH   1  13
TORSDOF 5
