REMARK  Name = ZINC32570193
REMARK  13 active torsions:
REMARK  status: ('A' for Active; 'I' for Inactive)
REMARK    1  A    between atoms: C_1  and  C_2
REMARK    2  A    between atoms: C_2  and  O_3
REMARK    3  A    between atoms: O_3  and  C_4
REMARK    4  A    between atoms: C_4  and  C_6
REMARK    5  A    between atoms: C_7  and  C_13
REMARK    6  A    between atoms: C_13  and  S_14
REMARK    7  A    between atoms: S_14  and  C_15
REMARK    8  A    between atoms: C_18  and  C_27
REMARK    9  A    between atoms: N_19  and  C_20
REMARK   10  A    between atoms: C_27  and  C_29
REMARK   11  A    between atoms: C_27  and  N_30
REMARK   12  A    between atoms: N_30  and  C_31
REMARK   13  A    between atoms: N_30  and  C_32
REMARK                            x       y       z     vdW  Elec       q    Type
REMARK                         _______ _______ _______ _____ _____    ______ ____
ROOT
ATOM      1  C   UNL     1       6.022  -1.030  -1.759  0.00  0.00    +0.196 A 
ATOM      2  N   UNL     1       6.494  -1.640  -0.696  0.00  0.00    -0.122 NA
ATOM      3  N   UNL     1       7.660  -2.119  -0.948  0.00  0.00    -0.135 NA
ATOM      4  C   UNL     1       8.001  -1.847  -2.176  0.00  0.00    +0.125 A 
ATOM      5  N   UNL     1       6.968  -1.147  -2.740  0.00  0.00    -0.275 N 
ENDROOT
BRANCH   5   6
ATOM      6  C   UNL     1       6.896  -0.651  -4.051  0.00  0.00    +0.050 A 
ATOM      7  C   UNL     1       6.870  -1.529  -5.126  0.00  0.00    +0.028 A 
ATOM      8  C   UNL     1       6.794  -1.038  -6.415  0.00  0.00    +0.022 A 
ATOM      9  C   UNL     1       6.754   0.327  -6.635  0.00  0.00    +0.041 A 
ATOM     10  C   UNL     1       6.785   1.204  -5.565  0.00  0.00    +0.022 A 
ATOM     11  C   UNL     1       6.856   0.718  -4.274  0.00  0.00    +0.028 A 
ATOM     12 CL   UNL     1       6.665   0.941  -8.256  0.00  0.00    -0.084 Cl
ENDBRANCH   5   6
BRANCH   4  13
ATOM     13  C   UNL     1       9.291  -2.236  -2.852  0.00  0.00    -0.003 C 
ATOM     14  C   UNL     1      10.423  -1.343  -2.341  0.00  0.00    -0.005 C 
BRANCH  13  15
ATOM     15  N   UNL     1       9.599  -3.640  -2.548  0.00  0.00    +0.382 N 
ATOM     16  C   UNL     1       8.490  -4.519  -2.940  0.00  0.00    -0.096 C 
ATOM     17  C   UNL     1      10.853  -4.055  -3.191  0.00  0.00    -0.096 C 
ATOM     18  H   UNL     1       9.732  -3.729  -1.459  0.00  0.00    -0.082 HD
ENDBRANCH  13  15
ENDBRANCH   4  13
BRANCH   1  19
ATOM     19  S   UNL     1       4.463  -0.221  -1.897  0.00  0.00    -0.080 S 
BRANCH  19  20
ATOM     20  C   UNL     1       3.815  -0.501  -0.230  0.00  0.00    +0.128 C 
BRANCH  20  22
ATOM     21  C   UNL     1       1.354  -0.668  -0.125  0.00  0.00    +0.071 C 
ATOM     22  C   UNL     1       2.449   0.123  -0.111  0.00  0.00    +0.034 C 
ATOM     23  N   UNL     1       2.337   1.479   0.010  0.00  0.00    -0.272 N 
ATOM     24  C   UNL     1       1.167   2.121   0.120  0.00  0.00    +0.304 C 
ATOM     25  O   UNL     1       1.169   3.332   0.223  0.00  0.00    -0.253 OA
ATOM     26  N   UNL     1      -0.012   1.468   0.122  0.00  0.00    -0.295 N 
ATOM     27  C   UNL     1      -0.001   0.001  -0.003  0.00  0.00    +0.150 C 
ATOM     28  H   UNL     1       3.241   2.106   0.020  0.00  0.00    +0.156 HD
ATOM     29  H   UNL     1      -0.968   2.005   0.214  0.00  0.00    +0.151 HD
BRANCH  21  30
ATOM     30  C   UNL     1       1.468  -2.072  -0.250  0.00  0.00    +0.338 C 
ATOM     31  O   UNL     1       1.276  -2.604  -1.327  0.00  0.00    -0.245 OA
BRANCH  30  32
ATOM     32  O   UNL     1       1.790  -2.821   0.825  0.00  0.00    -0.462 OA
BRANCH  32  34
ATOM     33  C   UNL     1       2.258  -4.909   1.948  0.00  0.00    +0.048 C 
ATOM     34  C   UNL     1       1.887  -4.233   0.626  0.00  0.00    +0.229 C 
ENDBRANCH  32  34
ENDBRANCH  30  32
ENDBRANCH  21  30
ENDBRANCH  20  22
ENDBRANCH  19  20
ENDBRANCH   1  19
TORSDOF 9
