REMARK  Name = ZINC64610967
REMARK  6 active torsions:
REMARK  status: ('A' for Active; 'I' for Inactive)
REMARK    1  A    between atoms: C_1  and  O_2
REMARK    2  A    between atoms: O_2  and  C_3
REMARK    3  A    between atoms: C_6  and  C_9
REMARK    4  A    between atoms: C_12  and  C_16
REMARK    5  A    between atoms: C_16  and  C_17
REMARK    6  A    between atoms: C_23  and  C_25
REMARK                            x       y       z     vdW  Elec       q    Type
REMARK                         _______ _______ _______ _____ _____    ______ ____
ROOT
ATOM      1  C   UNL     1       6.625  -4.941  -4.882  0.00  0.00    -0.004 C 
ATOM      2  C   UNL     1       6.261  -5.653  -6.187  0.00  0.00    +0.022 C 
ATOM      3  C   UNL     1       7.511  -5.772  -7.065  0.00  0.00    +0.108 C 
ATOM      4  N   UNL     1       8.571  -6.434  -6.291  0.00  0.00    -0.300 N 
ATOM      5  C   UNL     1       8.936  -5.884  -4.978  0.00  0.00    +0.108 C 
ATOM      6  C   UNL     1       7.670  -5.764  -4.125  0.00  0.00    +0.022 C 
ATOM      7  C   UNL     1       9.195  -7.526  -6.776  0.00  0.00    +0.242 C 
ATOM      8  O   UNL     1       8.884  -7.970  -7.861  0.00  0.00    -0.273 OA
ENDROOT
BRANCH   7   9
ATOM      9  C   UNL     1      10.280  -8.193  -5.971  0.00  0.00    +0.190 C 
ATOM     10  C   UNL     1      11.437  -7.242  -5.764  0.00  0.00    +0.016 C 
ATOM     11  C   UNL     1      12.511  -7.827  -6.343  0.00  0.00    -0.002 A 
ATOM     12  C   UNL     1      13.912  -7.415  -6.481  0.00  0.00    +0.029 A 
ATOM     13  C   UNL     1      14.776  -8.232  -7.128  0.00  0.00    +0.042 A 
ATOM     14  C   UNL     1      14.364  -9.460  -7.668  0.00  0.00    +0.022 A 
ATOM     15  C   UNL     1      13.094  -9.905  -7.580  0.00  0.00    +0.027 A 
ATOM     16  C   UNL     1      12.102  -9.127  -6.921  0.00  0.00    +0.043 A 
ATOM     17  N   UNL     1      10.825  -9.339  -6.708  0.00  0.00    -0.370 N 
ATOM     18 CL   UNL     1      16.434  -7.748  -7.295  0.00  0.00    -0.084 Cl
ATOM     19  H   UNL     1      10.325 -10.120  -6.990  0.00  0.00    +0.161 HD
ENDBRANCH   7   9
BRANCH   1  20
ATOM     20  C   UNL     1       5.371  -4.790  -4.018  0.00  0.00    +0.053 C 
BRANCH  20  23
ATOM     21  C   UNL     1       2.505  -2.503  -4.381  0.00  0.00    +0.180 C 
ATOM     22  N   UNL     1       3.099  -3.795  -3.963  0.00  0.00    -0.269 NA
ATOM     23  C   UNL     1       4.375  -3.865  -4.721  0.00  0.00    +0.211 C 
ATOM     24  O   UNL     1       4.847  -2.499  -4.708  0.00  0.00    -0.279 OA
ATOM     25  N   UNL     1       3.631  -1.677  -4.865  0.00  0.00    -0.178 NA
ATOM     26  H   UNL     1       3.269  -3.809  -2.968  0.00  0.00    +0.126 HD
ATOM     27  H   UNL     1       3.703  -0.820  -4.338  0.00  0.00    +0.156 HD
BRANCH  21  31
ATOM     28  C   UNL     1       0.606  -0.607  -1.056  0.00  0.00    +0.120 A 
ATOM     29  C   UNL     1       1.173   0.161  -2.062  0.00  0.00    +0.046 A 
ATOM     30  C   UNL     1       1.786  -0.455  -3.136  0.00  0.00    +0.010 A 
ATOM     31  C   UNL     1       1.835  -1.835  -3.209  0.00  0.00    -0.014 A 
ATOM     32  C   UNL     1       1.270  -2.602  -2.207  0.00  0.00    +0.010 A 
ATOM     33  C   UNL     1       0.661  -1.992  -1.128  0.00  0.00    +0.046 A 
BRANCH  28  35
ATOM     34  C   UNL     1      -0.017   1.425   0.010  0.00  0.00    +0.277 C 
ATOM     35  O   UNL     1       0.002  -0.004   0.002  0.00  0.00    -0.495 OA
ENDBRANCH  28  35
ENDBRANCH  21  31
ENDBRANCH  20  23
ENDBRANCH   1  20
TORSDOF 5
