REMARK  Name = ZINC07260081
REMARK  6 active torsions:
REMARK  status: ('A' for Active; 'I' for Inactive)
REMARK    1  A    between atoms: C_1  and  C_2
REMARK    2  A    between atoms: C_2  and  C_4
REMARK    3  A    between atoms: C_2  and  S_15
REMARK    4  A    between atoms: N_6  and  C_7
REMARK    5  A    between atoms: S_15  and  C_16
REMARK    6  A    between atoms: C_18  and  C_22
REMARK                            x       y       z     vdW  Elec       q    Type
REMARK                         _______ _______ _______ _____ _____    ______ ____
ROOT
ATOM      1  C   UNL     1      -0.027   1.507  -0.006  0.00  0.00    +0.029 C 
ATOM      2  C   UNL     1       0.001  -0.023  -0.004  0.00  0.00    +0.137 C 
ENDROOT
BRANCH   2   3
ATOM      3  C   UNL     1       0.731  -0.510   1.221  0.00  0.00    +0.230 C 
ATOM      4  O   UNL     1       0.105  -0.895   2.186  0.00  0.00    -0.274 OA
ATOM      5  N   UNL     1       2.079  -0.519   1.244  0.00  0.00    -0.282 N 
ATOM      6  H   UNL     1       2.579  -0.272   0.450  0.00  0.00    +0.155 HD
BRANCH   5   7
ATOM      7  C   UNL     1       2.757  -0.883   2.415  0.00  0.00    +0.069 A 
ATOM      8  C   UNL     1       2.228  -1.857   3.250  0.00  0.00    +0.029 A 
ATOM      9  C   UNL     1       2.898  -2.215   4.404  0.00  0.00    +0.040 A 
ATOM     10  C   UNL     1       4.097  -1.604   4.729  0.00  0.00    +0.126 A 
ATOM     11  C   UNL     1       4.628  -0.631   3.898  0.00  0.00    +0.078 A 
ATOM     12  C   UNL     1       3.964  -0.274   2.739  0.00  0.00    +0.147 A 
ATOM     13  F   UNL     1       4.484   0.671   1.925  0.00  0.00    -0.203 F 
ATOM     14  F   UNL     1       4.750  -1.956   5.858  0.00  0.00    -0.205 F 
ENDBRANCH   5   7
ENDBRANCH   2   3
BRANCH   2  15
ATOM     15  S   UNL     1      -1.697  -0.659   0.010  0.00  0.00    -0.074 S 
BRANCH  15  16
ATOM     16  C   UNL     1      -2.362  -0.134  -1.535  0.00  0.00    +0.185 A 
ATOM     17  N   UNL     1      -1.726   0.560  -2.453  0.00  0.00    -0.200 NA
ATOM     18  C   UNL     1      -2.541   0.779  -3.497  0.00  0.00    +0.189 A 
ATOM     19  N   UNL     1      -3.708   0.224  -3.249  0.00  0.00    -0.151 NA
ATOM     20  H   UNL     1      -4.309  -0.873  -1.524  0.00  0.00    +0.191 HD
ATOM     21  N   UNL     1      -3.613  -0.379  -1.985  0.00  0.00    -0.253 N 
BRANCH  18  22
ATOM     22  C   UNL     1      -2.186   1.524  -4.724  0.00  0.00    +0.058 A 
ATOM     23  C   UNL     1      -2.957   1.794  -5.823  0.00  0.00    +0.019 A 
ATOM     24  C   UNL     1      -2.404   2.515  -6.859  0.00  0.00    +0.008 A 
ATOM     25  C   UNL     1      -1.117   2.934  -6.760  0.00  0.00    +0.046 A 
ATOM     26  S   UNL     1      -0.643   2.312  -5.155  0.00  0.00    -0.093 S 
ENDBRANCH  18  22
ENDBRANCH  15  16
ENDBRANCH   2  15
TORSDOF 5
