REMARK  Name = ZINC40786953
REMARK  8 active torsions:
REMARK  status: ('A' for Active; 'I' for Inactive)
REMARK    1  A    between atoms: C_1  and  C_2
REMARK    2  A    between atoms: C_6  and  C_8
REMARK    3  A    between atoms: C_8  and  N_9
REMARK    4  A    between atoms: C_11  and  N_14
REMARK    5  A    between atoms: C_15  and  C_17
REMARK    6  A    between atoms: N_21  and  C_22
REMARK    7  A    between atoms: C_22  and  C_23
REMARK    8  A    between atoms: C_22  and  C_24
REMARK                            x       y       z     vdW  Elec       q    Type
REMARK                         _______ _______ _______ _____ _____    ______ ____
ROOT
ATOM      1  N   UNL     1       4.210  -2.958   5.128  0.00  0.00    -0.278 N 
ATOM      2  C   UNL     1       5.479  -3.387   4.981  0.00  0.00    +0.265 C 
ATOM      3  O   UNL     1       5.801  -4.005   3.982  0.00  0.00    -0.268 OA
ATOM      4  H   UNL     1       3.935  -2.532   5.955  0.00  0.00    +0.155 HD
ENDROOT
BRANCH   2   5
ATOM      5  C   UNL     1       6.471  -3.110   6.022  0.00  0.00    +0.106 A 
ATOM      6  C   UNL     1       6.218  -2.513   7.238  0.00  0.00    +0.048 A 
ATOM      7  C   UNL     1       7.422  -2.438   7.920  0.00  0.00    +0.038 A 
ATOM      8  C   UNL     1       8.437  -2.991   7.130  0.00  0.00    +0.057 A 
ATOM      9  N   UNL     1       7.816  -3.407   5.955  0.00  0.00    -0.333 N 
ATOM     10  C   UNL     1       9.721  -2.986   7.693  0.00  0.00    +0.034 A 
ATOM     11  C   UNL     1       9.918  -2.469   8.924  0.00  0.00    +0.048 A 
ATOM     12  S   UNL     1       8.279  -1.941   9.393  0.00  0.00    -0.095 S 
BRANCH   9  13
ATOM     13  C   UNL     1       8.486  -4.056   4.824  0.00  0.00    +0.082 C 
ATOM     14  C   UNL     1       9.649  -3.182   4.352  0.00  0.00    +0.030 C 
ATOM     15  C   UNL     1       9.018  -5.421   5.263  0.00  0.00    +0.030 C 
ENDBRANCH   9  13
ENDBRANCH   2   5
BRANCH   1  18
ATOM     16  N   UNL     1       1.440  -3.086   2.899  0.00  0.00    -0.265 N 
ATOM     17  C   UNL     1       1.982  -2.743   4.097  0.00  0.00    +0.132 A 
ATOM     18  C   UNL     1       3.284  -3.127   4.082  0.00  0.00    +0.072 A 
ATOM     19  C   UNL     1       3.543  -3.721   2.838  0.00  0.00    +0.157 A 
ATOM     20  N   UNL     1       2.440  -3.701   2.135  0.00  0.00    -0.177 NA
BRANCH  16  21
ATOM     21  C   UNL     1       0.054  -2.859   2.483  0.00  0.00    +0.178 C 
BRANCH  21  27
ATOM     22  C   UNL     1      -0.021   1.493   0.013  0.00  0.00    +0.044 C 
ATOM     23  C   UNL     1       0.002  -0.014   0.002  0.00  0.00    -0.050 A 
ATOM     24  C   UNL     1       0.008  -0.696  -1.200  0.00  0.00    +0.003 A 
ATOM     25  C   UNL     1       0.029  -2.078  -1.211  0.00  0.00    +0.001 A 
ATOM     26  C   UNL     1       0.043  -2.778  -0.018  0.00  0.00    +0.005 A 
ATOM     27  C   UNL     1       0.038  -2.096   1.184  0.00  0.00    -0.026 A 
ATOM     28  C   UNL     1       0.022  -0.714   1.194  0.00  0.00    +0.008 A 
ENDBRANCH  21  27
ENDBRANCH  16  21
ENDBRANCH   1  18
TORSDOF 5
