REMARK  Name = ZINC38700775
REMARK  11 active torsions:
REMARK  status: ('A' for Active; 'I' for Inactive)
REMARK    1  A    between atoms: C_1  and  C_2
REMARK    2  A    between atoms: C_2  and  C_3
REMARK    3  A    between atoms: C_3  and  C_4
REMARK    4  A    between atoms: C_4  and  O_5
REMARK    5  A    between atoms: O_5  and  C_6
REMARK    6  A    between atoms: C_11  and  C_12
REMARK    7  A    between atoms: C_17  and  O_26
REMARK    8  A    between atoms: C_21  and  N_25
REMARK    9  A    between atoms: C_22  and  C_23
REMARK   10  A    between atoms: O_26  and  C_27
REMARK   11  A    between atoms: C_27  and  C_29
REMARK                            x       y       z     vdW  Elec       q    Type
REMARK                         _______ _______ _______ _____ _____    ______ ____
ROOT
ATOM      1  C   UNL     1       2.812  -3.479   4.737  0.00  0.00    +0.101 C 
ATOM      2  C   UNL     1       4.299  -3.712   4.802  0.00  0.00    +0.008 A 
ATOM      3  C   UNL     1       5.101  -3.280   3.760  0.00  0.00    +0.012 A 
ATOM      4  C   UNL     1       6.466  -3.484   3.802  0.00  0.00    +0.047 A 
ATOM      5  C   UNL     1       7.038  -4.125   4.892  0.00  0.00    +0.135 A 
ATOM      6  C   UNL     1       6.238  -4.558   5.937  0.00  0.00    +0.093 A 
ATOM      7  C   UNL     1       4.865  -4.352   5.893  0.00  0.00    +0.138 A 
ATOM      8  O   UNL     1       4.096  -4.782   6.923  0.00  0.00    -0.441 OA
ATOM      9  C   UNL     1       2.865  -4.273   7.098  0.00  0.00    +0.199 C 
ATOM     10  C   UNL     1       2.204  -3.645   6.101  0.00  0.00    +0.098 C 
ENDROOT
BRANCH   1  16
ATOM     11  C   UNL     1       1.509  -4.031   2.667  0.00  0.00    +0.125 A 
ATOM     12  C   UNL     1       0.944  -4.949   1.794  0.00  0.00    +0.046 A 
ATOM     13  C   UNL     1       1.058  -6.302   2.048  0.00  0.00    +0.004 A 
ATOM     14  C   UNL     1       1.736  -6.742   3.170  0.00  0.00    +0.001 A 
ATOM     15  C   UNL     1       2.299  -5.828   4.042  0.00  0.00    +0.008 A 
ATOM     16  C   UNL     1       2.192  -4.474   3.790  0.00  0.00    +0.007 A 
BRANCH  11  17
ATOM     17  O   UNL     1       1.398  -2.699   2.420  0.00  0.00    -0.492 OA
BRANCH  17  18
ATOM     18  C   UNL     1       0.680  -2.315   1.246  0.00  0.00    +0.229 C 
BRANCH  18  19
ATOM     19  C   UNL     1       0.660  -0.789   1.136  0.00  0.00    +0.041 C 
BRANCH  19  21
ATOM     20  C   UNL     1      -0.127   1.148  -0.232  0.00  0.00    +0.004 C 
ATOM     21  C   UNL     1      -0.108  -0.378  -0.122  0.00  0.00    -0.000 C 
ENDBRANCH  19  21
ENDBRANCH  18  19
ENDBRANCH  17  18
ENDBRANCH  11  17
ENDBRANCH   1  16
BRANCH   9  22
ATOM     22  N   UNL     1       2.262  -4.396   8.325  0.00  0.00    -0.328 N 
ATOM     23  H   UNL     1       2.724  -4.845   9.050  0.00  0.00    +0.145 HD
ATOM     24  H   UNL     1       1.373  -4.033   8.467  0.00  0.00    +0.145 HD
ENDBRANCH   9  22
BRANCH  10  25
ATOM     25  C   UNL     1       0.894  -3.125   6.353  0.00  0.00    +0.101 C 
ATOM     26  N   UNL     1      -0.146  -2.712   6.553  0.00  0.00    -0.191 NA
ENDBRANCH  10  25
BRANCH   5  27
ATOM     27  O   UNL     1       8.381  -4.327   4.935  0.00  0.00    -0.423 OA
BRANCH  27  28
ATOM     28  C   UNL     1       8.833  -5.586   4.823  0.00  0.00    +0.357 C 
ATOM     29  O   UNL     1       8.062  -6.486   4.585  0.00  0.00    -0.246 OA
BRANCH  28  30
ATOM     30  C   UNL     1      10.302  -5.878   4.993  0.00  0.00    +0.319 C 
ATOM     31  C   UNL     1      10.724  -5.580   6.438  0.00  0.00    +0.285 C 
ATOM     32  O   UNL     1      12.118  -5.880   6.569  0.00  0.00    -0.484 OA
ATOM     33  C   UNL     1      12.540  -7.063   6.045  0.00  0.00    +0.162 A 
ATOM     34  C   UNL     1      13.763  -7.585   6.440  0.00  0.00    +0.049 A 
ATOM     35  C   UNL     1      14.207  -8.783   5.914  0.00  0.00    +0.004 A 
ATOM     36  C   UNL     1      13.433  -9.466   4.995  0.00  0.00    +0.004 A 
ATOM     37  C   UNL     1      12.213  -8.953   4.599  0.00  0.00    +0.049 A 
ATOM     38  C   UNL     1      11.761  -7.751   5.123  0.00  0.00    +0.163 A 
ATOM     39  O   UNL     1      10.553  -7.263   4.729  0.00  0.00    -0.470 OA
ENDBRANCH  28  30
ENDBRANCH  27  28
ENDBRANCH   5  27
TORSDOF 10
