REMARK  Name = ZINC20206863
REMARK  8 active torsions:
REMARK  status: ('A' for Active; 'I' for Inactive)
REMARK    1  A    between atoms: C_4  and  C_7
REMARK    2  A    between atoms: C_7  and  N_8
REMARK    3  A    between atoms: N_11  and  C_18
REMARK    4  A    between atoms: C_13  and  C_15
REMARK    5  A    between atoms: C_15  and  C_16
REMARK    6  A    between atoms: C_16  and  O_17
REMARK    7  A    between atoms: C_18  and  C_19
REMARK    8  A    between atoms: C_24  and  C_25
REMARK                            x       y       z     vdW  Elec       q    Type
REMARK                         _______ _______ _______ _____ _____    ______ ____
ROOT
ATOM      1  N   UNL     1       5.687   0.278   0.919  0.00  0.00    -0.299 NA
ATOM      2  C   UNL     1       5.559   1.275  -0.152  0.00  0.00    +0.066 C 
ATOM      3  C   UNL     1       4.674   2.427   0.330  0.00  0.00    -0.063 C 
ATOM      4  N   UNL     1       3.358   1.901   0.717  0.00  0.00    +0.384 N 
ATOM      5  C   UNL     1       3.486   0.904   1.788  0.00  0.00    -0.059 C 
ATOM      6  C   UNL     1       4.371  -0.248   1.306  0.00  0.00    +0.043 C 
ATOM      7  H   UNL     1       2.920   1.403  -0.161  0.00  0.00    -0.081 HD
ENDROOT
BRANCH   1   8
ATOM      8  C   UNL     1       6.592  -0.809   0.521  0.00  0.00    +0.119 C 
BRANCH   8  12
ATOM      9  C   UNL     1      10.558   0.721   0.101  0.00  0.00    +0.000 A 
ATOM     10  C   UNL     1      10.132   0.231   1.321  0.00  0.00    +0.000 A 
ATOM     11  C   UNL     1       8.849  -0.264   1.457  0.00  0.00    +0.005 A 
ATOM     12  C   UNL     1       7.991  -0.269   0.373  0.00  0.00    -0.033 A 
ATOM     13  C   UNL     1       8.419   0.216  -0.849  0.00  0.00    +0.005 A 
ATOM     14  C   UNL     1       9.701   0.716  -0.984  0.00  0.00    +0.000 A 
ENDBRANCH   8  12
ENDBRANCH   1   8
BRANCH   6  15
ATOM     15  C   UNL     1       4.540  -1.269   2.433  0.00  0.00    +0.045 C 
BRANCH  15  16
ATOM     16  C   UNL     1       3.178  -1.871   2.784  0.00  0.00    +0.157 C 
BRANCH  16  17
ATOM     17  O   UNL     1       3.351  -2.911   3.748  0.00  0.00    -0.395 OA
ATOM     18  H   UNL     1       2.477  -3.464   4.124  0.00  0.00    +0.209 HD
ENDBRANCH  16  17
ENDBRANCH  15  16
ENDBRANCH   6  15
BRANCH   4  19
ATOM     19  C   UNL     1       2.453   2.988   1.115  0.00  0.00    -0.042 C 
BRANCH  19  20
ATOM     20  C   UNL     1       2.155   3.857  -0.080  0.00  0.00    -0.053 A 
ATOM     21  C   UNL     1       2.828   5.049  -0.253  0.00  0.00    +0.002 A 
ATOM     22  C   UNL     1       2.552   5.851  -1.346  0.00  0.00    +0.000 A 
ATOM     23  C   UNL     1       1.605   5.461  -2.276  0.00  0.00    +0.001 A 
ATOM     24  C   UNL     1       0.929   4.269  -2.118  0.00  0.00    +0.012 A 
ATOM     25  C   UNL     1       1.202   3.455  -1.017  0.00  0.00    +0.019 A 
BRANCH  25  26
ATOM     26  C   UNL     1       0.482   2.177  -0.841  0.00  0.00    +0.135 A 
ATOM     27  C   UNL     1      -0.865   2.006  -0.900  0.00  0.00    +0.050 A 
ATOM     28  C   UNL     1      -1.110   0.635  -0.682  0.00  0.00    +0.042 A 
ATOM     29  C   UNL     1       0.086   0.045  -0.496  0.00  0.00    +0.196 A 
ATOM     30  O   UNL     1       1.046   0.979  -0.595  0.00  0.00    -0.463 OA
ENDBRANCH  25  26
ENDBRANCH  19  20
ENDBRANCH   4  19
TORSDOF 8
