REMARK  Name = ZINC49415915
REMARK  4 active torsions:
REMARK  status: ('A' for Active; 'I' for Inactive)
REMARK    1  A    between atoms: C_4  and  O_7
REMARK    2  A    between atoms: O_7  and  C_8
REMARK    3  A    between atoms: C_13  and  C_14
REMARK    4  A    between atoms: N_16  and  C_17
REMARK                            x       y       z     vdW  Elec       q    Type
REMARK                         _______ _______ _______ _____ _____    ______ ____
ROOT
ATOM      1  C   UNL     1       6.053  -1.998   0.153  0.00  0.00    +0.252 C 
ATOM      2  O   UNL     1       6.082  -0.786   0.056  0.00  0.00    -0.270 OA
ATOM      3  N   UNL     1       7.203  -2.695   0.240  0.00  0.00    -0.280 N 
ATOM      4  H   UNL     1       7.184  -3.665   0.234  0.00  0.00    +0.155 HD
ENDROOT
BRANCH   3   5
ATOM      5  C   UNL     1       8.422  -2.022   0.340  0.00  0.00    +0.060 A 
ATOM      6  C   UNL     1       8.469  -0.743   0.851  0.00  0.00    +0.025 A 
ATOM      7  C   UNL     1       9.677  -0.061   0.955  0.00  0.00    +0.003 A 
ATOM      8  C   UNL     1      10.845  -0.638   0.555  0.00  0.00    +0.010 A 
ATOM      9  C   UNL     1      10.838  -1.940   0.029  0.00  0.00    +0.002 A 
ATOM     10  C   UNL     1       9.617  -2.648  -0.077  0.00  0.00    +0.094 A 
ATOM     11  N   UNL     1       9.606  -3.889  -0.573  0.00  0.00    -0.227 NA
ATOM     12  C   UNL     1      10.716  -4.478  -0.963  0.00  0.00    +0.139 A 
ATOM     13  C   UNL     1      11.956  -3.835  -0.879  0.00  0.00    +0.047 A 
ATOM     14  C   UNL     1      12.030  -2.562  -0.394  0.00  0.00    +0.013 A 
ATOM     15  N   UNL     1      10.655  -5.777  -1.474  0.00  0.00    -0.290 N 
ATOM     16  C   UNL     1       9.518  -6.506  -1.717  0.00  0.00    +0.114 A 
ATOM     17  C   UNL     1       9.915  -7.696  -2.204  0.00  0.00    +0.130 A 
ATOM     18  N   UNL     1      11.255  -7.701  -2.259  0.00  0.00    -0.244 NA
ATOM     19  C   UNL     1      11.710  -6.556  -1.830  0.00  0.00    +0.205 A 
ENDBRANCH   3   5
BRANCH   1  25
ATOM     20  C   UNL     1       3.560  -1.984   0.085  0.00  0.00    +0.141 A 
ATOM     21  C   UNL     1       2.348  -2.659   0.101  0.00  0.00    +0.047 A 
ATOM     22  C   UNL     1       2.325  -4.035   0.211  0.00  0.00    +0.004 A 
ATOM     23  C   UNL     1       3.507  -4.751   0.306  0.00  0.00    +0.001 A 
ATOM     24  C   UNL     1       4.720  -4.096   0.291  0.00  0.00    +0.017 A 
ATOM     25  C   UNL     1       4.758  -2.705   0.175  0.00  0.00    +0.079 A 
BRANCH  20  26
ATOM     26  O   UNL     1       3.585  -0.632  -0.024  0.00  0.00    -0.455 OA
BRANCH  26  30
ATOM     27  C   UNL     1      -0.015   1.383   0.034  0.00  0.00    +0.000 A 
ATOM     28  C   UNL     1       0.412   0.701   1.158  0.00  0.00    +0.004 A 
ATOM     29  C   UNL     1       1.617   0.025   1.141  0.00  0.00    +0.046 A 
ATOM     30  C   UNL     1       2.399   0.032  -0.005  0.00  0.00    +0.128 A 
ATOM     31  C   UNL     1       1.968   0.718  -1.132  0.00  0.00    +0.046 A 
ATOM     32  C   UNL     1       0.762   1.391  -1.110  0.00  0.00    +0.004 A 
ENDBRANCH  26  30
ENDBRANCH  20  26
ENDBRANCH   1  25
TORSDOF 4
