REMARK  Name = ZINC36256404
REMARK  6 active torsions:
REMARK  status: ('A' for Active; 'I' for Inactive)
REMARK    1  A    between atoms: C_1  and  C_2
REMARK    2  A    between atoms: C_3  and  C_18
REMARK    3  A    between atoms: C_5  and  C_15
REMARK    4  A    between atoms: C_6  and  C_10
REMARK    5  A    between atoms: C_15  and  C_16
REMARK    6  A    between atoms: C_16  and  N_17
REMARK                            x       y       z     vdW  Elec       q    Type
REMARK                         _______ _______ _______ _____ _____    ______ ____
ROOT
ATOM      1  C   UNL     1      -0.018   1.503   0.010  0.00  0.00    +0.054 C 
ATOM      2  C   UNL     1       0.002  -0.004   0.002  0.00  0.00    +0.015 A 
ATOM      3  C   UNL     1      -1.034  -0.868   0.002  0.00  0.00    +0.072 A 
ATOM      4  N   UNL     1      -0.803  -2.233  -0.007  0.00  0.00    -0.289 N 
ATOM      5  C   UNL     1      -1.550  -3.406  -0.010  0.00  0.00    +0.053 A 
ATOM      6  C   UNL     1      -0.678  -4.446  -0.020  0.00  0.00    +0.128 A 
ATOM      7  N   UNL     1       0.574  -3.942  -0.023  0.00  0.00    -0.218 NA
ATOM      8  C   UNL     1       0.504  -2.642  -0.015  0.00  0.00    +0.179 A 
ATOM      9  S   UNL     1       1.405  -1.109  -0.018  0.00  0.00    -0.054 S 
ENDROOT
BRANCH   6  10
ATOM     10  C   UNL     1      -1.036  -5.881  -0.025  0.00  0.00    +0.155 A 
ATOM     11  C   UNL     1      -0.355  -6.871  -0.661  0.00  0.00    +0.051 A 
ATOM     12  C   UNL     1      -1.046  -8.072  -0.399  0.00  0.00    +0.042 A 
ATOM     13  C   UNL     1      -2.103  -7.758   0.375  0.00  0.00    +0.196 A 
ATOM     14  O   UNL     1      -2.091  -6.434   0.603  0.00  0.00    -0.461 OA
ENDBRANCH   6  10
BRANCH   3  15
ATOM     15  C   UNL     1      -2.417  -0.356   0.011  0.00  0.00    +0.037 A 
ATOM     16  C   UNL     1      -3.077   0.366  -0.949  0.00  0.00    +0.017 A 
ATOM     17  C   UNL     1      -4.384   0.738  -0.714  0.00  0.00    +0.008 A 
ATOM     18  C   UNL     1      -4.974   0.379   0.454  0.00  0.00    +0.046 A 
ATOM     19  S   UNL     1      -3.669  -0.523   1.272  0.00  0.00    -0.095 S 
ENDBRANCH   3  15
BRANCH   5  20
ATOM     20  C   UNL     1      -3.054  -3.505  -0.003  0.00  0.00    +0.036 C 
BRANCH  20  21
ATOM     21  C   UNL     1      -3.570  -3.530  -1.443  0.00  0.00    -0.080 C 
BRANCH  21  22
ATOM     22  N   UNL     1      -5.036  -3.627  -1.436  0.00  0.00    +0.378 N 
ATOM     23  H   UNL     1      -5.315  -4.474  -0.964  0.00  0.00    -0.090 HD
ATOM     24  H   UNL     1      -5.423  -2.829  -0.954  0.00  0.00    -0.090 HD
ATOM     25  H   UNL     1      -5.376  -3.643  -2.386  0.00  0.00    -0.090 HD
ENDBRANCH  21  22
ENDBRANCH  20  21
ENDBRANCH   5  20
TORSDOF 5
