REMARK  Name = ZINC05967691
REMARK  8 active torsions:
REMARK  status: ('A' for Active; 'I' for Inactive)
REMARK    1  A    between atoms: C_1  and  C_2
REMARK    2  A    between atoms: C_2  and  O_3
REMARK    3  A    between atoms: O_3  and  C_4
REMARK    4  A    between atoms: C_9  and  N_10
REMARK    5  A    between atoms: C_14  and  N_15
REMARK    6  A    between atoms: N_15  and  C_16
REMARK    7  A    between atoms: C_16  and  C_17
REMARK    8  A    between atoms: C_17  and  C_18
REMARK                            x       y       z     vdW  Elec       q    Type
REMARK                         _______ _______ _______ _____ _____    ______ ____
ROOT
ATOM      1  N   UNL     1       2.204  -2.057   3.809  0.00  0.00    -0.186 N 
ATOM      2  C   UNL     1       1.402  -1.517   4.750  0.00  0.00    +0.265 C 
ATOM      3  O   UNL     1       0.276  -1.941   4.930  0.00  0.00    -0.269 OA
ATOM      4  C   UNL     1       1.928  -0.399   5.554  0.00  0.00    +0.113 C 
ATOM      5  C   UNL     1       1.165   0.204   6.537  0.00  0.00    +0.085 C 
ATOM      6  C   UNL     1       3.302   0.047   5.266  0.00  0.00    +0.258 C 
ATOM      7  O   UNL     1       3.805   0.963   5.888  0.00  0.00    -0.270 OA
ATOM      8  N   UNL     1       3.988  -0.589   4.293  0.00  0.00    -0.235 N 
ATOM      9  C   UNL     1       3.448  -1.603   3.604  0.00  0.00    +0.320 C 
ATOM     10  O   UNL     1       4.120  -2.137   2.744  0.00  0.00    -0.251 OA
ATOM     11  H   UNL     1       4.894  -0.307   4.091  0.00  0.00    +0.159 HD
ENDROOT
BRANCH   1  17
ATOM     12  C   UNL     1       1.067  -2.870   1.830  0.00  0.00    +0.142 A 
ATOM     13  C   UNL     1       0.602  -3.926   1.063  0.00  0.00    +0.047 A 
ATOM     14  C   UNL     1       0.787  -5.226   1.493  0.00  0.00    +0.004 A 
ATOM     15  C   UNL     1       1.435  -5.478   2.688  0.00  0.00    +0.002 A 
ATOM     16  C   UNL     1       1.901  -4.430   3.459  0.00  0.00    +0.028 A 
ATOM     17  C   UNL     1       1.725  -3.123   3.031  0.00  0.00    +0.087 A 
BRANCH  12  18
ATOM     18  O   UNL     1       0.887  -1.590   1.408  0.00  0.00    -0.490 OA
BRANCH  18  20
ATOM     19  C   UNL     1       0.097   0.089  -0.141  0.00  0.00    +0.048 C 
ATOM     20  C   UNL     1       0.204  -1.406   0.166  0.00  0.00    +0.226 C 
ENDBRANCH  18  20
ENDBRANCH  12  18
ENDBRANCH   1  17
BRANCH   5  21
ATOM     21  N   UNL     1      -0.139  -0.114   6.668  0.00  0.00    -0.349 N 
ATOM     22  H   UNL     1      -0.561  -0.704   6.024  0.00  0.00    +0.146 HD
BRANCH  21  23
ATOM     23  C   UNL     1      -0.917   0.432   7.782  0.00  0.00    +0.105 C 
BRANCH  23  24
ATOM     24  C   UNL     1      -2.357  -0.081   7.699  0.00  0.00    +0.056 C 
BRANCH  24  25
ATOM     25  C   UNL     1      -3.157   0.481   8.845  0.00  0.00    -0.021 A 
ATOM     26  C   UNL     1      -3.385  -0.114  10.027  0.00  0.00    +0.087 A 
ATOM     27  N   UNL     1      -4.153   0.697  10.817  0.00  0.00    -0.360 N 
ATOM     28  H   UNL     1      -4.448   0.483  11.716  0.00  0.00    +0.165 HD
ATOM     29  C   UNL     1      -4.446   1.864  10.146  0.00  0.00    +0.047 A 
ATOM     30  C   UNL     1      -3.829   1.782   8.884  0.00  0.00    +0.003 A 
ATOM     31  C   UNL     1      -3.952   2.838   7.980  0.00  0.00    +0.010 A 
ATOM     32  C   UNL     1      -4.668   3.949   8.327  0.00  0.00    +0.001 A 
ATOM     33  C   UNL     1      -5.274   4.036   9.572  0.00  0.00    +0.002 A 
ATOM     34  C   UNL     1      -5.174   3.002  10.477  0.00  0.00    +0.026 A 
ENDBRANCH  24  25
ENDBRANCH  23  24
ENDBRANCH  21  23
ENDBRANCH   5  21
TORSDOF 7
