REMARK  Name = ZINC39914771
REMARK  10 active torsions:
REMARK  status: ('A' for Active; 'I' for Inactive)
REMARK    1  A    between atoms: C_1  and  C_2
REMARK    2  A    between atoms: C_5  and  C_8
REMARK    3  A    between atoms: C_8  and  N_9
REMARK    4  A    between atoms: C_10  and  C_29
REMARK    5  A    between atoms: C_13  and  C_20
REMARK    6  A    between atoms: C_23  and  C_27
REMARK    7  A    between atoms: C_25  and  O_26
REMARK    8  A    between atoms: C_32  and  C_35
REMARK    9  A    between atoms: C_35  and  C_36
REMARK   10  A    between atoms: C_35  and  C_37
REMARK                            x       y       z     vdW  Elec       q    Type
REMARK                         _______ _______ _______ _____ _____    ______ ____
ROOT
ATOM      1  N   UNL     1       1.247  -4.520  -0.251  0.00  0.00    -0.281 N 
ATOM      2  C   UNL     1       2.341  -4.718  -1.210  0.00  0.00    +0.142 C 
ATOM      3  C   UNL     1       3.538  -5.128  -0.397  0.00  0.00    +0.035 A 
ATOM      4  C   UNL     1       4.888  -5.495  -0.388  0.00  0.00    +0.102 A 
ATOM      5  N   UNL     1       5.228  -5.718   0.866  0.00  0.00    -0.173 NA
ATOM      6  N   UNL     1       4.227  -5.527   1.650  0.00  0.00    -0.272 N 
ATOM      7  H   UNL     1       4.247  -5.632   2.614  0.00  0.00    +0.189 HD
ATOM      8  C   UNL     1       3.132  -5.154   0.923  0.00  0.00    +0.126 A 
ATOM      9  C   UNL     1       1.718  -4.770   0.984  0.00  0.00    +0.266 C 
ATOM     10  O   UNL     1       1.062  -4.691   2.006  0.00  0.00    -0.268 OA
ENDROOT
BRANCH   4  11
ATOM     11  C   UNL     1       5.774  -5.614  -1.573  0.00  0.00    +0.045 A 
ATOM     12  C   UNL     1       5.334  -6.284  -2.711  0.00  0.00    +0.034 A 
ATOM     13  C   UNL     1       6.162  -6.391  -3.811  0.00  0.00    +0.045 A 
ATOM     14  C   UNL     1       7.430  -5.835  -3.786  0.00  0.00    -0.029 A 
ATOM     15  C   UNL     1       7.876  -5.168  -2.660  0.00  0.00    +0.050 A 
ATOM     16  C   UNL     1       7.052  -5.048  -1.552  0.00  0.00    +0.126 A 
ATOM     17  C   UNL     1       8.328  -5.957  -4.990  0.00  0.00    +0.045 C 
ATOM     18 CL   UNL     1       5.613  -7.227  -5.230  0.00  0.00    -0.083 Cl
BRANCH  16  19
ATOM     19  O   UNL     1       7.488  -4.388  -0.448  0.00  0.00    -0.506 OA
ATOM     20  H   UNL     1       7.943  -4.951   0.194  0.00  0.00    +0.292 HD
ENDBRANCH  16  19
ENDBRANCH   4  11
BRANCH   2  21
ATOM     21  C   UNL     1       2.626  -3.433  -1.945  0.00  0.00    -0.022 A 
ATOM     22  C   UNL     1       2.810  -2.260  -1.238  0.00  0.00    +0.006 A 
ATOM     23  C   UNL     1       3.072  -1.081  -1.912  0.00  0.00    +0.004 A 
ATOM     24  C   UNL     1       3.149  -1.077  -3.292  0.00  0.00    -0.045 A 
ATOM     25  C   UNL     1       2.966  -2.251  -3.998  0.00  0.00    +0.004 A 
ATOM     26  C   UNL     1       2.709  -3.430  -3.325  0.00  0.00    +0.006 A 
BRANCH  24  27
ATOM     27  C   UNL     1       3.433   0.208  -4.026  0.00  0.00    +0.013 C 
ATOM     28  C   UNL     1       4.723   0.059  -4.835  0.00  0.00    +0.012 C 
ATOM     29  C   UNL     1       2.272   0.523  -4.972  0.00  0.00    +0.012 C 
ENDBRANCH  24  27
ENDBRANCH   2  21
BRANCH   1  30
ATOM     30  C   UNL     1      -0.121  -4.114  -0.582  0.00  0.00    +0.144 C 
BRANCH  30  35
ATOM     31  C   UNL     1      -0.495   1.652  -0.502  0.00  0.00    +0.044 C 
ATOM     32  C   UNL     1      -0.398   0.148  -0.523  0.00  0.00    -0.050 A 
ATOM     33  C   UNL     1      -0.061  -0.506  -1.693  0.00  0.00    +0.003 A 
ATOM     34  C   UNL     1       0.029  -1.886  -1.712  0.00  0.00    +0.005 A 
ATOM     35  C   UNL     1      -0.218  -2.610  -0.561  0.00  0.00    -0.030 A 
ATOM     36  C   UNL     1      -0.554  -1.956   0.609  0.00  0.00    +0.005 A 
ATOM     37  C   UNL     1      -0.640  -0.576   0.629  0.00  0.00    +0.003 A 
ENDBRANCH  30  35
ENDBRANCH   1  30
TORSDOF 6
