REMARK  Name = ZINC38965797
REMARK  10 active torsions:
REMARK  status: ('A' for Active; 'I' for Inactive)
REMARK    1  A    between atoms: C_1  and  O_2
REMARK    2  A    between atoms: O_2  and  C_3
REMARK    3  A    between atoms: C_6  and  S_9
REMARK    4  A    between atoms: S_9  and  N_12
REMARK    5  A    between atoms: C_14  and  N_24
REMARK    6  A    between atoms: N_24  and  C_25
REMARK    7  A    between atoms: C_27  and  O_33
REMARK    8  A    between atoms: C_29  and  O_31
REMARK    9  A    between atoms: O_31  and  C_32
REMARK   10  A    between atoms: O_33  and  C_34
REMARK                            x       y       z     vdW  Elec       q    Type
REMARK                         _______ _______ _______ _____ _____    ______ ____
ROOT
ATOM      1  N   UNL     1       1.807  -2.746   5.789  0.00  0.00    -0.110 NA
ATOM      2  C   UNL     1       2.009  -3.427   6.878  0.00  0.00    +0.192 C 
ATOM      3  C   UNL     1       0.866  -3.720   7.823  0.00  0.00    +0.237 C 
ATOM      4  N   UNL     1       1.160  -4.495   9.039  0.00  0.00    -0.359 N 
ATOM      5  C   UNL     1       2.386  -4.891   9.242  0.00  0.00    +0.063 A 
ATOM      6  C   UNL     1       2.732  -5.668  10.441  0.00  0.00    +0.027 A 
ATOM      7  C   UNL     1       4.013  -6.061  10.618  0.00  0.00    +0.002 A 
ATOM      8  C   UNL     1       5.017  -5.745   9.687  0.00  0.00    +0.002 A 
ATOM      9  C   UNL     1       4.775  -5.035   8.564  0.00  0.00    +0.030 A 
ATOM     10  C   UNL     1       3.466  -4.572   8.277  0.00  0.00    +0.089 A 
ATOM     11  N   UNL     1       3.235  -3.884   7.178  0.00  0.00    -0.226 NA
ATOM     12  H   UNL     1       0.458  -4.707   9.674  0.00  0.00    +0.162 HD
ENDROOT
BRANCH   1  13
ATOM     13  S   UNL     1       3.067  -2.438   4.759  0.00  0.00    +0.100 S 
ATOM     14  O   UNL     1       3.473  -3.692   4.228  0.00  0.00    -0.146 OA
ATOM     15  O   UNL     1       3.961  -1.581   5.456  0.00  0.00    -0.146 OA
BRANCH  13  19
ATOM     16  C   UNL     1       1.409  -0.039   1.295  0.00  0.00    +0.120 A 
ATOM     17  C   UNL     1       1.899   0.611   2.419  0.00  0.00    +0.047 A 
ATOM     18  C   UNL     1       2.404  -0.123   3.474  0.00  0.00    +0.032 A 
ATOM     19  C   UNL     1       2.422  -1.504   3.412  0.00  0.00    +0.113 A 
ATOM     20  C   UNL     1       1.935  -2.154   2.292  0.00  0.00    +0.032 A 
ATOM     21  C   UNL     1       1.423  -1.425   1.237  0.00  0.00    +0.047 A 
BRANCH  16  23
ATOM     22  C   UNL     1       0.929   2.104   0.385  0.00  0.00    +0.277 C 
ATOM     23  O   UNL     1       0.911   0.681   0.255  0.00  0.00    -0.495 OA
ENDBRANCH  16  23
ENDBRANCH  13  19
ENDBRANCH   1  13
BRANCH   3  24
ATOM     24  N   UNL     1       0.290  -2.438   8.240  0.00  0.00    -0.318 N 
ATOM     25  H   UNL     1       0.873  -1.702   8.485  0.00  0.00    +0.148 HD
BRANCH  24  26
ATOM     26  C   UNL     1      -1.096  -2.277   8.285  0.00  0.00    +0.036 A 
ATOM     27  C   UNL     1      -1.642  -1.023   8.524  0.00  0.00    +0.068 A 
ATOM     28  C   UNL     1      -3.019  -0.864   8.569  0.00  0.00    +0.125 A 
ATOM     29  C   UNL     1      -3.850  -1.957   8.376  0.00  0.00    +0.091 A 
ATOM     30  C   UNL     1      -3.305  -3.210   8.137  0.00  0.00    +0.125 A 
ATOM     31  C   UNL     1      -1.929  -3.370   8.086  0.00  0.00    +0.068 A 
BRANCH  30  32
ATOM     32  O   UNL     1      -4.121  -4.281   7.949  0.00  0.00    -0.495 OA
ATOM     33  C   UNL     1      -5.529  -4.043   8.010  0.00  0.00    +0.277 C 
ENDBRANCH  30  32
BRANCH  28  34
ATOM     34  O   UNL     1      -3.553   0.363   8.802  0.00  0.00    -0.495 OA
ATOM     35  C   UNL     1      -4.979   0.454   8.835  0.00  0.00    +0.277 C 
ENDBRANCH  28  34
ENDBRANCH  24  26
ENDBRANCH   3  24
TORSDOF 7
