REMARK  Name = ZINC09113356
REMARK  11 active torsions:
REMARK  status: ('A' for Active; 'I' for Inactive)
REMARK    1  A    between atoms: C_1  and  C_2
REMARK    2  A    between atoms: C_3  and  C_31
REMARK    3  A    between atoms: C_4  and  C_21
REMARK    4  A    between atoms: C_10  and  C_15
REMARK    5  A    between atoms: C_24  and  O_27
REMARK    6  A    between atoms: O_27  and  C_28
REMARK    7  A    between atoms: C_28  and  C_30
REMARK    8  A    between atoms: C_31  and  O_33
REMARK    9  A    between atoms: O_33  and  C_34
REMARK   10  A    between atoms: C_34  and  C_35
REMARK   11  A    between atoms: C_35  and  C_36
REMARK                            x       y       z     vdW  Elec       q    Type
REMARK                         _______ _______ _______ _____ _____    ______ ____
ROOT
ATOM      1  C   UNL     1       5.941  -1.339  -4.503  0.00  0.00    +0.061 C 
ATOM      2  C   UNL     1       6.912  -2.167  -3.702  0.00  0.00    +0.031 C 
ATOM      3  C   UNL     1       7.083  -1.916  -2.392  0.00  0.00    +0.154 C 
ATOM      4  C   UNL     1       8.041  -2.719  -1.564  0.00  0.00    +0.073 C 
ATOM      5  C   UNL     1       9.011  -3.476  -2.434  0.00  0.00    +0.025 C 
ATOM      6  C   UNL     1       8.760  -3.661  -3.747  0.00  0.00    +0.049 C 
ATOM      7  N   UNL     1       7.614  -3.169  -4.312  0.00  0.00    -0.260 NA
ATOM      8  C   UNL     1       9.730  -4.414  -4.624  0.00  0.00    +0.064 C 
ATOM      9  C   UNL     1      10.461  -5.470  -3.792  0.00  0.00    +0.032 C 
ATOM     10  C   UNL     1      11.184  -4.765  -2.640  0.00  0.00    +0.088 C 
ATOM     11  C   UNL     1      10.180  -3.981  -1.839  0.00  0.00    +0.162 C 
ATOM     12  O   UNL     1      10.384  -3.781  -0.658  0.00  0.00    -0.292 OA
ENDROOT
BRANCH   9  13
ATOM     13  C   UNL     1      11.466  -6.189  -4.656  0.00  0.00    -0.044 A 
ATOM     14  C   UNL     1      12.482  -5.480  -5.270  0.00  0.00    +0.004 A 
ATOM     15  C   UNL     1      13.405  -6.139  -6.059  0.00  0.00    +0.000 A 
ATOM     16  C   UNL     1      13.308  -7.506  -6.242  0.00  0.00    +0.000 A 
ATOM     17  C   UNL     1      12.290  -8.214  -5.632  0.00  0.00    +0.000 A 
ATOM     18  C   UNL     1      11.368  -7.555  -4.839  0.00  0.00    +0.004 A 
ENDBRANCH   9  13
BRANCH   4  19
ATOM     19  C   UNL     1       7.259  -3.701  -0.730  0.00  0.00    -0.038 A 
ATOM     20  C   UNL     1       6.455  -4.643  -1.346  0.00  0.00    +0.008 A 
ATOM     21  C   UNL     1       5.742  -5.548  -0.584  0.00  0.00    +0.046 A 
ATOM     22  C   UNL     1       5.824  -5.505   0.800  0.00  0.00    +0.132 A 
ATOM     23  C   UNL     1       6.628  -4.556   1.415  0.00  0.00    +0.046 A 
ATOM     24  C   UNL     1       7.343  -3.656   0.649  0.00  0.00    +0.008 A 
BRANCH  22  25
ATOM     25  O   UNL     1       5.119  -6.391   1.552  0.00  0.00    -0.426 OA
BRANCH  25  26
ATOM     26  C   UNL     1       5.802  -7.415   2.087  0.00  0.00    +0.309 C 
ATOM     27  O   UNL     1       6.968  -7.572   1.815  0.00  0.00    -0.251 OA
ATOM     28  C   UNL     1       5.113  -8.370   3.027  0.00  0.00    +0.136 C 
ENDBRANCH  25  26
ENDBRANCH  22  25
ENDBRANCH   4  19
BRANCH   3  29
ATOM     29  C   UNL     1       6.351  -0.869  -1.786  0.00  0.00    +0.317 C 
ATOM     30  O   UNL     1       5.677  -0.122  -2.470  0.00  0.00    -0.250 OA
BRANCH  29  31
ATOM     31  O   UNL     1       6.401  -0.698  -0.448  0.00  0.00    -0.464 OA
BRANCH  31  32
ATOM     32  C   UNL     1       5.637   0.380   0.097  0.00  0.00    +0.237 C 
BRANCH  32  33
ATOM     33  C   UNL     1       5.816   0.415   1.616  0.00  0.00    +0.076 C 
BRANCH  33  34
ATOM     34  C   UNL     1       5.011   1.552   2.191  0.00  0.00    -0.044 A 
ATOM     35  C   UNL     1       3.702   1.343   2.583  0.00  0.00    +0.004 A 
ATOM     36  C   UNL     1       2.964   2.386   3.110  0.00  0.00    +0.000 A 
ATOM     37  C   UNL     1       3.534   3.638   3.246  0.00  0.00    +0.000 A 
ATOM     38  C   UNL     1       4.843   3.847   2.854  0.00  0.00    +0.000 A 
ATOM     39  C   UNL     1       5.582   2.804   2.326  0.00  0.00    +0.004 A 
ENDBRANCH  33  34
ENDBRANCH  32  33
ENDBRANCH  31  32
ENDBRANCH  29  31
ENDBRANCH   3  29
TORSDOF 9
