REMARK  Name = ZINC02820168
REMARK  7 active torsions:
REMARK  status: ('A' for Active; 'I' for Inactive)
REMARK    1  A    between atoms: C_4  and  C_7
REMARK    2  A    between atoms: C_7  and  C_8
REMARK    3  A    between atoms: C_7  and  N_70
REMARK    4  A    between atoms: C_19  and  C_21
REMARK    5  A    between atoms: C_24  and  C_27
REMARK    6  A    between atoms: C_28  and  C_29
REMARK    7  A    between atoms: C_29  and  O_35
REMARK                            x       y       z     vdW  Elec       q    Type
REMARK                         _______ _______ _______ _____ _____    ______ ____
ROOT
ATOM      1  C   UNL     1       4.659  -1.699 -10.330  0.00  0.00    -0.058 C 
ATOM      2  C   UNL     1       5.524  -1.445  -9.091  0.00  0.00    +0.089 C 
ATOM      3  N   UNL     1       4.729  -0.685  -8.114  0.00  0.00    -0.301 N 
ATOM      4  C   UNL     1       3.397  -1.193  -7.753  0.00  0.00    +0.089 C 
ATOM      5  C   UNL     1       2.614  -1.454  -9.050  0.00  0.00    -0.058 C 
ATOM      6  C   UNL     1       5.212   0.446  -7.560  0.00  0.00    +0.246 C 
ATOM      7  O   UNL     1       6.274   0.902  -7.937  0.00  0.00    -0.270 OA
ATOM      8  N   UNL     1       3.406  -2.362  -9.907  0.00  0.00    +0.389 N 
ATOM      9  H   UNL     1       3.641  -3.206  -9.370  0.00  0.00    -0.080 HD
ENDROOT
BRANCH   6  10
ATOM     10  C   UNL     1       4.449   1.130  -6.496  0.00  0.00    +0.037 A 
ATOM     11  C   UNL     1       3.674   0.386  -5.603  0.00  0.00    +0.014 A 
ATOM     12  C   UNL     1       2.964   1.023  -4.612  0.00  0.00    +0.017 A 
ATOM     13  C   UNL     1       3.020   2.414  -4.497  0.00  0.00    +0.025 A 
ATOM     14  C   UNL     1       3.791   3.159  -5.393  0.00  0.00    +0.017 A 
ATOM     15  C   UNL     1       4.505   2.521  -6.381  0.00  0.00    +0.014 A 
BRANCH  13  16
ATOM     16  C   UNL     1       2.282   3.078  -3.464  0.00  0.00    -0.063 C 
ATOM     17  C   UNL     1       1.677   3.621  -2.618  0.00  0.00    -0.062 C 
BRANCH  17  18
ATOM     18  C   UNL     1       0.918   4.303  -1.557  0.00  0.00    +0.127 C 
ATOM     19  C   UNL     1      -0.573   4.005  -1.724  0.00  0.00    +0.048 C 
ATOM     20  C   UNL     1      -0.806   2.496  -1.628  0.00  0.00    +0.004 C 
ATOM     21  C   UNL     1      -0.336   1.994  -0.262  0.00  0.00    +0.000 C 
ATOM     22  C   UNL     1       1.155   2.291  -0.094  0.00  0.00    +0.004 C 
ATOM     23  C   UNL     1       1.388   3.800  -0.190  0.00  0.00    +0.048 C 
BRANCH  18  24
ATOM     24  O   UNL     1       1.135   5.713  -1.646  0.00  0.00    -0.377 OA
ATOM     25  H   UNL     1       0.860   6.101  -2.488  0.00  0.00    +0.211 HD
ENDBRANCH  18  24
ENDBRANCH  17  18
ENDBRANCH  13  16
ENDBRANCH   6  10
BRANCH   8  26
ATOM     26  C   UNL     1       2.617  -2.753 -11.093  0.00  0.00    -0.007 C 
BRANCH  26  30
ATOM     27  C   UNL     1       4.743  -5.784 -13.223  0.00  0.00    +0.000 A 
ATOM     28  C   UNL     1       4.132  -4.754 -13.913  0.00  0.00    +0.000 A 
ATOM     29  C   UNL     1       3.444  -3.773 -13.224  0.00  0.00    +0.002 A 
ATOM     30  C   UNL     1       3.367  -3.822 -11.845  0.00  0.00    -0.057 A 
ATOM     31  C   UNL     1       3.983  -4.849 -11.154  0.00  0.00    +0.002 A 
ATOM     32  C   UNL     1       4.667  -5.833 -11.844  0.00  0.00    +0.000 A 
ENDBRANCH  26  30
BRANCH  26  33
ATOM     33  C   UNL     1       1.286  -3.296 -10.640  0.00  0.00    -0.057 A 
ATOM     34  C   UNL     1       1.223  -4.166  -9.568  0.00  0.00    +0.002 A 
ATOM     35  C   UNL     1       0.002  -4.661  -9.150  0.00  0.00    +0.000 A 
ATOM     36  C   UNL     1      -1.155  -4.293  -9.810  0.00  0.00    +0.000 A 
ATOM     37  C   UNL     1      -1.092  -3.428 -10.886  0.00  0.00    +0.000 A 
ATOM     38  C   UNL     1       0.129  -2.929 -11.301  0.00  0.00    +0.002 A 
ENDBRANCH  26  33
ENDBRANCH   8  26
TORSDOF 7
