REMARK  Name = ZINC47145394
REMARK  3 active torsions:
REMARK  status: ('A' for Active; 'I' for Inactive)
REMARK    1  A    between atoms: C_1  and  C_2
REMARK    2  A    between atoms: C_5  and  N_8
REMARK    3  A    between atoms: C_13  and  C_27
REMARK                            x       y       z     vdW  Elec       q    Type
REMARK                         _______ _______ _______ _____ _____    ______ ____
ROOT
ATOM      1  N   UNL     1       0.068  -4.105   0.144  0.00  0.00    -0.209 N 
ATOM      2  C   UNL     1       0.073  -4.910   1.239  0.00  0.00    +0.232 C 
ATOM      3  O   UNL     1      -0.139  -4.581   2.386  0.00  0.00    -0.274 OA
ATOM      4  C   UNL     1       0.394  -6.284   0.742  0.00  0.00    +0.110 C 
ATOM      5  C   UNL     1      -0.199  -7.479   1.446  0.00  0.00    +0.072 C 
ATOM      6  C   UNL     1       0.189  -8.718   0.690  0.00  0.00    +0.033 A 
ATOM      7  C   UNL     1       0.602  -8.850  -0.590  0.00  0.00    +0.088 A 
ATOM      8  N   UNL     1       0.901 -10.133  -0.975  0.00  0.00    -0.311 N 
ATOM      9  H   UNL     1       1.216 -10.308  -1.876  0.00  0.00    +0.170 HD
ATOM     10  C   UNL     1       0.757 -11.148  -0.102  0.00  0.00    +0.289 A 
ATOM     11  O   UNL     1       0.972 -12.334  -0.281  0.00  0.00    -0.260 OA
ATOM     12  S   UNL     1       0.210 -10.385   1.294  0.00  0.00    -0.030 S 
ATOM     13  S   UNL     1       0.722  -7.431  -1.671  0.00  0.00    -0.093 S 
ATOM     14  C   UNL     1      -0.219  -6.219  -0.690  0.00  0.00    +0.152 C 
ATOM     15  C   UNL     1       0.076  -4.785  -1.031  0.00  0.00    +0.240 C 
ATOM     16  O   UNL     1       0.281  -4.328  -2.135  0.00  0.00    -0.274 OA
ENDROOT
BRANCH   1  21
ATOM     17  C   UNL     1      -0.003   1.562   0.455  0.00  0.00    +0.044 C 
ATOM     18  C   UNL     1       0.016   0.058   0.372  0.00  0.00    -0.050 A 
ATOM     19  C   UNL     1       0.024  -0.566  -0.862  0.00  0.00    +0.005 A 
ATOM     20  C   UNL     1       0.042  -1.945  -0.941  0.00  0.00    +0.024 A 
ATOM     21  C   UNL     1       0.051  -2.705   0.221  0.00  0.00    +0.044 A 
ATOM     22  C   UNL     1       0.044  -2.076   1.459  0.00  0.00    +0.024 A 
ATOM     23  C   UNL     1       0.031  -0.697   1.531  0.00  0.00    +0.005 A 
ENDBRANCH   1  21
BRANCH   5  24
ATOM     24  C   UNL     1      -1.700  -7.352   1.482  0.00  0.00    -0.038 A 
ATOM     25  C   UNL     1      -2.460  -7.838   0.435  0.00  0.00    +0.004 A 
ATOM     26  C   UNL     1      -3.837  -7.722   0.468  0.00  0.00    +0.001 A 
ATOM     27  C   UNL     1      -4.455  -7.120   1.548  0.00  0.00    +0.015 A 
ATOM     28  C   UNL     1      -3.695  -6.634   2.597  0.00  0.00    +0.018 A 
ATOM     29  C   UNL     1      -2.317  -6.755   2.566  0.00  0.00    +0.019 A 
ATOM     30 BR   UNL     1      -4.538  -5.810   4.075  0.00  0.00    -0.050 Br
ENDBRANCH   5  24
TORSDOF 2
