REMARK  Name = ZINC64452693
REMARK  6 active torsions:
REMARK  status: ('A' for Active; 'I' for Inactive)
REMARK    1  A    between atoms: C_1  and  C_2
REMARK    2  A    between atoms: C_3  and  C_21
REMARK    3  A    between atoms: C_4  and  S_8
REMARK    4  A    between atoms: C_5  and  C_7
REMARK    5  A    between atoms: S_8  and  N_11
REMARK    6  A    between atoms: C_24  and  C_27
REMARK                            x       y       z     vdW  Elec       q    Type
REMARK                         _______ _______ _______ _____ _____    ______ ____
ROOT
ATOM      1  C   UNL     1      -2.602   1.275   1.739  0.00  0.00    +0.052 C 
ATOM      2  C   UNL     1      -1.809   0.121   1.180  0.00  0.00    -0.006 A 
ATOM      3  C   UNL     1      -2.234  -0.916   0.417  0.00  0.00    +0.019 A 
ATOM      4  C   UNL     1      -1.319  -1.870   0.013  0.00  0.00    +0.124 A 
ATOM      5  C   UNL     1      -0.024  -1.740   0.392  0.00  0.00    +0.014 A 
ATOM      6  S   UNL     1      -0.067  -0.230   1.344  0.00  0.00    -0.096 S 
ATOM      7  C   UNL     1       1.149  -2.635   0.085  0.00  0.00    +0.053 C 
ENDROOT
BRANCH   3   8
ATOM      8  C   UNL     1      -3.682  -1.027   0.015  0.00  0.00    +0.185 C 
ATOM      9  C   UNL     1      -4.555  -1.309   1.225  0.00  0.00    +0.031 C 
ATOM     10  C   UNL     1      -5.370  -0.254   1.286  0.00  0.00    +0.059 C 
ATOM     11  N   UNL     1      -5.107   0.615   0.285  0.00  0.00    -0.159 NA
ATOM     12  N   UNL     1      -4.189   0.268  -0.469  0.00  0.00    -0.175 NA
ATOM     13  C   UNL     1      -6.440  -0.059   2.330  0.00  0.00    +0.067 C 
ENDBRANCH   3   8
BRANCH   4  14
ATOM     14  S   UNL     1      -1.828  -3.234  -0.979  0.00  0.00    +0.076 S 
ATOM     15  O   UNL     1      -0.685  -4.062  -1.147  0.00  0.00    -0.150 OA
ATOM     16  O   UNL     1      -3.041  -3.714  -0.417  0.00  0.00    -0.150 OA
BRANCH  14  17
ATOM     17  N   UNL     1      -2.204  -2.636  -2.477  0.00  0.00    -0.203 N 
ATOM     18  C   UNL     1      -3.593  -2.304  -2.821  0.00  0.00    +0.132 C 
ATOM     19  C   UNL     1      -3.874  -2.858  -4.224  0.00  0.00    +0.025 C 
ATOM     20  C   UNL     1      -2.961  -2.151  -5.225  0.00  0.00    +0.038 C 
ATOM     21  C   UNL     1      -1.529  -2.207  -4.763  0.00  0.00    -0.025 A 
ATOM     22  C   UNL     1      -1.203  -2.434  -3.434  0.00  0.00    +0.054 A 
ATOM     23  C   UNL     1       0.129  -2.470  -3.038  0.00  0.00    +0.025 A 
ATOM     24  C   UNL     1       1.131  -2.276  -3.967  0.00  0.00    +0.002 A 
ATOM     25  C   UNL     1       0.808  -2.047  -5.292  0.00  0.00    +0.000 A 
ATOM     26  C   UNL     1      -0.518  -2.021  -5.691  0.00  0.00    +0.005 A 
ENDBRANCH  14  17
ENDBRANCH   4  14
TORSDOF 3
