REMARK  Name = ZINC22557804
REMARK  4 active torsions:
REMARK  status: ('A' for Active; 'I' for Inactive)
REMARK    1  A    between atoms: C_4  and  C_7
REMARK    2  A    between atoms: C_10  and  S_13
REMARK    3  A    between atoms: S_13  and  C_14
REMARK    4  A    between atoms: C_14  and  C_15
REMARK                            x       y       z     vdW  Elec       q    Type
REMARK                         _______ _______ _______ _____ _____    ______ ____
ROOT
ATOM      1  S   UNL     1      -1.448   2.336   0.022  0.00  0.00    -0.082 S 
ENDROOT
BRANCH   1   5
ATOM      2  C   UNL     1       2.046   0.588  -0.014  0.00  0.00    +0.182 A 
ATOM      3  N   UNL     1       1.283   1.733  -0.001  0.00  0.00    -0.201 NA
ATOM      4  H   UNL     1      -0.832  -0.721   0.014  0.00  0.00    +0.191 HD
ATOM      5  C   UNL     1      -0.016   1.310   0.009  0.00  0.00    +0.185 A 
ATOM      6  N   UNL     1       0.002  -0.004   0.008  0.00  0.00    -0.253 N 
ATOM      7  N   UNL     1       1.215  -0.429  -0.003  0.00  0.00    -0.152 NA
BRANCH   2  11
ATOM      8  C   UNL     1       6.288   0.380  -0.082  0.00  0.00    +0.000 A 
ATOM      9  C   UNL     1       5.541  -0.784  -0.081  0.00  0.00    +0.001 A 
ATOM     10  C   UNL     1       4.163  -0.724  -0.059  0.00  0.00    +0.011 A 
ATOM     11  C   UNL     1       3.522   0.515  -0.037  0.00  0.00    +0.021 A 
ATOM     12  C   UNL     1       4.281   1.687  -0.044  0.00  0.00    +0.011 A 
ATOM     13  C   UNL     1       5.658   1.613  -0.060  0.00  0.00    +0.001 A 
ENDBRANCH   2  11
ENDBRANCH   1   5
BRANCH   1  14
ATOM     14  C   UNL     1      -2.742   1.070   0.022  0.00  0.00    +0.113 C 
BRANCH  14  15
ATOM     15  C   UNL     1      -4.095   1.734   0.033  0.00  0.00    -0.020 A 
ATOM     16  C   UNL     1      -4.727   2.046  -1.127  0.00  0.00    +0.097 A 
ATOM     17  C   UNL     1      -5.994   2.667  -1.090  0.00  0.00    +0.338 A 
ATOM     18  O   UNL     1      -6.550   2.943  -2.138  0.00  0.00    -0.245 OA
ATOM     19  O   UNL     1      -6.601   2.962   0.070  0.00  0.00    -0.422 OA
ATOM     20  C   UNL     1      -6.026   2.678   1.258  0.00  0.00    +0.140 A 
ATOM     21  C   UNL     1      -4.767   2.053   1.296  0.00  0.00    +0.022 A 
ATOM     22  C   UNL     1      -4.167   1.763   2.525  0.00  0.00    +0.013 A 
ATOM     23  C   UNL     1      -4.815   2.078   3.686  0.00  0.00    +0.016 A 
ATOM     24  C   UNL     1      -6.061   2.690   3.654  0.00  0.00    +0.021 A 
ATOM     25  C   UNL     1      -6.667   2.990   2.450  0.00  0.00    +0.062 A 
ATOM     26 BR   UNL     1      -6.937   3.117   5.274  0.00  0.00    -0.050 Br
ENDBRANCH  14  15
ENDBRANCH   1  14
TORSDOF 4
