REMARK  Name = ZINC09541655
REMARK  6 active torsions:
REMARK  status: ('A' for Active; 'I' for Inactive)
REMARK    1  A    between atoms: C_1  and  C_2
REMARK    2  A    between atoms: C_2  and  C_3
REMARK    3  A    between atoms: C_6  and  C_9
REMARK    4  A    between atoms: C_11  and  C_24
REMARK    5  A    between atoms: C_13  and  C_16
REMARK    6  A    between atoms: C_21  and  O_22
REMARK                            x       y       z     vdW  Elec       q    Type
REMARK                         _______ _______ _______ _____ _____    ______ ____
ROOT
ATOM      1  C   UNL     1       1.733   0.204  -1.676  0.00  0.00    +0.040 C 
ATOM      2  N   UNL     1       0.853  -0.501  -1.072  0.00  0.00    -0.299 NA
ATOM      3  C   UNL     1       0.002  -0.004   0.002  0.00  0.00    +0.081 C 
ATOM      4  C   UNL     1       1.357   1.991  -0.000  0.00  0.00    -0.028 C 
ATOM      5  C   UNL     1       1.990   1.649  -1.353  0.00  0.00    +0.044 C 
ATOM      6  N   UNL     1      -0.022   1.466   0.010  0.00  0.00    +0.401 N 
ATOM      7  H   UNL     1      -0.505   1.794   0.855  0.00  0.00    -0.081 HD
ATOM      8  H   UNL     1      -0.521   1.804  -0.822  0.00  0.00    -0.081 HD
ENDROOT
BRANCH   4   9
ATOM      9  C   UNL     1       1.330   3.486   0.185  0.00  0.00    -0.018 A 
ATOM     10  C   UNL     1       0.175   4.195  -0.083  0.00  0.00    +0.020 A 
ATOM     11  C   UNL     1       0.147   5.567   0.093  0.00  0.00    +0.018 A 
ATOM     12  C   UNL     1       1.280   6.234   0.526  0.00  0.00    +0.019 A 
ATOM     13  C   UNL     1       2.439   5.529   0.789  0.00  0.00    +0.047 A 
ATOM     14  C   UNL     1       2.466   4.153   0.620  0.00  0.00    +0.119 A 
ATOM     15 BR   UNL     1      -1.438   6.533  -0.267  0.00  0.00    -0.050 Br
BRANCH  14  16
ATOM     16  O   UNL     1       3.606   3.458   0.879  0.00  0.00    -0.507 OA
ATOM     17  H   UNL     1       4.192   3.365   0.115  0.00  0.00    +0.292 HD
ENDBRANCH  14  16
ENDBRANCH   4   9
BRANCH   3  18
ATOM     18  C   UNL     1       0.529  -0.501   1.324  0.00  0.00    -0.040 A 
ATOM     19  C   UNL     1       0.330   0.244   2.471  0.00  0.00    +0.005 A 
ATOM     20  C   UNL     1       0.809  -0.213   3.684  0.00  0.00    +0.015 A 
ATOM     21  C   UNL     1       1.497  -1.411   3.748  0.00  0.00    +0.018 A 
ATOM     22  C   UNL     1       1.700  -2.154   2.599  0.00  0.00    +0.015 A 
ATOM     23  C   UNL     1       1.216  -1.698   1.387  0.00  0.00    +0.005 A 
ATOM     24 BR   UNL     1       2.160  -2.034   5.406  0.00  0.00    -0.050 Br
ENDBRANCH   3  18
BRANCH   1  28
ATOM     25  C   UNL     1       4.038  -1.625  -4.737  0.00  0.00    -0.048 A 
ATOM     26  C   UNL     1       3.078  -2.361  -4.064  0.00  0.00    +0.004 A 
ATOM     27  C   UNL     1       2.326  -1.773  -3.068  0.00  0.00    +0.010 A 
ATOM     28  C   UNL     1       2.535  -0.432  -2.740  0.00  0.00    -0.004 A 
ATOM     29  C   UNL     1       3.501   0.306  -3.426  0.00  0.00    +0.010 A 
ATOM     30  C   UNL     1       4.250  -0.296  -4.415  0.00  0.00    +0.004 A 
BRANCH  25  32
ATOM     31  C   UNL     1       4.147  -2.101  -7.168  0.00  0.00    +0.009 C 
ATOM     32  C   UNL     1       4.856  -2.275  -5.823  0.00  0.00    +0.032 C 
ENDBRANCH  25  32
ENDBRANCH   1  28
TORSDOF 5
