REMARK  Name = ZINC58763485
REMARK  10 active torsions:
REMARK  status: ('A' for Active; 'I' for Inactive)
REMARK    1  A    between atoms: C_1  and  C_2
REMARK    2  A    between atoms: C_6  and  C_8
REMARK    3  A    between atoms: N_14  and  C_15
REMARK    4  A    between atoms: C_15  and  C_17
REMARK    5  A    between atoms: C_17  and  C_19
REMARK    6  A    between atoms: C_17  and  N_23
REMARK    7  A    between atoms: C_19  and  C_20
REMARK    8  A    between atoms: C_20  and  C_21
REMARK    9  A    between atoms: C_20  and  C_22
REMARK   10  A    between atoms: C_24  and  C_26
REMARK                            x       y       z     vdW  Elec       q    Type
REMARK                         _______ _______ _______ _____ _____    ______ ____
ROOT
ATOM      1  C   UNL     1       0.262  -1.454   6.749  0.00  0.00    +0.259 C 
ATOM      2  O   UNL     1       0.357  -0.375   6.197  0.00  0.00    -0.272 OA
ENDROOT
BRANCH   1   9
ATOM      3  C   UNL     1       0.337  -1.730   2.619  0.00  0.00    +0.179 A 
ATOM      4  N   UNL     1       0.333  -1.368   3.949  0.00  0.00    -0.308 N 
ATOM      5  H   UNL     1       0.393  -0.463   4.293  0.00  0.00    +0.170 HD
ATOM      6  C   UNL     1       0.230  -2.499   4.695  0.00  0.00    +0.216 A 
ATOM      7  N   UNL     1       0.172  -3.544   3.840  0.00  0.00    -0.246 N 
ATOM      8  N   UNL     1       0.236  -3.028   2.539  0.00  0.00    -0.151 NA
ATOM      9  N   UNL     1       0.195  -2.566   6.027  0.00  0.00    -0.144 NA
ATOM     10  H   UNL     1       0.095  -4.480   4.082  0.00  0.00    +0.192 HD
BRANCH   3  16
ATOM     11  C   UNL     1       0.729   2.840   0.997  0.00  0.00    +0.065 C 
ATOM     12  C   UNL     1       0.619   1.367   0.697  0.00  0.00    +0.039 A 
ATOM     13  C   UNL     1       0.612   0.937  -0.618  0.00  0.00    +0.023 A 
ATOM     14  C   UNL     1       0.511  -0.419  -0.891  0.00  0.00    +0.004 A 
ATOM     15  C   UNL     1       0.420  -1.302   0.171  0.00  0.00    +0.031 A 
ATOM     16  C   UNL     1       0.434  -0.800   1.472  0.00  0.00    +0.108 A 
ATOM     17  N   UNL     1       0.537   0.506   1.690  0.00  0.00    -0.249 NA
ENDBRANCH   3  16
ENDBRANCH   1   9
BRANCH   1  18
ATOM     18  C   UNL     1       0.222  -1.530   8.254  0.00  0.00    +0.162 C 
BRANCH  18  19
ATOM     19  N   UNL     1       0.311  -0.179   8.813  0.00  0.00    -0.300 N 
ATOM     20  C   UNL     1       0.852   0.011  10.033  0.00  0.00    +0.246 C 
ATOM     21  O   UNL     1       1.352  -0.923  10.629  0.00  0.00    -0.270 OA
ATOM     22  H   UNL     1      -0.018   0.579   8.306  0.00  0.00    +0.150 HD
BRANCH  20  23
ATOM     23  C   UNL     1       0.836   1.354  10.647  0.00  0.00    +0.055 A 
ATOM     24  C   UNL     1       0.257   2.429   9.968  0.00  0.00    +0.016 A 
ATOM     25  C   UNL     1       0.245   3.680  10.546  0.00  0.00    +0.021 A 
ATOM     26  C   UNL     1       0.807   3.874  11.798  0.00  0.00    +0.042 A 
ATOM     27  C   UNL     1       1.383   2.815  12.477  0.00  0.00    +0.040 A 
ATOM     28  C   UNL     1       1.395   1.555  11.912  0.00  0.00    +0.054 A 
ATOM     29 CL   UNL     1       2.111   0.224  12.767  0.00  0.00    -0.083 Cl
ATOM     30 CL   UNL     1       0.789   5.454  12.518  0.00  0.00    -0.083 Cl
ENDBRANCH  20  23
ENDBRANCH  18  19
BRANCH  18  31
ATOM     31  C   UNL     1      -1.091  -2.179   8.697  0.00  0.00    +0.035 C 
BRANCH  31  32
ATOM     32  C   UNL     1      -1.108  -3.645   8.258  0.00  0.00    -0.015 C 
ATOM     33  C   UNL     1       0.022  -4.401   8.959  0.00  0.00    +0.007 C 
ATOM     34  C   UNL     1      -2.451  -4.274   8.634  0.00  0.00    +0.007 C 
ENDBRANCH  31  32
ENDBRANCH  18  31
ENDBRANCH   1  18
TORSDOF 7
