REMARK  Name = ZINC07814244
REMARK  7 active torsions:
REMARK  status: ('A' for Active; 'I' for Inactive)
REMARK    1  A    between atoms: C_1  and  C_2
REMARK    2  A    between atoms: C_2  and  C_4
REMARK    3  A    between atoms: C_2  and  N_14
REMARK    4  A    between atoms: C_15  and  C_17
REMARK    5  A    between atoms: C_22  and  S_23
REMARK    6  A    between atoms: S_23  and  C_24
REMARK    7  A    between atoms: C_24  and  C_25
REMARK                            x       y       z     vdW  Elec       q    Type
REMARK                         _______ _______ _______ _____ _____    ______ ____
ROOT
ATOM      1  N   UNL     1      -2.219   5.631  -1.143  0.00  0.00    -0.308 N 
ATOM      2  C   UNL     1      -1.954   6.859  -1.630  0.00  0.00    +0.245 C 
ATOM      3  O   UNL     1      -1.127   7.565  -1.085  0.00  0.00    -0.270 OA
ATOM      4  H   UNL     1      -2.878   5.068  -1.578  0.00  0.00    +0.149 HD
ENDROOT
BRANCH   2   5
ATOM      5  C   UNL     1      -2.667   7.348  -2.824  0.00  0.00    +0.050 A 
ATOM      6  C   UNL     1      -3.614   6.538  -3.458  0.00  0.00    +0.014 A 
ATOM      7  C   UNL     1      -4.280   7.002  -4.571  0.00  0.00    +0.001 A 
ATOM      8  C   UNL     1      -4.010   8.266  -5.073  0.00  0.00    +0.001 A 
ATOM      9  C   UNL     1      -3.074   9.075  -4.463  0.00  0.00    +0.015 A 
ATOM     10  C   UNL     1      -2.395   8.627  -3.336  0.00  0.00    +0.020 A 
BRANCH  10  11
ATOM     11  S   UNL     1      -1.200   9.658  -2.553  0.00  0.00    -0.122 S 
BRANCH  11  12
ATOM     12  C   UNL     1      -1.202  11.171  -3.555  0.00  0.00    +0.106 C 
BRANCH  12  13
ATOM     13  C   UNL     1      -0.194  12.166  -2.978  0.00  0.00    +0.128 C 
ATOM     14  C   UNL     1      -0.275  13.501  -3.750  0.00  0.00    +0.034 C 
ATOM     15  C   UNL     1       1.220  13.916  -3.845  0.00  0.00    +0.031 C 
ATOM     16  C   UNL     1       1.904  12.531  -3.971  0.00  0.00    +0.160 C 
ATOM     17  O   UNL     1       1.135  11.655  -3.131  0.00  0.00    -0.376 OA
ENDBRANCH  12  13
ENDBRANCH  11  12
ENDBRANCH  10  11
ENDBRANCH   2   5
BRANCH   1  19
ATOM     18  C   UNL     1      -2.227   5.639   1.303  0.00  0.00    +0.028 C 
ATOM     19  C   UNL     1      -1.510   5.146   0.044  0.00  0.00    +0.076 C 
BRANCH  19  20
ATOM     20  C   UNL     1      -1.490   3.616   0.036  0.00  0.00    -0.010 C 
ATOM     21  C   UNL     1      -0.773   3.123  -1.223  0.00  0.00    +0.012 C 
ATOM     22  C   UNL     1      -0.753   1.593  -1.232  0.00  0.00    -0.010 C 
ATOM     23  C   UNL     1      -0.013   1.086   0.008  0.00  0.00    +0.007 C 
ATOM     24  C   UNL     1      -0.729   1.579   1.267  0.00  0.00    -0.010 C 
ATOM     25  C   UNL     1      -0.750   3.109   1.275  0.00  0.00    +0.012 C 
ATOM     26  C   UNL     1      -2.164   1.050   1.278  0.00  0.00    +0.007 C 
ATOM     27  C   UNL     1      -2.904   1.556   0.038  0.00  0.00    -0.010 C 
ATOM     28  C   UNL     1      -2.188   1.063  -1.221  0.00  0.00    +0.007 C 
ATOM     29  C   UNL     1      -2.925   3.086   0.047  0.00  0.00    +0.012 C 
ENDBRANCH  19  20
ENDBRANCH   1  19
TORSDOF 6
