REMARK  Name = ZINC59140594
REMARK  7 active torsions:
REMARK  status: ('A' for Active; 'I' for Inactive)
REMARK    1  A    between atoms: C_10  and  C_11
REMARK    2  A    between atoms: C_11  and  O_12
REMARK    3  A    between atoms: O_12  and  C_13
REMARK    4  A    between atoms: C_16  and  C_20
REMARK    5  A    between atoms: N_21  and  N_22
REMARK    6  A    between atoms: C_23  and  C_25
REMARK    7  A    between atoms: C_25  and  C_26
REMARK                            x       y       z     vdW  Elec       q    Type
REMARK                         _______ _______ _______ _____ _____    ______ ____
ROOT
ATOM      1  C   UNL     1       7.308  -0.209  -0.071  0.00  0.00    +0.134 A 
ATOM      2  C   UNL     1       7.465   1.171  -0.060  0.00  0.00    +0.047 A 
ATOM      3  C   UNL     1       8.727   1.723  -0.070  0.00  0.00    +0.013 A 
ATOM      4  C   UNL     1       9.851   0.893  -0.091  0.00  0.00    -0.004 A 
ATOM      5  C   UNL     1       9.689  -0.495  -0.102  0.00  0.00    +0.027 A 
ATOM      6  C   UNL     1       8.423  -1.039  -0.086  0.00  0.00    +0.056 A 
ATOM      7  I   UNL     1       8.178  -3.120  -0.093  0.00  0.00    -0.040 I 
ENDROOT
BRANCH   4   8
ATOM      8  C   UNL     1      11.204   1.479  -0.102  0.00  0.00    +0.138 C 
ATOM      9  N   UNL     1      12.246   0.707  -0.121  0.00  0.00    -0.188 NA
BRANCH   9  10
ATOM     10  N   UNL     1      13.531   1.264  -0.132  0.00  0.00    -0.206 N 
ATOM     11  C   UNL     1      14.614   0.461  -0.152  0.00  0.00    +0.246 C 
ATOM     12  O   UNL     1      14.475  -0.744  -0.161  0.00  0.00    -0.273 OA
ATOM     13  H   UNL     1      13.642   2.228  -0.125  0.00  0.00    +0.177 HD
BRANCH  11  14
ATOM     14  C   UNL     1      15.996   1.061  -0.164  0.00  0.00    +0.215 C 
BRANCH  14  15
ATOM     15  C   UNL     1      16.999  -0.017  -0.185  0.00  0.00    +0.072 C 
ATOM     16  N   UNL     1      17.772  -0.849  -0.202  0.00  0.00    -0.196 NA
ENDBRANCH  14  15
ENDBRANCH  11  14
ENDBRANCH   9  10
ENDBRANCH   4   8
BRANCH   1  17
ATOM     17  O   UNL     1       6.062  -0.750  -0.061  0.00  0.00    -0.486 OA
BRANCH  17  18
ATOM     18  C   UNL     1       4.960   0.161  -0.046  0.00  0.00    +0.265 C 
BRANCH  18  28
ATOM     19  C   UNL     1      -0.016   1.357   0.009  0.00  0.00    +0.001 A 
ATOM     20  C   UNL     1       1.169   2.091   0.002  0.00  0.00    +0.001 A 
ATOM     21  C   UNL     1       2.378   1.468  -0.013  0.00  0.00    +0.009 A 
ATOM     22  C   UNL     1       2.438   0.064  -0.021  0.00  0.00    -0.011 A 
ATOM     23  C   UNL     1       1.233  -0.683  -0.013  0.00  0.00    -0.018 A 
ATOM     24  C   UNL     1       0.002  -0.004   0.002  0.00  0.00    +0.008 A 
ATOM     25  C   UNL     1       1.292  -2.087  -0.021  0.00  0.00    +0.008 A 
ATOM     26  C   UNL     1       2.502  -2.709  -0.036  0.00  0.00    +0.001 A 
ATOM     27  C   UNL     1       3.687  -1.976  -0.043  0.00  0.00    +0.007 A 
ATOM     28  C   UNL     1       3.668  -0.615  -0.037  0.00  0.00    -0.003 A 
ENDBRANCH  18  28
ENDBRANCH  17  18
ENDBRANCH   1  17
TORSDOF 7
