REMARK  Name = ZINC35898335
REMARK  15 active torsions:
REMARK  status: ('A' for Active; 'I' for Inactive)
REMARK    1  A    between atoms: C_1  and  C_2
REMARK    2  A    between atoms: C_2  and  C_3
REMARK    3  A    between atoms: C_3  and  C_5
REMARK    4  A    between atoms: C_3  and  O_6
REMARK    5  A    between atoms: O_6  and  C_7
REMARK    6  A    between atoms: C_7  and  C_9
REMARK    7  A    between atoms: C_10  and  C_37
REMARK    8  A    between atoms: C_14  and  C_16
REMARK    9  A    between atoms: C_19  and  O_24
REMARK   10  A    between atoms: C_20  and  O_22
REMARK   11  A    between atoms: O_22  and  C_23
REMARK   12  A    between atoms: C_27  and  C_33
REMARK   13  A    between atoms: C_29  and  C_32
REMARK   14  A    between atoms: C_33  and  O_35
REMARK   15  A    between atoms: O_35  and  C_36
REMARK                            x       y       z     vdW  Elec       q    Type
REMARK                         _______ _______ _______ _____ _____    ______ ____
ROOT
ATOM      1  C   UNL     1      -4.286   0.465   2.158  0.00  0.00    +0.065 C 
ATOM      2  C   UNL     1      -5.614   0.669   2.118  0.00  0.00    +0.016 C 
ATOM      3  N   UNL     1      -6.286   1.077   3.236  0.00  0.00    -0.321 N 
ATOM      4  C   UNL     1      -5.738   0.909   4.479  0.00  0.00    +0.016 C 
ATOM      5  C   UNL     1      -4.411   0.710   4.622  0.00  0.00    +0.025 C 
ATOM      6  C   UNL     1      -3.503   0.676   3.420  0.00  0.00    +0.092 C 
ATOM      7  C   UNL     1      -3.838   0.520   5.892  0.00  0.00    +0.176 C 
ATOM      8  O   UNL     1      -2.638   0.351   5.986  0.00  0.00    -0.291 OA
ATOM      9  C   UNL     1      -4.683   0.523   7.136  0.00  0.00    +0.171 C 
ATOM     10  C   UNL     1      -6.096   0.049   6.782  0.00  0.00    +0.013 C 
ATOM     11  C   UNL     1      -6.650   0.956   5.680  0.00  0.00    +0.055 C 
ATOM     12  C   UNL     1      -6.044  -1.397   6.284  0.00  0.00    +0.009 C 
ATOM     13  C   UNL     1      -6.367   0.449   0.831  0.00  0.00    +0.061 C 
ATOM     14  H   UNL     1      -7.160   1.489   3.148  0.00  0.00    +0.152 HD
ENDROOT
BRANCH   6  15
ATOM     15  C   UNL     1      -2.762   1.985   3.329  0.00  0.00    -0.032 A 
ATOM     16  C   UNL     1      -3.464   3.166   3.169  0.00  0.00    +0.008 A 
ATOM     17  C   UNL     1      -2.789   4.369   3.086  0.00  0.00    +0.049 A 
ATOM     18  C   UNL     1      -1.405   4.394   3.163  0.00  0.00    +0.158 A 
ATOM     19  C   UNL     1      -0.699   3.206   3.325  0.00  0.00    +0.162 A 
ATOM     20  C   UNL     1      -1.382   2.004   3.413  0.00  0.00    +0.054 A 
BRANCH  19  21
ATOM     21  O   UNL     1       0.659   3.225   3.401  0.00  0.00    -0.491 OA
ATOM     22  C   UNL     1       1.317   1.968   3.567  0.00  0.00    +0.277 C 
ENDBRANCH  19  21
BRANCH  18  23
ATOM     23  O   UNL     1      -0.740   5.577   3.080  0.00  0.00    -0.503 OA
ATOM     24  H   UNL     1      -0.598   6.009   3.934  0.00  0.00    +0.292 HD
ENDBRANCH  18  23
ENDBRANCH   6  15
BRANCH   1  25
ATOM     25  C   UNL     1      -3.615   0.036   0.989  0.00  0.00    +0.338 C 
ATOM     26  O   UNL     1      -4.253  -0.282   0.003  0.00  0.00    -0.245 OA
BRANCH  25  27
ATOM     27  O   UNL     1      -2.267  -0.019   0.967  0.00  0.00    -0.458 OA
BRANCH  27  28
ATOM     28  C   UNL     1      -1.655  -0.461  -0.247  0.00  0.00    +0.173 C 
ATOM     29  C   UNL     1      -1.485  -1.981  -0.209  0.00  0.00    +0.052 C 
BRANCH  28  31
ATOM     30  C   UNL     1      -0.463   1.712  -0.561  0.00  0.00    +0.007 C 
ATOM     31  C   UNL     1      -0.284   0.202  -0.398  0.00  0.00    +0.041 C 
ENDBRANCH  28  31
ENDBRANCH  27  28
ENDBRANCH  25  27
ENDBRANCH   1  25
BRANCH   9  32
ATOM     32  C   UNL     1      -4.079  -0.407   8.158  0.00  0.00    +0.318 C 
ATOM     33  O   UNL     1      -3.548  -1.432   7.802  0.00  0.00    -0.250 OA
BRANCH  32  34
ATOM     34  O   UNL     1      -4.132  -0.096   9.462  0.00  0.00    -0.467 OA
ATOM     35  C   UNL     1      -3.539  -1.023  10.375  0.00  0.00    +0.280 C 
ENDBRANCH  32  34
ENDBRANCH   9  32
TORSDOF 9
