REMARK  Name = ZINC03978229
REMARK  9 active torsions:
REMARK  status: ('A' for Active; 'I' for Inactive)
REMARK    1  A    between atoms: C_1  and  C_2
REMARK    2  A    between atoms: C_2  and  O_4
REMARK    3  A    between atoms: O_4  and  C_5
REMARK    4  A    between atoms: C_10  and  C_37
REMARK    5  A    between atoms: C_14  and  C_15
REMARK    6  A    between atoms: C_14  and  C_16
REMARK    7  A    between atoms: C_19  and  C_36
REMARK    8  A    between atoms: C_25  and  C_31
REMARK    9  A    between atoms: C_27  and  C_30
REMARK                            x       y       z     vdW  Elec       q    Type
REMARK                         _______ _______ _______ _____ _____    ______ ____
ROOT
ATOM      1  C   UNL     1      -1.247  -2.361  -0.213  0.00  0.00    +0.187 C 
ATOM      2  C   UNL     1      -1.079  -2.810  -1.643  0.00  0.00    +0.050 C 
ATOM      3  C   UNL     1      -2.356  -2.941  -2.453  0.00  0.00    +0.004 C 
ATOM      4  C   UNL     1      -3.461  -3.638  -1.705  0.00  0.00    -0.025 C 
ATOM      5  C   UNL     1      -4.804  -3.602  -2.443  0.00  0.00    +0.007 C 
ATOM      6  C   UNL     1      -5.115  -2.229  -3.018  0.00  0.00    +0.001 C 
ATOM      7  C   UNL     1      -4.017  -1.842  -4.005  0.00  0.00    +0.007 C 
ATOM      8  C   UNL     1      -2.682  -1.712  -3.269  0.00  0.00    -0.031 C 
ATOM      9  C   UNL     1      -1.599  -1.553  -4.366  0.00  0.00    +0.011 C 
ATOM     10  C   UNL     1      -2.691  -0.426  -2.447  0.00  0.00    +0.011 C 
ATOM     11  C   UNL     1      -3.652  -3.217  -0.259  0.00  0.00    +0.009 C 
ATOM     12  C   UNL     1      -2.405  -2.981   0.550  0.00  0.00    +0.030 C 
ATOM     13  C   UNL     1      -2.627  -2.134   1.791  0.00  0.00    -0.043 C 
ATOM     14  C   UNL     1      -1.647  -2.134   2.707  0.00  0.00    +0.092 C 
ATOM     15  C   UNL     1      -1.804  -1.395   3.970  0.00  0.00    +0.333 C 
ATOM     16  O   UNL     1      -0.904  -1.393   4.800  0.00  0.00    -0.246 OA
ATOM     17  O   UNL     1      -2.954  -0.727   4.207  0.00  0.00    -0.453 OA
ATOM     18  C   UNL     1      -4.125  -1.194   3.539  0.00  0.00    +0.220 C 
ATOM     19  C   UNL     1      -3.850  -1.309   2.038  0.00  0.00    +0.031 C 
ATOM     20  C   UNL     1      -5.059  -1.905   1.330  0.00  0.00    +0.015 C 
ATOM     21  C   UNL     1      -4.699  -2.119  -0.145  0.00  0.00    +0.006 C 
ATOM     22  C   UNL     1      -3.614   0.114   1.518  0.00  0.00    +0.020 C 
ATOM     23  C   UNL     1      -1.916  -4.359   1.088  0.00  0.00    +0.020 C 
ATOM     24  C   UNL     1      -3.095  -5.156  -1.702  0.00  0.00    +0.012 C 
ENDROOT
BRANCH  18  25
ATOM     25  C   UNL     1      -5.241  -0.208   3.768  0.00  0.00    +0.031 A 
ATOM     26  C   UNL     1      -6.597  -0.515   4.028  0.00  0.00    +0.048 A 
ATOM     27  C   UNL     1      -7.242   0.657   4.168  0.00  0.00    +0.195 A 
ATOM     28  O   UNL     1      -6.354   1.652   4.007  0.00  0.00    -0.471 OA
ATOM     29  C   UNL     1      -5.138   1.133   3.769  0.00  0.00    +0.202 A 
ENDBRANCH  18  25
BRANCH   1  30
ATOM     30  O   UNL     1      -1.253  -0.940  -0.094  0.00  0.00    -0.461 OA
BRANCH  30  32
ATOM     31  C   UNL     1       0.012   1.170   0.116  0.00  0.00    +0.136 C 
ATOM     32  C   UNL     1      -0.060  -0.330  -0.012  0.00  0.00    +0.304 C 
ATOM     33  O   UNL     1       0.956  -0.984  -0.040  0.00  0.00    -0.251 OA
ENDBRANCH  30  32
ENDBRANCH   1  30
TORSDOF 3
