REMARK  Name = ZINC67504221
REMARK  6 active torsions:
REMARK  status: ('A' for Active; 'I' for Inactive)
REMARK    1  A    between atoms: C_1  and  C_2
REMARK    2  A    between atoms: C_2  and  C_3
REMARK    3  A    between atoms: C_2  and  C_4
REMARK    4  A    between atoms: C_7  and  C_10
REMARK    5  A    between atoms: C_10  and  N_11
REMARK    6  A    between atoms: N_11  and  C_12
REMARK                            x       y       z     vdW  Elec       q    Type
REMARK                         _______ _______ _______ _____ _____    ______ ____
ROOT
ATOM      1  N   UNL     1      -6.300  -1.048  -0.640  0.00  0.00    +0.386 N 
ATOM      2  H   UNL     1      -6.342  -0.143  -0.196  0.00  0.00    -0.085 HD
ATOM      3  H   UNL     1      -5.911  -0.951  -1.566  0.00  0.00    -0.085 HD
ENDROOT
BRANCH   1   4
ATOM      4  C   UNL     1      -7.654  -1.611  -0.735  0.00  0.00    -0.039 C 
ATOM      5  C   UNL     1      -7.597  -2.931  -1.501  0.00  0.00    -0.011 C 
ATOM      6  C   UNL     1      -9.035  -3.382  -1.785  0.00  0.00    +0.005 C 
ATOM      7  C   UNL     1      -9.645  -2.421  -2.803  0.00  0.00    +0.053 C 
ATOM      8  C   UNL     1      -9.457  -0.991  -2.366  0.00  0.00    +0.021 A 
ATOM      9  C   UNL     1      -8.552  -0.626  -1.437  0.00  0.00    -0.042 A 
ATOM     10  C   UNL     1      -8.422   0.733  -1.087  0.00  0.00    +0.009 A 
ATOM     11  C   UNL     1      -9.211   1.667  -1.684  0.00  0.00    +0.070 A 
ATOM     12  C   UNL     1     -10.149   1.251  -2.645  0.00  0.00    +0.249 A 
ATOM     13  O   UNL     1     -10.869   2.071  -3.192  0.00  0.00    -0.268 OA
ATOM     14  N   UNL     1     -10.250  -0.049  -2.958  0.00  0.00    -0.326 N 
ATOM     15  H   UNL     1     -10.901  -0.327  -3.621  0.00  0.00    +0.169 HD
ENDBRANCH   1   4
BRANCH   1  16
ATOM     16  C   UNL     1      -5.452  -1.945   0.156  0.00  0.00    -0.046 C 
BRANCH  16  20
ATOM     17  C   UNL     1      -1.624  -0.141   0.741  0.00  0.00    -0.045 A 
ATOM     18  C   UNL     1      -2.640   0.084   1.650  0.00  0.00    +0.004 A 
ATOM     19  C   UNL     1      -3.879  -0.500   1.461  0.00  0.00    +0.002 A 
ATOM     20  C   UNL     1      -4.102  -1.308   0.362  0.00  0.00    -0.064 A 
ATOM     21  C   UNL     1      -3.085  -1.533  -0.548  0.00  0.00    +0.002 A 
ATOM     22  C   UNL     1      -1.848  -0.946  -0.361  0.00  0.00    +0.004 A 
BRANCH  17  24
ATOM     23  C   UNL     1      -0.425   2.017   0.970  0.00  0.00    +0.012 C 
ATOM     24  C   UNL     1      -0.274   0.495   0.947  0.00  0.00    +0.013 C 
ATOM     25  C   UNL     1       0.316   0.021   2.277  0.00  0.00    +0.012 C 
ENDBRANCH  17  24
ENDBRANCH  16  20
ENDBRANCH   1  16
TORSDOF 4
