REMARK  Name = ZINC00681733
REMARK  4 active torsions:
REMARK  status: ('A' for Active; 'I' for Inactive)
REMARK    1  A    between atoms: C_1  and  C_2
REMARK    2  A    between atoms: C_14  and  C_16
REMARK    3  A    between atoms: C_24  and  C_27
REMARK    4  A    between atoms: C_31  and  N_33
REMARK                            x       y       z     vdW  Elec       q    Type
REMARK                         _______ _______ _______ _____ _____    ______ ____
ROOT
ATOM      1  C   UNL     1      -6.748  -4.454  -2.498  0.00  0.00    +0.110 C 
ATOM      2  C   UNL     1      -6.247  -3.822  -1.225  0.00  0.00    +0.218 C 
ATOM      3  O   UNL     1      -5.886  -4.522  -0.302  0.00  0.00    -0.276 OA
ATOM      4  N   UNL     1      -6.199  -2.480  -1.112  0.00  0.00    -0.255 N 
ATOM      5  C   UNL     1      -6.616  -1.685  -2.178  0.00  0.00    +0.058 A 
ATOM      6  C   UNL     1      -7.940  -1.668  -2.590  0.00  0.00    +0.025 A 
ATOM      7  C   UNL     1      -8.322  -0.827  -3.620  0.00  0.00    +0.002 A 
ATOM      8  C   UNL     1      -7.395  -0.004  -4.234  0.00  0.00    +0.002 A 
ATOM      9  C   UNL     1      -6.069  -0.031  -3.838  0.00  0.00    +0.025 A 
ATOM     10  C   UNL     1      -5.682  -0.890  -2.824  0.00  0.00    +0.053 A 
ATOM     11  N   UNL     1      -4.356  -1.031  -2.432  0.00  0.00    -0.316 N 
ATOM     12  C   UNL     1      -3.871  -0.726  -1.199  0.00  0.00    +0.017 C 
ATOM     13  C   UNL     1      -4.439  -1.090  -0.037  0.00  0.00    +0.040 C 
ATOM     14  C   UNL     1      -5.715  -1.884   0.115  0.00  0.00    +0.182 C 
ATOM     15  C   UNL     1      -3.843  -0.726   1.194  0.00  0.00    +0.163 C 
ATOM     16  O   UNL     1      -4.369  -1.085   2.229  0.00  0.00    -0.292 OA
ATOM     17  C   UNL     1      -2.585   0.087   1.264  0.00  0.00    +0.088 C 
ATOM     18  C   UNL     1      -2.514   0.980   0.019  0.00  0.00    +0.032 C 
ATOM     19  C   UNL     1      -2.578   0.072  -1.208  0.00  0.00    +0.059 C 
ATOM     20  H   UNL     1      -3.728  -1.373  -3.088  0.00  0.00    +0.152 HD
ENDROOT
BRANCH  18  21
ATOM     21  C   UNL     1      -1.219   1.751   0.017  0.00  0.00    -0.041 A 
ATOM     22  C   UNL     1      -0.013   1.076   0.008  0.00  0.00    +0.004 A 
ATOM     23  C   UNL     1       1.175   1.783   0.000  0.00  0.00    +0.002 A 
ATOM     24  C   UNL     1       1.156   3.166   0.008  0.00  0.00    +0.033 A 
ATOM     25  C   UNL     1      -0.050   3.840   0.022  0.00  0.00    +0.126 A 
ATOM     26  C   UNL     1      -1.238   3.133   0.029  0.00  0.00    +0.036 A 
BRANCH  25  27
ATOM     27  N   UNL     1      -0.070   5.320   0.030  0.00  0.00    +0.056 N 
ATOM     28  O   UNL     1       0.976   5.944   0.024  0.00  0.00    -0.126 OA
ATOM     29  O   UNL     1      -1.133   5.915   0.043  0.00  0.00    -0.126 OA
ENDBRANCH  25  27
ENDBRANCH  18  21
BRANCH  14  30
ATOM     30  C   UNL     1      -6.785  -0.970   0.656  0.00  0.00    +0.130 A 
ATOM     31  C   UNL     1      -7.187  -0.903   1.938  0.00  0.00    +0.047 A 
ATOM     32  C   UNL     1      -8.200   0.082   1.998  0.00  0.00    +0.041 A 
ATOM     33  C   UNL     1      -8.361   0.552   0.748  0.00  0.00    +0.195 A 
ATOM     34  O   UNL     1      -7.501  -0.088  -0.060  0.00  0.00    -0.466 OA
ENDBRANCH  14  30
TORSDOF 3
