REMARK  Name = ZINC40095109
REMARK  13 active torsions:
REMARK  status: ('A' for Active; 'I' for Inactive)
REMARK    1  A    between atoms: C_1  and  C_2
REMARK    2  A    between atoms: C_7  and  C_12
REMARK    3  A    between atoms: C_12  and  C_14
REMARK    4  A    between atoms: N_18  and  C_30
REMARK    5  A    between atoms: C_19  and  C_21
REMARK    6  A    between atoms: C_24  and  C_27
REMARK    7  A    between atoms: C_27  and  C_28
REMARK    8  A    between atoms: C_27  and  C_29
REMARK    9  A    between atoms: C_30  and  C_31
REMARK   10  A    between atoms: C_31  and  O_32
REMARK   11  A    between atoms: O_32  and  C_33
REMARK   12  A    between atoms: C_33  and  C_34
REMARK   13  A    between atoms: C_34  and  O_35
REMARK                            x       y       z     vdW  Elec       q    Type
REMARK                         _______ _______ _______ _____ _____    ______ ____
ROOT
ATOM      1  C   UNL     1       7.155  -1.274  -0.410  0.00  0.00    +0.076 C 
ATOM      2  C   UNL     1       8.405  -1.356  -0.921  0.00  0.00    +0.249 C 
ATOM      3  C   UNL     1       9.382  -1.400   0.187  0.00  0.00    +0.288 C 
ATOM      4  O   UNL     1      10.587  -1.474   0.053  0.00  0.00    -0.266 OA
ATOM      5  N   UNL     1       8.738  -1.346   1.368  0.00  0.00    -0.281 N 
ATOM      6  C   UNL     1       7.299  -1.256   1.094  0.00  0.00    +0.145 C 
ATOM      7  O   UNL     1       8.713  -1.391  -2.239  0.00  0.00    -0.282 OA
ENDROOT
BRANCH   6   8
ATOM      8  C   UNL     1       6.586  -2.439   1.697  0.00  0.00    -0.022 A 
ATOM      9  C   UNL     1       7.210  -3.671   1.745  0.00  0.00    +0.006 A 
ATOM     10  C   UNL     1       6.555  -4.756   2.298  0.00  0.00    +0.004 A 
ATOM     11  C   UNL     1       5.277  -4.608   2.803  0.00  0.00    -0.045 A 
ATOM     12  C   UNL     1       4.654  -3.376   2.756  0.00  0.00    +0.004 A 
ATOM     13  C   UNL     1       5.310  -2.290   2.207  0.00  0.00    +0.006 A 
BRANCH  11  14
ATOM     14  C   UNL     1       4.563  -5.791   3.405  0.00  0.00    +0.013 C 
ATOM     15  C   UNL     1       4.224  -5.492   4.867  0.00  0.00    +0.012 C 
ATOM     16  C   UNL     1       3.273  -6.059   2.627  0.00  0.00    +0.012 C 
ENDBRANCH  11  14
ENDBRANCH   6   8
BRANCH   1  17
ATOM     17  C   UNL     1       5.902  -1.209  -1.169  0.00  0.00    +0.195 C 
ATOM     18  O   UNL     1       5.537  -2.168  -1.824  0.00  0.00    -0.287 OA
BRANCH  17  24
ATOM     19  C   UNL     1       2.557   3.927  -3.552  0.00  0.00    +0.052 C 
ATOM     20  C   UNL     1       1.882   3.197  -2.390  0.00  0.00    +0.175 C 
ATOM     21  C   UNL     1       1.907   1.667  -2.616  0.00  0.00    +0.083 C 
ATOM     22  C   UNL     1       3.176   1.264  -1.891  0.00  0.00    -0.002 A 
ATOM     23  C   UNL     1       3.931   0.118  -1.925  0.00  0.00    +0.019 A 
ATOM     24  C   UNL     1       5.084   0.020  -1.140  0.00  0.00    +0.023 A 
ATOM     25  C   UNL     1       5.456   1.095  -0.326  0.00  0.00    +0.015 A 
ATOM     26  C   UNL     1       4.691   2.236  -0.297  0.00  0.00    +0.046 A 
ATOM     27  C   UNL     1       3.538   2.335  -1.077  0.00  0.00    +0.124 A 
ATOM     28  O   UNL     1       2.640   3.357  -1.179  0.00  0.00    -0.488 OA
ENDBRANCH  17  24
ENDBRANCH   1  17
BRANCH   5  29
ATOM     29  C   UNL     1       9.364  -1.367   2.692  0.00  0.00    +0.137 C 
BRANCH  29  30
ATOM     30  C   UNL     1       9.668   0.066   3.135  0.00  0.00    +0.179 C 
BRANCH  30  31
ATOM     31  O   UNL     1       8.444   0.782   3.307  0.00  0.00    -0.376 OA
BRANCH  31  32
ATOM     32  C   UNL     1       8.617   2.138   3.722  0.00  0.00    +0.187 C 
BRANCH  32  33
ATOM     33  C   UNL     1       7.247   2.804   3.873  0.00  0.00    +0.184 C 
BRANCH  33  34
ATOM     34  O   UNL     1       6.526   2.173   4.933  0.00  0.00    -0.393 OA
ATOM     35  H   UNL     1       5.646   2.545   5.086  0.00  0.00    +0.209 HD
ENDBRANCH  33  34
ENDBRANCH  32  33
ENDBRANCH  31  32
ENDBRANCH  30  31
ENDBRANCH  29  30
ENDBRANCH   5  29
TORSDOF 10
