REMARK  Name = ZINC36384913
REMARK  7 active torsions:
REMARK  status: ('A' for Active; 'I' for Inactive)
REMARK    1  A    between atoms: C_1  and  C_2
REMARK    2  A    between atoms: C_2  and  C_4
REMARK    3  A    between atoms: C_4  and  O_31
REMARK    4  A    between atoms: C_9  and  C_30
REMARK    5  A    between atoms: C_27  and  C_28
REMARK    6  A    between atoms: O_31  and  C_32
REMARK    7  A    between atoms: C_32  and  C_34
REMARK                            x       y       z     vdW  Elec       q    Type
REMARK                         _______ _______ _______ _____ _____    ______ ____
ROOT
ATOM      1  C   UNL     1      -0.084  -0.661  -1.335  0.00  0.00    +0.176 C 
ATOM      2  C   UNL     1      -1.595  -0.714  -1.675  0.00  0.00    +0.057 C 
ATOM      3  C   UNL     1      -1.888  -2.171  -2.130  0.00  0.00    +0.009 C 
ATOM      4  C   UNL     1      -0.491  -2.664  -2.550  0.00  0.00    +0.006 C 
ATOM      5  C   UNL     1       0.373  -2.135  -1.388  0.00  0.00    +0.018 C 
ATOM      6  C   UNL     1       1.836  -2.331  -1.700  0.00  0.00    +0.011 C 
ATOM      7  C   UNL     1       2.075  -3.689  -2.370  0.00  0.00    +0.005 C 
ATOM      8  C   UNL     1       0.933  -4.670  -2.132  0.00  0.00    +0.007 C 
ATOM      9  C   UNL     1      -0.372  -4.163  -2.726  0.00  0.00    +0.021 C 
ATOM     10  C   UNL     1      -0.508  -4.479  -4.189  0.00  0.00    -0.003 C 
ATOM     11  C   UNL     1       0.293  -5.283  -4.871  0.00  0.00    +0.041 C 
ATOM     12  C   UNL     1       1.389  -5.982  -4.180  0.00  0.00    -0.020 C 
ATOM     13  C   UNL     1       2.389  -6.509  -4.910  0.00  0.00    +0.052 C 
ATOM     14  C   UNL     1       3.497  -7.159  -4.350  0.00  0.00    +0.160 C 
ATOM     15  O   UNL     1       4.304  -7.714  -5.065  0.00  0.00    -0.292 OA
ATOM     16  C   UNL     1       3.687  -7.155  -2.855  0.00  0.00    +0.064 C 
ATOM     17  C   UNL     1       2.809  -8.090  -2.023  0.00  0.00    +0.016 C 
ATOM     18  C   UNL     1       2.549  -6.585  -2.015  0.00  0.00    +0.011 C 
ATOM     19  C   UNL     1       1.303  -6.048  -2.689  0.00  0.00    +0.001 C 
ATOM     20  C   UNL     1       0.154  -6.999  -2.333  0.00  0.00    +0.017 C 
ATOM     21 CL   UNL     1       0.052  -5.511  -6.575  0.00  0.00    -0.084 Cl
ATOM     22  C   UNL     1       0.004  -2.757  -0.040  0.00  0.00    +0.016 C 
ENDROOT
BRANCH   1  24
ATOM     23  C   UNL     1       1.476   0.426   0.449  0.00  0.00    +0.090 C 
ATOM     24  C   UNL     1       0.126  -0.111   0.049  0.00  0.00    +0.174 C 
ATOM     25  O   UNL     1      -0.787  -0.100   0.839  0.00  0.00    -0.293 OA
ENDBRANCH   1  24
BRANCH   1  26
ATOM     26  O   UNL     1       0.618   0.112  -2.303  0.00  0.00    -0.450 OA
BRANCH  26  27
ATOM     27  C   UNL     1       0.252   1.396  -2.439  0.00  0.00    +0.305 C 
ATOM     28  O   UNL     1      -0.588   1.866  -1.708  0.00  0.00    -0.251 OA
ATOM     29  C   UNL     1       0.889   2.252  -3.503  0.00  0.00    +0.136 C 
ENDBRANCH  26  27
ENDBRANCH   1  26
TORSDOF 3
