REMARK  Name = ZINC52584502
REMARK  11 active torsions:
REMARK  status: ('A' for Active; 'I' for Inactive)
REMARK    1  A    between atoms: C_1  and  C_2
REMARK    2  A    between atoms: N_4  and  C_5
REMARK    3  A    between atoms: C_5  and  C_6
REMARK    4  A    between atoms: C_9  and  C_16
REMARK    5  A    between atoms: C_13  and  C_14
REMARK    6  A    between atoms: C_13  and  C_15
REMARK    7  A    between atoms: N_18  and  C_19
REMARK    8  A    between atoms: C_20  and  C_21
REMARK    9  A    between atoms: C_25  and  O_30
REMARK   10  A    between atoms: O_30  and  C_31
REMARK   11  A    between atoms: C_31  and  C_32
REMARK                            x       y       z     vdW  Elec       q    Type
REMARK                         _______ _______ _______ _____ _____    ______ ____
ROOT
ATOM      1  C   UNL     1      -1.585  -5.523   0.635  0.00  0.00    +0.075 C 
ATOM      2  C   UNL     1      -1.858  -6.441   1.602  0.00  0.00    +0.021 C 
ENDROOT
BRANCH   2   3
ATOM      3  C   UNL     1      -1.039  -7.559   1.753  0.00  0.00    -0.017 C 
ATOM      4  C   UNL     1      -1.111  -8.531   2.754  0.00  0.00    +0.021 A 
ATOM      5  C   UNL     1      -1.956  -8.711   3.863  0.00  0.00    +0.125 A 
ATOM      6  N   UNL     1      -1.789  -9.743   4.657  0.00  0.00    -0.221 NA
ATOM      7  C   UNL     1      -0.840 -10.660   4.471  0.00  0.00    +0.217 A 
ATOM      8  C   UNL     1       0.043 -10.601   3.435  0.00  0.00    +0.093 A 
ATOM      9  C   UNL     1      -0.049  -9.526   2.517  0.00  0.00    +0.050 A 
ATOM     10  N   UNL     1       0.648  -9.212   1.445  0.00  0.00    -0.380 N 
ATOM     11  C   UNL     1       0.111  -7.978   0.863  0.00  0.00    +0.149 C 
ATOM     12  H   UNL     1       1.397  -9.719   1.094  0.00  0.00    +0.160 HD
BRANCH   7  13
ATOM     13  O   UNL     1      -0.750 -11.690   5.348  0.00  0.00    -0.472 OA
BRANCH  13  14
ATOM     14  C   UNL     1      -1.694 -11.714   6.421  0.00  0.00    +0.266 C 
BRANCH  14  15
ATOM     15  C   UNL     1      -1.441 -12.922   7.285  0.00  0.00    -0.010 A 
ATOM     16  C   UNL     1      -2.072 -14.119   7.003  0.00  0.00    +0.007 A 
ATOM     17  C   UNL     1      -1.840 -15.227   7.796  0.00  0.00    +0.000 A 
ATOM     18  C   UNL     1      -0.976 -15.138   8.871  0.00  0.00    +0.000 A 
ATOM     19  C   UNL     1      -0.344 -13.942   9.154  0.00  0.00    +0.000 A 
ATOM     20  C   UNL     1      -0.573 -12.835   8.358  0.00  0.00    +0.007 A 
ENDBRANCH  14  15
ENDBRANCH  13  14
ENDBRANCH   7  13
ENDBRANCH   2   3
BRANCH   1  23
ATOM     21  C   UNL     1      -0.275  -4.832  -1.191  0.00  0.00    +0.238 C 
ATOM     22  O   UNL     1      -0.802  -3.741  -1.150  0.00  0.00    -0.273 OA
ATOM     23  N   UNL     1      -0.630  -5.786  -0.307  0.00  0.00    -0.290 N 
ATOM     24  H   UNL     1      -0.208  -6.659  -0.340  0.00  0.00    +0.154 HD
BRANCH  21  28
ATOM     25  C   UNL     1       1.693  -2.941  -1.567  0.00  0.00    +0.234 C 
ATOM     26  O   UNL     1       1.270  -3.110  -0.443  0.00  0.00    -0.274 OA
ATOM     27  N   UNL     1       1.536  -3.904  -2.497  0.00  0.00    -0.274 N 
ATOM     28  C   UNL     1       0.778  -5.122  -2.229  0.00  0.00    +0.173 C 
ATOM     29  C   UNL     1       0.088  -5.641  -3.525  0.00  0.00    +0.103 C 
ATOM     30  S   UNL     1       1.443  -5.260  -4.724  0.00  0.00    -0.133 S 
ATOM     31  C   UNL     1       2.116  -3.785  -3.849  0.00  0.00    +0.079 C 
ATOM     32  C   UNL     1       1.651  -2.494  -4.525  0.00  0.00    +0.043 C 
ATOM     33  C   UNL     1       3.644  -3.845  -3.789  0.00  0.00    +0.043 C 
BRANCH  25  34
ATOM     34  C   UNL     1       2.395  -1.656  -1.923  0.00  0.00    +0.200 C 
BRANCH  34  38
ATOM     35  C   UNL     1       3.151   1.290   0.402  0.00  0.00    +0.109 C 
ATOM     36  C   UNL     1       3.068   0.409  -0.818  0.00  0.00    +0.210 C 
ATOM     37  O   UNL     1       3.533   0.787  -1.872  0.00  0.00    -0.276 OA
ATOM     38  N   UNL     1       2.477  -0.800  -0.737  0.00  0.00    -0.307 N 
ATOM     39  H   UNL     1       2.105  -1.102   0.107  0.00  0.00    +0.149 HD
ENDBRANCH  34  38
ENDBRANCH  25  34
ENDBRANCH  21  28
ENDBRANCH   1  23
TORSDOF 8
