REMARK  Name = ZINC63065618
REMARK  7 active torsions:
REMARK  status: ('A' for Active; 'I' for Inactive)
REMARK    1  A    between atoms: C_1  and  C_2
REMARK    2  A    between atoms: C_2  and  C_21
REMARK    3  A    between atoms: N_6  and  C_7
REMARK    4  A    between atoms: C_7  and  C_8
REMARK    5  A    between atoms: C_8  and  C_9
REMARK    6  A    between atoms: N_11  and  C_12
REMARK    7  A    between atoms: C_15  and  N_19
REMARK                            x       y       z     vdW  Elec       q    Type
REMARK                         _______ _______ _______ _____ _____    ______ ____
ROOT
ATOM      1  C   UNL     1       3.459  -3.449   2.487  0.00  0.00    +0.215 C 
ATOM      2  O   UNL     1       3.213  -4.552   2.047  0.00  0.00    -0.276 OA
ATOM      3  N   UNL     1       4.730  -3.001   2.512  0.00  0.00    -0.283 N 
ATOM      4  H   UNL     1       4.919  -2.093   2.795  0.00  0.00    +0.155 HD
ENDROOT
BRANCH   3   5
ATOM      5  C   UNL     1       5.780  -3.848   2.126  0.00  0.00    +0.071 A 
ATOM      6  C   UNL     1       6.204  -3.872   0.804  0.00  0.00    +0.065 A 
ATOM      7  C   UNL     1       7.237  -4.706   0.424  0.00  0.00    +0.044 A 
ATOM      8  C   UNL     1       7.853  -5.522   1.365  0.00  0.00    +0.027 A 
ATOM      9  C   UNL     1       7.429  -5.498   2.688  0.00  0.00    +0.044 A 
ATOM     10  C   UNL     1       6.399  -4.659   3.069  0.00  0.00    +0.065 A 
ATOM     11 CL   UNL     1       5.875  -4.625   4.723  0.00  0.00    -0.082 Cl
ATOM     12 CL   UNL     1       5.434  -2.853  -0.373  0.00  0.00    -0.082 Cl
BRANCH   8  13
ATOM     13  N   UNL     1       8.899  -6.367   0.981  0.00  0.00    -0.358 N 
ATOM     14  H   UNL     1       9.195  -6.383   0.058  0.00  0.00    +0.142 HD
ATOM     15  H   UNL     1       9.329  -6.936   1.638  0.00  0.00    +0.142 HD
ENDBRANCH   8  13
ENDBRANCH   3   5
BRANCH   1  16
ATOM     16  C   UNL     1       2.344  -2.579   3.008  0.00  0.00    +0.077 C 
BRANCH  16  17
ATOM     17  C   UNL     1       1.012  -3.319   2.867  0.00  0.00    -0.069 C 
BRANCH  17  23
ATOM     18  C   UNL     1      -2.245  -2.244   2.238  0.00  0.00    -0.010 C 
ATOM     19  C   UNL     1      -1.372  -3.129   3.131  0.00  0.00    -0.071 C 
ATOM     20  C   UNL     1      -2.051  -3.322   4.503  0.00  0.00    -0.014 C 
ATOM     21  C   UNL     1      -1.358  -2.255   5.390  0.00  0.00    -0.020 C 
ATOM     22  C   UNL     1       0.087  -2.273   4.830  0.00  0.00    -0.078 C 
ATOM     23  N   UNL     1      -0.075  -2.471   3.374  0.00  0.00    +0.383 N 
ATOM     24  C   UNL     1      -1.149  -4.486   2.460  0.00  0.00    -0.010 C 
ATOM     25  H   UNL     1      -0.054  -1.578   2.905  0.00  0.00    -0.081 HD
ENDBRANCH  17  23
ENDBRANCH  16  17
ENDBRANCH   1  16
TORSDOF 5
