REMARK  Name = ZINC57316404
REMARK  7 active torsions:
REMARK  status: ('A' for Active; 'I' for Inactive)
REMARK    1  A    between atoms: C_4  and  N_26
REMARK    2  A    between atoms: C_5  and  C_7
REMARK    3  A    between atoms: N_9  and  C_10
REMARK    4  A    between atoms: C_10  and  N_12
REMARK    5  A    between atoms: N_12  and  C_13
REMARK    6  A    between atoms: C_13  and  C_14
REMARK    7  A    between atoms: C_17  and  C_19
REMARK                            x       y       z     vdW  Elec       q    Type
REMARK                         _______ _______ _______ _____ _____    ______ ____
ROOT
ATOM      1  C   UNL     1       0.167  -4.205  -0.286  0.00  0.00    +0.137 C 
ATOM      2  S   UNL     1       1.665  -5.025  -0.179  0.00  0.00    -0.018 S 
ENDROOT
BRANCH   1   5
ATOM      3  C   UNL     1       1.274  -2.158  -0.106  0.00  0.00    +0.252 C 
ATOM      4  O   UNL     1       2.338  -2.740  -0.030  0.00  0.00    -0.270 OA
ATOM      5  N   UNL     1       0.130  -2.858  -0.238  0.00  0.00    -0.264 N 
ATOM      6  H   UNL     1      -0.719  -2.394  -0.299  0.00  0.00    +0.157 HD
BRANCH   3  11
ATOM      7  C   UNL     1       0.587   1.418  -1.025  0.00  0.00    +0.001 A 
ATOM      8  C   UNL     1       1.160   2.085   0.043  0.00  0.00    +0.002 A 
ATOM      9  C   UNL     1       1.770   1.376   1.063  0.00  0.00    +0.033 A 
ATOM     10  C   UNL     1       1.810  -0.002   1.020  0.00  0.00    +0.138 A 
ATOM     11  C   UNL     1       1.234  -0.681  -0.054  0.00  0.00    +0.067 A 
ATOM     12  C   UNL     1       0.620   0.040  -1.080  0.00  0.00    +0.015 A 
BRANCH  10  13
ATOM     13  N   UNL     1       2.463  -0.759   2.112  0.00  0.00    +0.057 N 
ATOM     14  O   UNL     1       3.064  -0.170   2.980  0.00  0.00    -0.126 OA
ATOM     15  O   UNL     1       2.396  -1.966   2.135  0.00  0.00    -0.126 OA
ENDBRANCH  10  13
ENDBRANCH   3  11
ENDBRANCH   1   5
BRANCH   1  16
ATOM     16  N   UNL     1      -0.977  -4.906  -0.418  0.00  0.00    -0.319 N 
ATOM     17  H   UNL     1      -1.827  -4.441  -0.479  0.00  0.00    +0.148 HD
BRANCH  16  18
ATOM     18  C   UNL     1      -0.938  -6.369  -0.470  0.00  0.00    +0.177 C 
BRANCH  18  19
ATOM     19  C   UNL     1      -2.338  -6.905  -0.619  0.00  0.00    +0.123 A 
ATOM     20  C   UNL     1      -2.966  -7.147  -1.786  0.00  0.00    +0.047 A 
ATOM     21  C   UNL     1      -4.250  -7.637  -1.470  0.00  0.00    +0.050 A 
ATOM     22  C   UNL     1      -4.335  -7.666  -0.114  0.00  0.00    +0.135 A 
ATOM     23  O   UNL     1      -3.166  -7.224   0.389  0.00  0.00    -0.458 OA
BRANCH  22  24
ATOM     24  C   UNL     1      -5.505  -8.111   0.672  0.00  0.00    +0.017 A 
ATOM     25  C   UNL     1      -6.656  -8.558   0.022  0.00  0.00    +0.012 A 
ATOM     26  C   UNL     1      -7.745  -8.972   0.762  0.00  0.00    +0.016 A 
ATOM     27  C   UNL     1      -7.697  -8.943   2.145  0.00  0.00    +0.018 A 
ATOM     28  C   UNL     1      -6.558  -8.500   2.795  0.00  0.00    +0.016 A 
ATOM     29  C   UNL     1      -5.460  -8.090   2.067  0.00  0.00    +0.012 A 
ATOM     30 BR   UNL     1      -9.194  -9.511   3.151  0.00  0.00    -0.050 Br
ENDBRANCH  22  24
ENDBRANCH  18  19
ENDBRANCH  16  18
ENDBRANCH   1  16
TORSDOF 7
