REMARK  Name = ZINC67102209
REMARK  7 active torsions:
REMARK  status: ('A' for Active; 'I' for Inactive)
REMARK    1  A    between atoms: C_1  and  C_2
REMARK    2  A    between atoms: C_6  and  C_27
REMARK    3  A    between atoms: C_7  and  O_8
REMARK    4  A    between atoms: O_8  and  C_9
REMARK    5  A    between atoms: N_17  and  N_18
REMARK    6  A    between atoms: C_19  and  C_21
REMARK    7  A    between atoms: C_22  and  C_26
REMARK                            x       y       z     vdW  Elec       q    Type
REMARK                         _______ _______ _______ _____ _____    ______ ____
ROOT
ATOM      1  C   UNL     1      -1.476  -0.020   3.001  0.00  0.00    +0.176 C 
ATOM      2  C   UNL     1      -1.778  -1.296   3.792  0.00  0.00    +0.063 C 
ATOM      3  C   UNL     1      -3.188  -1.202   4.385  0.00  0.00    +0.113 C 
ATOM      4  N   UNL     1      -3.288   0.034   5.172  0.00  0.00    -0.284 N 
ATOM      5  C   UNL     1      -2.932   1.309   4.535  0.00  0.00    +0.113 C 
ATOM      6  C   UNL     1      -1.526   1.187   3.940  0.00  0.00    +0.063 C 
ATOM      7  C   UNL     1      -3.699  -0.001   6.455  0.00  0.00    +0.319 C 
ATOM      8  O   UNL     1      -3.897  -1.069   7.002  0.00  0.00    -0.251 OA
ATOM      9  N   UNL     1      -3.890   1.149   7.133  0.00  0.00    -0.218 N 
ATOM     10  H   UNL     1      -3.805   2.000   6.677  0.00  0.00    +0.174 HD
ENDROOT
BRANCH   9  11
ATOM     11  N   UNL     1      -4.211   1.113   8.496  0.00  0.00    -0.229 N 
ATOM     12  C   UNL     1      -4.502   2.255   9.151  0.00  0.00    +0.267 C 
ATOM     13  O   UNL     1      -4.485   3.317   8.557  0.00  0.00    -0.268 OA
ATOM     14  H   UNL     1      -4.225   0.266   8.969  0.00  0.00    +0.173 HD
BRANCH  12  15
ATOM     15  C   UNL     1      -4.838   2.217  10.577  0.00  0.00    +0.078 A 
ATOM     16  C   UNL     1      -5.169   3.263  11.425  0.00  0.00    -0.031 A 
ATOM     17  C   UNL     1      -5.438   2.914  12.727  0.00  0.00    +0.011 A 
ATOM     18  C   UNL     1      -5.365   1.609  13.088  0.00  0.00    +0.046 A 
ATOM     19  S   UNL     1      -4.935   0.814  11.672  0.00  0.00    -0.092 S 
ATOM     20  C   UNL     1      -5.230   4.692  10.949  0.00  0.00    +0.045 C 
ENDBRANCH  12  15
ENDBRANCH   9  11
BRANCH   1  21
ATOM     21  O   UNL     1      -0.174  -0.118   2.420  0.00  0.00    -0.488 OA
BRANCH  21  28
ATOM     22  C   UNL     1       0.579  -2.841   2.438  0.00  0.00    +0.047 C 
ATOM     23  C   UNL     1       0.285  -2.087   1.166  0.00  0.00    -0.009 A 
ATOM     24  C   UNL     1       0.374  -2.729  -0.054  0.00  0.00    +0.007 A 
ATOM     25  C   UNL     1       0.105  -2.038  -1.221  0.00  0.00    +0.001 A 
ATOM     26  C   UNL     1      -0.255  -0.704  -1.170  0.00  0.00    +0.007 A 
ATOM     27  C   UNL     1      -0.345  -0.058   0.048  0.00  0.00    -0.009 A 
ATOM     28  C   UNL     1      -0.080  -0.750   1.220  0.00  0.00    +0.127 A 
ATOM     29  C   UNL     1      -0.736   1.397   0.102  0.00  0.00    +0.047 C 
ENDBRANCH  21  28
ENDBRANCH   1  21
TORSDOF 4
