REMARK  Name = ZINC09422511
REMARK  8 active torsions:
REMARK  status: ('A' for Active; 'I' for Inactive)
REMARK    1  A    between atoms: C_1  and  C_2
REMARK    2  A    between atoms: C_2  and  C_3
REMARK    3  A    between atoms: C_2  and  C_4
REMARK    4  A    between atoms: N_12  and  C_15
REMARK    5  A    between atoms: C_15  and  C_16
REMARK    6  A    between atoms: C_16  and  C_18
REMARK    7  A    between atoms: C_23  and  C_26
REMARK    8  A    between atoms: C_23  and  C_27
REMARK                            x       y       z     vdW  Elec       q    Type
REMARK                         _______ _______ _______ _____ _____    ______ ____
ROOT
ATOM      1  C   UNL     1      -2.143   1.058   1.278  0.00  0.00    +0.051 A 
ATOM      2  C   UNL     1      -3.207   1.953   1.298  0.00  0.00    +0.004 A 
ATOM      3  C   UNL     1      -4.496   1.482   1.298  0.00  0.00    -0.026 A 
ATOM      4  C   UNL     1      -4.724   0.085   1.293  0.00  0.00    +0.037 A 
ATOM      5  C   UNL     1      -6.019  -0.617   1.300  0.00  0.00    +0.094 A 
ATOM      6  C   UNL     1      -5.960  -2.009   1.294  0.00  0.00    +0.105 A 
ATOM      7  C   UNL     1      -7.126  -2.785   1.300  0.00  0.00    +0.269 A 
ATOM      8  O   UNL     1      -7.070  -4.003   1.295  0.00  0.00    -0.266 OA
ATOM      9  N   UNL     1      -8.319  -2.143   1.310  0.00  0.00    -0.294 N 
ATOM     10  C   UNL     1      -8.341  -0.786   1.316  0.00  0.00    +0.203 A 
ATOM     11  N   UNL     1      -7.265  -0.062   1.312  0.00  0.00    -0.236 NA
ATOM     12  S   UNL     1      -4.229  -2.388   1.280  0.00  0.00    -0.062 S 
ATOM     13  C   UNL     1      -3.579  -0.735   1.281  0.00  0.00    +0.112 A 
ATOM     14  N   UNL     1      -2.359  -0.242   1.273  0.00  0.00    -0.244 NA
ATOM     15  C   UNL     1      -5.681   2.408   1.305  0.00  0.00    +0.070 C 
ATOM     16  C   UNL     1      -5.234   3.812   1.721  0.00  0.00    +0.068 C 
ATOM     17  O   UNL     1      -4.081   4.168   0.950  0.00  0.00    -0.369 OA
ATOM     18  C   UNL     1      -2.913   3.431   1.308  0.00  0.00    +0.197 C 
ATOM     19  C   UNL     1      -6.362   4.811   1.452  0.00  0.00    +0.041 C 
ATOM     20  C   UNL     1      -4.880   3.819   3.209  0.00  0.00    +0.041 C 
ENDROOT
BRANCH   1  22
ATOM     21  C   UNL     1      -0.013   1.086   0.008  0.00  0.00    +0.014 C 
ATOM     22  C   UNL     1      -0.729   1.579   1.267  0.00  0.00    +0.032 C 
ATOM     23  C   UNL     1       0.011   1.072   2.506  0.00  0.00    +0.014 C 
ENDBRANCH   1  22
BRANCH   9  24
ATOM     24  C   UNL     1      -9.570  -2.904   1.317  0.00  0.00    +0.156 C 
BRANCH  24  25
ATOM     25  C   UNL     1      -9.989  -3.170   2.740  0.00  0.00    -0.060 C 
ATOM     26  C   UNL     1     -10.838  -2.369   3.334  0.00  0.00    +0.009 C 
ATOM     27  C   UNL     1      -9.431  -4.359   3.480  0.00  0.00    +0.040 C 
ENDBRANCH  24  25
ENDBRANCH   9  24
TORSDOF 3
