REMARK  Name = ZINC07360238
REMARK  13 active torsions:
REMARK  status: ('A' for Active; 'I' for Inactive)
REMARK    1  A    between atoms: C_1  and  C_2
REMARK    2  A    between atoms: C_2  and  O_3
REMARK    3  A    between atoms: O_3  and  C_4
REMARK    4  A    between atoms: C_4  and  C_6
REMARK    5  A    between atoms: C_7  and  C_28
REMARK    6  A    between atoms: C_11  and  N_27
REMARK    7  A    between atoms: C_13  and  C_15
REMARK    8  A    between atoms: C_15  and  N_52
REMARK    9  A    between atoms: C_16  and  N_52
REMARK   10  A    between atoms: C_17  and  C_18
REMARK   11  A    between atoms: C_17  and  N_52
REMARK   12  A    between atoms: C_18  and  O_19
REMARK   13  A    between atoms: O_19  and  C_20
REMARK                            x       y       z     vdW  Elec       q    Type
REMARK                         _______ _______ _______ _____ _____    ______ ____
ROOT
ATOM      1  C   UNL     1       1.781   3.726   0.342  0.00  0.00    +0.112 A 
ATOM      2  C   UNL     1       1.824   4.606   1.380  0.00  0.00    +0.119 A 
ATOM      3  O   UNL     1       1.792   5.861   0.913  0.00  0.00    -0.441 OA
ATOM      4  C   UNL     1       1.718   5.883  -0.429  0.00  0.00    +0.233 A 
ATOM      5  C   UNL     1       1.706   4.554  -0.875  0.00  0.00    +0.094 A 
ATOM      6  C   UNL     1       1.634   4.300  -2.249  0.00  0.00    +0.131 A 
ATOM      7  N   UNL     1       1.577   5.338  -3.080  0.00  0.00    -0.219 NA
ATOM      8  C   UNL     1       1.590   6.575  -2.620  0.00  0.00    +0.119 A 
ATOM      9  N   UNL     1       1.658   6.855  -1.336  0.00  0.00    -0.199 NA
ATOM     10  C   UNL     1       1.900   4.225   2.836  0.00  0.00    +0.087 C 
ENDROOT
BRANCH   6  11
ATOM     11  N   UNL     1       1.620   3.003  -2.732  0.00  0.00    -0.342 N 
ATOM     12  H   UNL     1       1.662   2.256  -2.115  0.00  0.00    +0.144 HD
ATOM     13  H   UNL     1       1.570   2.841  -3.687  0.00  0.00    +0.144 HD
ENDBRANCH   6  11
BRANCH   1  14
ATOM     14  C   UNL     1       1.800   2.259   0.419  0.00  0.00    +0.343 C 
ATOM     15  O   UNL     1       2.858   1.662   0.393  0.00  0.00    -0.245 OA
BRANCH  14  16
ATOM     16  O   UNL     1       0.642   1.575   0.518  0.00  0.00    -0.461 OA
BRANCH  16  18
ATOM     17  C   UNL     1      -0.668  -0.470   0.698  0.00  0.00    +0.048 C 
ATOM     18  C   UNL     1       0.736   0.127   0.590  0.00  0.00    +0.229 C 
ENDBRANCH  16  18
ENDBRANCH  14  16
ENDBRANCH   1  14
BRANCH   8  19
ATOM     19  C   UNL     1       1.524   7.713  -3.606  0.00  0.00    -0.001 C 
BRANCH  19  21
ATOM     20  C   UNL     1       3.538   7.019  -4.757  0.00  0.00    -0.095 C 
ATOM     21  N   UNL     1       2.901   8.102  -3.978  0.00  0.00    +0.385 N 
ATOM     22  H   UNL     1       3.445   8.262  -3.123  0.00  0.00    -0.081 HD
BRANCH  21  23
ATOM     23  C   UNL     1       2.876   9.348  -4.772  0.00  0.00    -0.037 C 
BRANCH  23  24
ATOM     24  C   UNL     1       2.661  10.530  -3.824  0.00  0.00    +0.210 C 
BRANCH  24  25
ATOM     25  O   UNL     1       3.772  10.631  -2.930  0.00  0.00    -0.494 OA
BRANCH  25  26
ATOM     26  C   UNL     1       3.738  11.636  -2.016  0.00  0.00    +0.120 A 
ATOM     27  C   UNL     1       2.661  12.510  -1.984  0.00  0.00    +0.047 A 
ATOM     28  C   UNL     1       2.626  13.528  -1.050  0.00  0.00    +0.023 A 
ATOM     29  C   UNL     1       3.670  13.683  -0.155  0.00  0.00    +0.041 A 
ATOM     30  C   UNL     1       4.747  12.815  -0.189  0.00  0.00    +0.023 A 
ATOM     31  C   UNL     1       4.783  11.793  -1.117  0.00  0.00    +0.047 A 
ATOM     32 CL   UNL     1       3.627  14.967   1.013  0.00  0.00    -0.084 Cl
ENDBRANCH  25  26
ENDBRANCH  24  25
ENDBRANCH  23  24
ENDBRANCH  21  23
ENDBRANCH  19  21
ENDBRANCH   8  19
TORSDOF 10
