REMARK  Name = ZINC01972624
REMARK  8 active torsions:
REMARK  status: ('A' for Active; 'I' for Inactive)
REMARK    1  A    between atoms: C_1  and  C_2
REMARK    2  A    between atoms: C_2  and  O_3
REMARK    3  A    between atoms: O_3  and  C_4
REMARK    4  A    between atoms: C_4  and  C_6
REMARK    5  A    between atoms: C_10  and  N_11
REMARK    6  A    between atoms: C_12  and  C_14
REMARK    7  A    between atoms: C_17  and  N_20
REMARK    8  A    between atoms: C_32  and  C_36
REMARK                            x       y       z     vdW  Elec       q    Type
REMARK                         _______ _______ _______ _____ _____    ______ ____
ROOT
ATOM      1  N   UNL     1      -1.118   2.574   0.022  0.00  0.00    -0.275 N 
ATOM      2  C   UNL     1      -2.364   2.061   0.026  0.00  0.00    +0.249 C 
ATOM      3  O   UNL     1      -2.526   0.856   0.020  0.00  0.00    -0.270 OA
ATOM      4  H   UNL     1      -0.972   3.664   0.026  0.00  0.00    +0.156 HD
ENDROOT
BRANCH   1   9
ATOM      5  C   UNL     1       1.327   2.063   0.001  0.00  0.00    +0.091 A 
ATOM      6  C   UNL     1       2.288   0.973  -0.015  0.00  0.00    -0.021 A 
ATOM      7  C   UNL     1       1.753  -0.267  -0.016  0.00  0.00    -0.004 A 
ATOM      8  S   UNL     1       0.002  -0.004   0.002  0.00  0.00    -0.077 S 
ATOM      9  C   UNL     1      -0.021   1.728   0.011  0.00  0.00    +0.087 A 
ATOM     10  C   UNL     1       2.491  -1.569  -0.029  0.00  0.00    +0.046 C 
ATOM     11  C   UNL     1       3.958  -1.298   0.337  0.00  0.00    -0.009 C 
ATOM     12  C   UNL     1       4.465  -0.119  -0.498  0.00  0.00    +0.008 C 
ATOM     13  C   UNL     1       3.799   1.176  -0.029  0.00  0.00    +0.037 C 
ATOM     14  C   UNL     1       4.799  -2.541   0.039  0.00  0.00    +0.008 C 
BRANCH   5  15
ATOM     15  C   UNL     1       1.763   3.461   0.004  0.00  0.00    +0.342 C 
ATOM     16  O   UNL     1       1.954   4.036   1.058  0.00  0.00    -0.245 OA
BRANCH  15  17
ATOM     17  O   UNL     1       1.952   4.111  -1.163  0.00  0.00    -0.461 OA
BRANCH  17  19
ATOM     18  C   UNL     1       2.544   6.060  -2.497  0.00  0.00    +0.048 C 
ATOM     19  C   UNL     1       2.384   5.495  -1.084  0.00  0.00    +0.229 C 
ENDBRANCH  17  19
ENDBRANCH  15  17
ENDBRANCH   5  15
ENDBRANCH   1   9
BRANCH   2  20
ATOM     20  C   UNL     1      -3.533   2.963   0.036  0.00  0.00    +0.037 A 
ATOM     21  C   UNL     1      -3.349   4.348   0.048  0.00  0.00    +0.015 A 
ATOM     22  C   UNL     1      -4.441   5.186   0.053  0.00  0.00    +0.025 A 
ATOM     23  C   UNL     1      -5.727   4.655   0.057  0.00  0.00    +0.045 A 
ATOM     24  C   UNL     1      -5.914   3.277   0.051  0.00  0.00    +0.025 A 
ATOM     25  C   UNL     1      -4.826   2.433   0.041  0.00  0.00    +0.015 A 
BRANCH  23  26
ATOM     26  N   UNL     1      -6.833   5.508   0.068  0.00  0.00    -0.202 N 
ATOM     27  C   UNL     1      -8.113   5.095   0.067  0.00  0.00    +0.258 C 
ATOM     28  O   UNL     1      -8.485   3.938   0.057  0.00  0.00    -0.269 OA
ATOM     29  C   UNL     1      -8.992   6.283   0.084  0.00  0.00    +0.050 A 
ATOM     30  C   UNL     1     -10.365   6.471   0.092  0.00  0.00    +0.014 A 
ATOM     31  C   UNL     1     -10.882   7.758   0.102  0.00  0.00    +0.001 A 
ATOM     32  C   UNL     1     -10.037   8.852   0.102  0.00  0.00    +0.001 A 
ATOM     33  C   UNL     1      -8.662   8.679   0.094  0.00  0.00    +0.014 A 
ATOM     34  C   UNL     1      -8.131   7.399   0.085  0.00  0.00    +0.050 A 
ATOM     35  C   UNL     1      -6.759   6.851   0.074  0.00  0.00    +0.258 C 
ATOM     36  O   UNL     1      -5.735   7.504   0.071  0.00  0.00    -0.269 OA
ENDBRANCH  23  26
ENDBRANCH   2  20
TORSDOF 6
