REMARK  Name = ZINC32594586
REMARK  4 active torsions:
REMARK  status: ('A' for Active; 'I' for Inactive)
REMARK    1  A    between atoms: C_1  and  C_2
REMARK    2  A    between atoms: C_2  and  C_3
REMARK    3  A    between atoms: C_3  and  C_28
REMARK    4  A    between atoms: N_18  and  C_21
REMARK                            x       y       z     vdW  Elec       q    Type
REMARK                         _______ _______ _______ _____ _____    ______ ____
ROOT
ATOM      1  C   UNL     1       0.704  -0.406   1.301  0.00  0.00    +0.014 C 
ATOM      2  C   UNL     1      -0.024   0.215   2.428  0.00  0.00    +0.031 A 
ATOM      3  C   UNL     1      -0.320  -0.291   3.640  0.00  0.00    +0.088 A 
ATOM      4  N   UNL     1      -0.973   0.565   4.493  0.00  0.00    -0.311 N 
ATOM      5  H   UNL     1      -1.195   0.279   5.393  0.00  0.00    +0.170 HD
ATOM      6  C   UNL     1      -1.306   1.800   4.076  0.00  0.00    +0.289 A 
ATOM      7  O   UNL     1      -1.889   2.675   4.693  0.00  0.00    -0.260 OA
ATOM      8  S   UNL     1      -0.723   1.848   2.500  0.00  0.00    -0.030 S 
ATOM      9  S   UNL     1       0.100  -1.970   4.036  0.00  0.00    -0.093 S 
ATOM     10  C   UNL     1       1.188  -2.477   2.712  0.00  0.00    +0.152 C 
ATOM     11  C   UNL     1       0.818  -1.929   1.327  0.00  0.00    +0.109 C 
ATOM     12  C   UNL     1       2.175  -2.194   0.635  0.00  0.00    +0.232 C 
ATOM     13  O   UNL     1       2.352  -2.447  -0.538  0.00  0.00    -0.274 OA
ATOM     14  N   UNL     1       3.123  -2.091   1.589  0.00  0.00    -0.209 N 
ATOM     15  C   UNL     1       2.627  -2.081   2.845  0.00  0.00    +0.240 C 
ATOM     16  O   UNL     1       3.225  -1.815   3.865  0.00  0.00    -0.274 OA
ATOM     17  C   UNL     1       2.118   0.176   1.274  0.00  0.00    +0.017 C 
ENDROOT
BRANCH  14  18
ATOM     18  C   UNL     1       4.492  -1.990   1.301  0.00  0.00    +0.044 A 
ATOM     19  C   UNL     1       4.927  -1.989  -0.017  0.00  0.00    +0.027 A 
ATOM     20  C   UNL     1       6.276  -1.891  -0.299  0.00  0.00    +0.040 A 
ATOM     21  C   UNL     1       7.194  -1.793   0.733  0.00  0.00    +0.124 A 
ATOM     22  C   UNL     1       6.762  -1.794   2.049  0.00  0.00    +0.040 A 
ATOM     23  C   UNL     1       5.414  -1.887   2.334  0.00  0.00    +0.027 A 
ATOM     24  F   UNL     1       8.512  -1.697   0.456  0.00  0.00    -0.205 F 
ENDBRANCH  14  18
BRANCH   1  26
ATOM     25  C   UNL     1      -1.436  -0.526   0.017  0.00  0.00    +0.005 C 
ATOM     26  C   UNL     1       0.002  -0.004   0.002  0.00  0.00    +0.009 C 
ENDBRANCH   1  26
TORSDOF 2
