REMARK  Name = ZINC40011171
REMARK  9 active torsions:
REMARK  status: ('A' for Active; 'I' for Inactive)
REMARK    1  A    between atoms: C_1  and  C_2
REMARK    2  A    between atoms: C_5  and  N_27
REMARK    3  A    between atoms: C_7  and  C_13
REMARK    4  A    between atoms: C_19  and  O_25
REMARK    5  A    between atoms: O_25  and  C_26
REMARK    6  A    between atoms: N_27  and  C_28
REMARK    7  A    between atoms: C_28  and  C_29
REMARK    8  A    between atoms: C_28  and  C_30
REMARK    9  A    between atoms: C_28  and  C_31
REMARK                            x       y       z     vdW  Elec       q    Type
REMARK                         _______ _______ _______ _____ _____    ______ ____
ROOT
ATOM      1  C   UNL     1      -0.331   1.838   0.338  0.00  0.00    +0.045 C 
ATOM      2  C   UNL     1      -0.208   0.336   0.366  0.00  0.00    -0.036 C 
ATOM      3  C   UNL     1      -1.313  -0.432   0.290  0.00  0.00    +0.078 C 
ATOM      4  N   UNL     1      -1.224  -1.794   0.313  0.00  0.00    -0.304 N 
ATOM      5  C   UNL     1      -2.280  -2.818   0.244  0.00  0.00    +0.049 C 
ATOM      6  C   UNL     1      -1.502  -4.144   0.320  0.00  0.00    +0.126 C 
ATOM      7  N   UNL     1      -0.099  -3.730   0.423  0.00  0.00    -0.265 NA
ATOM      8  C   UNL     1      -0.008  -2.417   0.414  0.00  0.00    +0.119 C 
ATOM      9  C   UNL     1       1.166  -1.614   0.495  0.00  0.00    +0.044 C 
ATOM     10  C   UNL     1       1.060  -0.263   0.466  0.00  0.00    +0.008 C 
ENDROOT
BRANCH   6  11
ATOM     11  C   UNL     1      -1.728  -4.972  -0.947  0.00  0.00    +0.123 C 
ATOM     12  C   UNL     1      -1.237  -6.380  -0.676  0.00  0.00    -0.003 C 
ATOM     13  C   UNL     1      -0.268  -6.873  -1.494  0.00  0.00    -0.007 A 
ATOM     14  C   UNL     1       0.259  -8.226  -1.299  0.00  0.00    +0.013 A 
ATOM     15  C   UNL     1       1.223  -8.683  -2.133  0.00  0.00    +0.046 A 
ATOM     16  C   UNL     1       1.722  -7.888  -3.175  0.00  0.00    +0.122 A 
ATOM     17  C   UNL     1       1.266  -6.609  -3.409  0.00  0.00    +0.069 A 
ATOM     18  C   UNL     1       0.269  -6.053  -2.595  0.00  0.00    +0.044 A 
ATOM     19  N   UNL     1      -0.165  -4.812  -2.830  0.00  0.00    -0.284 N 
ATOM     20  C   UNL     1      -1.101  -4.228  -2.104  0.00  0.00    +0.226 C 
ATOM     21  O   UNL     1      -1.457  -3.094  -2.367  0.00  0.00    -0.275 OA
ATOM     22  H   UNL     1       0.225  -4.317  -3.568  0.00  0.00    +0.155 HD
BRANCH  16  23
ATOM     23  O   UNL     1       2.686  -8.395  -3.981  0.00  0.00    -0.495 OA
ATOM     24  C   UNL     1       3.130  -9.725  -3.703  0.00  0.00    +0.277 C 
ENDBRANCH  16  23
ENDBRANCH   6  11
BRANCH   5  25
ATOM     25  N   UNL     1      -3.201  -2.689   1.381  0.00  0.00    +0.396 N 
ATOM     26  H   UNL     1      -2.721  -2.942   2.232  0.00  0.00    -0.082 HD
ATOM     27  H   UNL     1      -3.522  -1.735   1.448  0.00  0.00    -0.082 HD
BRANCH  25  28
ATOM     28  C   UNL     1      -4.351  -3.581   1.184  0.00  0.00    -0.074 C 
ATOM     29  C   UNL     1      -3.889  -5.037   1.271  0.00  0.00    -0.011 C 
ATOM     30  C   UNL     1      -5.397  -3.313   2.268  0.00  0.00    -0.011 C 
ATOM     31  C   UNL     1      -4.966  -3.323  -0.193  0.00  0.00    -0.011 C 
ENDBRANCH  25  28
ENDBRANCH   5  25
TORSDOF 4
