REMARK  Name = ZINC20806918
REMARK  9 active torsions:
REMARK  status: ('A' for Active; 'I' for Inactive)
REMARK    1  A    between atoms: C_1  and  C_2
REMARK    2  A    between atoms: C_5  and  C_8
REMARK    3  A    between atoms: N_9  and  N_10
REMARK    4  A    between atoms: C_14  and  S_17
REMARK    5  A    between atoms: N_15  and  N_16
REMARK    6  A    between atoms: S_17  and  C_18
REMARK    7  A    between atoms: C_18  and  C_19
REMARK    8  A    between atoms: N_21  and  C_22
REMARK    9  A    between atoms: C_26  and  C_28
REMARK                            x       y       z     vdW  Elec       q    Type
REMARK                         _______ _______ _______ _____ _____    ______ ____
ROOT
ATOM      1  N   UNL     1       3.682  13.166   0.797  0.00  0.00    -0.204 N 
ATOM      2  C   UNL     1       2.998  11.965   0.677  0.00  0.00    +0.254 A 
ATOM      3  N   UNL     1       1.696  11.821   0.622  0.00  0.00    -0.109 NA
ATOM      4  N   UNL     1       1.417  10.454   0.497  0.00  0.00    -0.119 NA
ATOM      5  C   UNL     1       2.558   9.806   0.488  0.00  0.00    +0.210 A 
ATOM      6  N   UNL     1       3.565  10.723   0.596  0.00  0.00    -0.211 N 
ATOM      7  H   UNL     1       4.781  13.173   0.834  0.00  0.00    +0.177 HD
ENDROOT
BRANCH   6   8
ATOM      8  N   UNL     1       4.902  10.448   0.619  0.00  0.00    -0.294 N 
ATOM      9  H   UNL     1       5.251   9.407   0.546  0.00  0.00    +0.163 HD
ATOM     10  H   UNL     1       5.631  11.267   0.709  0.00  0.00    +0.163 HD
ENDBRANCH   6   8
BRANCH   1  12
ATOM     11  C   UNL     1       3.611  15.496   0.983  0.00  0.00    +0.138 C 
ATOM     12  N   UNL     1       2.971  14.372   0.871  0.00  0.00    -0.188 NA
BRANCH  11  17
ATOM     13  C   UNL     1       0.696  20.445   1.285  0.00  0.00    +0.044 C 
ATOM     14  C   UNL     1       1.459  19.148   1.206  0.00  0.00    -0.050 A 
ATOM     15  C   UNL     1       2.842  19.160   1.253  0.00  0.00    +0.004 A 
ATOM     16  C   UNL     1       3.548  17.977   1.181  0.00  0.00    +0.010 A 
ATOM     17  C   UNL     1       2.864  16.765   1.060  0.00  0.00    -0.005 A 
ATOM     18  C   UNL     1       1.467  16.761   1.008  0.00  0.00    +0.010 A 
ATOM     19  C   UNL     1       0.775  17.951   1.086  0.00  0.00    +0.004 A 
ENDBRANCH  11  17
ENDBRANCH   1  12
BRANCH   5  20
ATOM     20  S   UNL     1       2.757   8.061   0.352  0.00  0.00    -0.075 S 
BRANCH  20  21
ATOM     21  C   UNL     1       1.059   7.433   0.245  0.00  0.00    +0.173 C 
BRANCH  21  22
ATOM     22  C   UNL     1       1.085   5.931   0.123  0.00  0.00    +0.227 C 
ATOM     23  O   UNL     1       2.146   5.342   0.111  0.00  0.00    -0.275 OA
ATOM     24  N   UNL     1      -0.069   5.242   0.029  0.00  0.00    -0.285 N 
ATOM     25  H   UNL     1      -1.026   5.779  -0.047  0.00  0.00    +0.155 HD
BRANCH  24  26
ATOM     26  C   UNL     1      -0.051   3.842   0.028  0.00  0.00    +0.034 A 
ATOM     27  C   UNL     1       0.907   3.158   0.765  0.00  0.00    +0.023 A 
ATOM     28  C   UNL     1       0.922   1.778   0.762  0.00  0.00    +0.002 A 
ATOM     29  C   UNL     1      -0.014   1.076   0.025  0.00  0.00    +0.003 A 
ATOM     30  C   UNL     1      -0.966   1.754  -0.714  0.00  0.00    -0.049 A 
ATOM     31  C   UNL     1      -0.990   3.135  -0.711  0.00  0.00    +0.026 A 
ATOM     32  C   UNL     1      -1.981   0.985  -1.521  0.00  0.00    +0.044 C 
ENDBRANCH  24  26
ENDBRANCH  21  22
ENDBRANCH  20  21
ENDBRANCH   5  20
TORSDOF 7
