REMARK  Name = ZINC28538876
REMARK  6 active torsions:
REMARK  status: ('A' for Active; 'I' for Inactive)
REMARK    1  A    between atoms: C_2  and  C_3
REMARK    2  A    between atoms: C_3  and  N_4
REMARK    3  A    between atoms: C_10  and  S_11
REMARK    4  A    between atoms: S_11  and  C_12
REMARK    5  A    between atoms: C_12  and  C_13
REMARK    6  A    between atoms: N_20  and  C_21
REMARK                            x       y       z     vdW  Elec       q    Type
REMARK                         _______ _______ _______ _____ _____    ______ ____
ROOT
ATOM      1  N   UNL     1       2.006   4.428  -0.255  0.00  0.00    -0.280 N 
ATOM      2  C   UNL     1       0.913   3.650  -0.080  0.00  0.00    +0.296 A 
ATOM      3  O   UNL     1      -0.178   4.142   0.150  0.00  0.00    -0.264 OA
ATOM      4  C   UNL     1       1.077   2.242  -0.168  0.00  0.00    +0.211 A 
ATOM      5  N   UNL     1       2.269   1.747  -0.423  0.00  0.00    -0.126 NA
ATOM      6  N   UNL     1       3.288   2.510  -0.590  0.00  0.00    -0.122 NA
ATOM      7  C   UNL     1       3.203   3.824  -0.517  0.00  0.00    +0.194 A 
ATOM      8  N   UNL     1      -0.017   1.392   0.010  0.00  0.00    -0.294 N 
ATOM      9  H   UNL     1      -1.026   1.813   0.133  0.00  0.00    +0.154 HD
ENDROOT
BRANCH   8  10
ATOM     10  C   UNL     1       0.170   0.009   0.031  0.00  0.00    +0.035 A 
ATOM     11  C   UNL     1      -0.819  -0.835  -0.459  0.00  0.00    +0.043 A 
ATOM     12  C   UNL     1      -0.629  -2.204  -0.442  0.00  0.00    +0.044 A 
ATOM     13  C   UNL     1       0.541  -2.735   0.073  0.00  0.00    +0.040 A 
ATOM     14  C   UNL     1       1.526  -1.897   0.566  0.00  0.00    +0.044 A 
ATOM     15  C   UNL     1       1.343  -0.527   0.546  0.00  0.00    +0.043 A 
ATOM     16 CL   UNL     1       2.991  -2.568   1.211  0.00  0.00    -0.083 Cl
ATOM     17 CL   UNL     1      -1.862  -3.258  -1.061  0.00  0.00    -0.083 Cl
ENDBRANCH   8  10
BRANCH   1  18
ATOM     18  C   UNL     1       1.907   5.888  -0.172  0.00  0.00    +0.154 C 
BRANCH  18  20
ATOM     19  C   UNL     1       0.556   7.222  -1.707  0.00  0.00    +0.005 C 
ATOM     20  C   UNL     1       1.599   6.448  -1.537  0.00  0.00    -0.013 C 
ENDBRANCH  18  20
ENDBRANCH   1  18
BRANCH   7  21
ATOM     21  S   UNL     1       4.644   4.808  -0.757  0.00  0.00    -0.081 S 
BRANCH  21  22
ATOM     22  C   UNL     1       5.867   3.507  -1.053  0.00  0.00    +0.112 C 
BRANCH  22  23
ATOM     23  C   UNL     1       7.218   4.132  -1.292  0.00  0.00    -0.037 A 
ATOM     24  C   UNL     1       7.609   4.464  -2.575  0.00  0.00    +0.005 A 
ATOM     25  C   UNL     1       8.845   5.042  -2.793  0.00  0.00    +0.015 A 
ATOM     26  C   UNL     1       9.696   5.278  -1.728  0.00  0.00    +0.018 A 
ATOM     27  C   UNL     1       9.306   4.941  -0.445  0.00  0.00    +0.015 A 
ATOM     28  C   UNL     1       8.067   4.368  -0.227  0.00  0.00    +0.005 A 
ATOM     29 BR   UNL     1      11.390   6.062  -2.027  0.00  0.00    -0.050 Br
ENDBRANCH  22  23
ENDBRANCH  21  22
ENDBRANCH   7  21
TORSDOF 6
