REMARK  Name = ZINC14461475
REMARK  8 active torsions:
REMARK  status: ('A' for Active; 'I' for Inactive)
REMARK    1  A    between atoms: C_1  and  C_2
REMARK    2  A    between atoms: C_2  and  N_3
REMARK    3  A    between atoms: N_3  and  C_4
REMARK    4  A    between atoms: N_3  and  C_6
REMARK    5  A    between atoms: C_4  and  C_5
REMARK    6  A    between atoms: C_9  and  C_12
REMARK    7  A    between atoms: C_22  and  N_29
REMARK    8  A    between atoms: C_25  and  C_28
REMARK                            x       y       z     vdW  Elec       q    Type
REMARK                         _______ _______ _______ _____ _____    ______ ____
ROOT
ATOM      1  C   UNL     1      -0.267  -4.124  -2.276  0.00  0.00    +0.105 C 
ATOM      2  C   UNL     1      -1.635  -4.412  -1.734  0.00  0.00    +0.029 C 
ATOM      3  C   UNL     1      -1.661  -5.677  -0.851  0.00  0.00    +0.033 C 
ATOM      4  C   UNL     1      -3.080  -6.186  -0.991  0.00  0.00    -0.030 C 
ATOM      5  C   UNL     1      -3.663  -5.662  -2.037  0.00  0.00    -0.023 C 
ATOM      6  C   UNL     1      -2.708  -4.749  -2.766  0.00  0.00    +0.051 C 
ATOM      7  C   UNL     1      -2.171  -5.493  -3.955  0.00  0.00    +0.011 A 
ATOM      8  C   UNL     1      -3.074  -6.118  -4.804  0.00  0.00    +0.132 A 
ATOM      9  C   UNL     1      -2.628  -6.822  -5.904  0.00  0.00    +0.033 A 
ATOM     10  C   UNL     1      -1.273  -6.914  -6.168  0.00  0.00    +0.007 A 
ATOM     11  C   UNL     1      -0.368  -6.293  -5.332  0.00  0.00    -0.029 A 
ATOM     12  C   UNL     1      -0.817  -5.576  -4.226  0.00  0.00    +0.037 A 
ATOM     13  N   UNL     1       0.101  -4.919  -3.430  0.00  0.00    -0.336 N 
ATOM     14  C   UNL     1       1.108  -6.391  -5.617  0.00  0.00    +0.045 C 
ATOM     15  H   UNL     1       1.041  -5.022  -3.643  0.00  0.00    +0.147 HD
ENDROOT
BRANCH   1  19
ATOM     16  C   UNL     1      -0.081   0.003  -3.363  0.00  0.00    +0.013 A 
ATOM     17  C   UNL     1       0.414  -0.413  -2.141  0.00  0.00    +0.022 A 
ATOM     18  C   UNL     1       0.353  -1.749  -1.789  0.00  0.00    +0.007 A 
ATOM     19  C   UNL     1      -0.202  -2.668  -2.659  0.00  0.00    -0.027 A 
ATOM     20  C   UNL     1      -0.697  -2.252  -3.881  0.00  0.00    +0.007 A 
ATOM     21  C   UNL     1      -0.641  -0.916  -4.231  0.00  0.00    +0.022 A 
BRANCH  16  22
ATOM     22  N   UNL     1      -0.020   1.353  -3.718  0.00  0.00    -0.394 NA
ATOM     23  H   UNL     1      -0.426   1.479  -4.633  0.00  0.00    +0.126 HD
BRANCH  22  25
ATOM     24  C   UNL     1      -2.254   1.805  -2.822  0.00  0.00    +0.022 C 
ATOM     25  C   UNL     1      -0.766   2.152  -2.737  0.00  0.00    +0.081 C 
ENDBRANCH  22  25
BRANCH  22  26
ATOM     26  C   UNL     1       1.382   1.791  -3.741  0.00  0.00    +0.081 C 
ATOM     27  C   UNL     1       2.144   1.007  -4.811  0.00  0.00    +0.022 C 
ENDBRANCH  22  26
ENDBRANCH  16  22
ENDBRANCH   1  19
BRANCH   8  28
ATOM     28  N   UNL     1      -4.525  -6.028  -4.528  0.00  0.00    +0.057 N 
ATOM     29  O   UNL     1      -5.230  -6.998  -4.676  0.00  0.00    -0.126 OA
ATOM     30  O   UNL     1      -5.005  -4.983  -4.153  0.00  0.00    -0.126 OA
ENDBRANCH   8  28
TORSDOF 5
