REMARK  Name = ZINC34990536
REMARK  5 active torsions:
REMARK  status: ('A' for Active; 'I' for Inactive)
REMARK    1  A    between atoms: C_8  and  N_27
REMARK    2  A    between atoms: C_9  and  C_12
REMARK    3  A    between atoms: C_13  and  C_14
REMARK    4  A    between atoms: C_13  and  C_16
REMARK    5  A    between atoms: N_18  and  C_19
REMARK                            x       y       z     vdW  Elec       q    Type
REMARK                         _______ _______ _______ _____ _____    ______ ____
ROOT
ATOM      1  C   UNL     1       1.101   2.215   0.376  0.00  0.00    +0.005 A 
ATOM      2  C   UNL     1       2.429   2.591   0.132  0.00  0.00    +0.018 A 
ATOM      3  C   UNL     1       3.365   1.648  -0.121  0.00  0.00    +0.096 A 
ATOM      4  N   UNL     1       3.035   0.326  -0.142  0.00  0.00    -0.268 N 
ATOM      5  C   UNL     1       1.749  -0.072   0.093  0.00  0.00    +0.142 A 
ATOM      6  C   UNL     1       0.762   0.894   0.357  0.00  0.00    +0.047 A 
ATOM      7  N   UNL     1       1.406  -1.361   0.077  0.00  0.00    -0.214 NA
ATOM      8  C   UNL     1       2.292  -2.314  -0.166  0.00  0.00    +0.136 A 
ATOM      9  C   UNL     1       3.643  -1.964  -0.418  0.00  0.00    +0.081 A 
ATOM     10  C   UNL     1       3.995  -0.589  -0.398  0.00  0.00    +0.267 A 
ATOM     11  O   UNL     1       5.143  -0.240  -0.609  0.00  0.00    -0.267 OA
ENDROOT
BRANCH   8  12
ATOM     12  N   UNL     1       1.905  -3.634  -0.175  0.00  0.00    -0.314 N 
ATOM     13  C   UNL     1       0.620  -4.034  -0.764  0.00  0.00    +0.112 C 
ATOM     14  C   UNL     1      -0.170  -4.838   0.274  0.00  0.00    +0.084 C 
ATOM     15  C   UNL     1       0.688  -6.004   0.771  0.00  0.00    +0.173 C 
ATOM     16  C   UNL     1       1.960  -5.470   1.433  0.00  0.00    +0.084 C 
ATOM     17  C   UNL     1       2.772  -4.672   0.400  0.00  0.00    +0.112 C 
ATOM     18  O   UNL     1      -0.058  -6.779   1.718  0.00  0.00    -0.346 OA
ATOM     19  C   UNL     1      -0.154  -8.119   1.193  0.00  0.00    +0.191 C 
ATOM     20  C   UNL     1       1.028  -8.189   0.194  0.00  0.00    +0.191 C 
ATOM     21  O   UNL     1       1.043  -6.843  -0.340  0.00  0.00    -0.346 OA
ENDBRANCH   8  12
BRANCH   9  22
ATOM     22  C   UNL     1       4.608  -2.952  -0.679  0.00  0.00    +0.040 C 
ATOM     23  C   UNL     1       5.626  -3.188   0.235  0.00  0.00    +0.114 C 
BRANCH  23  24
ATOM     24  C   UNL     1       5.623  -2.498   1.529  0.00  0.00    +0.255 C 
ATOM     25  O   UNL     1       4.715  -1.738   1.812  0.00  0.00    -0.269 OA
ATOM     26  N   UNL     1       6.626  -2.704   2.405  0.00  0.00    -0.306 N 
ATOM     27  H   UNL     1       7.350  -3.310   2.180  0.00  0.00    +0.149 HD
BRANCH  26  28
ATOM     28  C   UNL     1       6.623  -2.015   3.698  0.00  0.00    +0.096 C 
ATOM     29  C   UNL     1       7.279  -0.632   3.551  0.00  0.00    +0.046 C 
ATOM     30  C   UNL     1       7.571  -0.035   4.948  0.00  0.00    +0.168 C 
ATOM     31  S   UNL     1       7.800  -1.534   5.989  0.00  0.00    -0.029 S 
ATOM     32  O   UNL     1       6.786  -1.566   6.984  0.00  0.00    -0.174 OA
ATOM     33  O   UNL     1       9.164  -1.623   6.377  0.00  0.00    -0.174 OA
ATOM     34  C   UNL     1       7.448  -2.834   4.732  0.00  0.00    +0.188 C 
ENDBRANCH  26  28
ENDBRANCH  23  24
BRANCH  23  35
ATOM     35  C   UNL     1       6.678  -4.105  -0.085  0.00  0.00    +0.104 C 
ATOM     36  N   UNL     1       7.513  -4.832  -0.339  0.00  0.00    -0.191 NA
ENDBRANCH  23  35
ENDBRANCH   9  22
TORSDOF 5
