REMARK  Name = ZINC03449574
REMARK  8 active torsions:
REMARK  status: ('A' for Active; 'I' for Inactive)
REMARK    1  A    between atoms: C_1  and  C_2
REMARK    2  A    between atoms: C_4  and  N_11
REMARK    3  A    between atoms: C_5  and  O_9
REMARK    4  A    between atoms: O_9  and  C_10
REMARK    5  A    between atoms: C_12  and  C_14
REMARK    6  A    between atoms: C_14  and  S_15
REMARK    7  A    between atoms: S_15  and  C_16
REMARK    8  A    between atoms: C_22  and  N_24
REMARK                            x       y       z     vdW  Elec       q    Type
REMARK                         _______ _______ _______ _____ _____    ______ ____
ROOT
ATOM      1  N   UNL     1      -0.288   1.272  -2.443  0.00  0.00    -0.282 N 
ATOM      2  C   UNL     1      -0.738   1.591  -1.213  0.00  0.00    +0.228 C 
ATOM      3  O   UNL     1      -1.734   2.272  -1.089  0.00  0.00    -0.275 OA
ATOM      4  H   UNL     1       0.543   0.783  -2.544  0.00  0.00    +0.155 HD
ENDROOT
BRANCH   1   8
ATOM      5  C   UNL     1      -3.207   4.513  -4.715  0.00  0.00    +0.045 C 
ATOM      6  C   UNL     1      -2.446   3.212  -4.706  0.00  0.00    -0.030 A 
ATOM      7  C   UNL     1      -1.723   2.844  -3.587  0.00  0.00    +0.031 A 
ATOM      8  C   UNL     1      -1.023   1.647  -3.577  0.00  0.00    +0.076 A 
ATOM      9  C   UNL     1      -1.046   0.820  -4.698  0.00  0.00    +0.143 A 
ATOM     10  C   UNL     1      -1.778   1.193  -5.814  0.00  0.00    +0.067 A 
ATOM     11  C   UNL     1      -2.474   2.389  -5.817  0.00  0.00    +0.047 A 
ATOM     12 CL   UNL     1      -3.384   2.857  -7.220  0.00  0.00    -0.083 Cl
BRANCH   9  13
ATOM     13  O   UNL     1      -0.357  -0.352  -4.695  0.00  0.00    -0.493 OA
ATOM     14  C   UNL     1      -0.427  -1.148  -5.880  0.00  0.00    +0.277 C 
ENDBRANCH   9  13
ENDBRANCH   1   8
BRANCH   2  15
ATOM     15  C   UNL     1      -0.003   1.103   0.008  0.00  0.00    +0.173 C 
BRANCH  15  16
ATOM     16  S   UNL     1      -0.846   1.693   1.497  0.00  0.00    -0.078 S 
BRANCH  16  17
ATOM     17  C   UNL     1       0.195   0.996   2.735  0.00  0.00    +0.171 A 
ATOM     18  N   UNL     1      -0.093   1.213   4.049  0.00  0.00    -0.302 N 
ATOM     19  H   UNL     1      -0.887   1.766   4.301  0.00  0.00    +0.171 HD
ATOM     20  C   UNL     1       0.691   0.682   5.011  0.00  0.00    +0.254 A 
ATOM     21  O   UNL     1       0.438   0.868   6.191  0.00  0.00    -0.268 OA
ATOM     22  C   UNL     1       1.802  -0.079   4.634  0.00  0.00    +0.113 A 
ATOM     23  C   UNL     1       2.055  -0.266   3.282  0.00  0.00    +0.124 A 
ATOM     24  N   UNL     1       1.240   0.280   2.372  0.00  0.00    -0.209 NA
BRANCH  23  25
ATOM     25  N   UNL     1       3.143  -1.012   2.877  0.00  0.00    -0.343 N 
ATOM     26  H   UNL     1       3.318  -1.142   1.932  0.00  0.00    +0.144 HD
ATOM     27  H   UNL     1       3.733  -1.407   3.538  0.00  0.00    +0.144 HD
ENDBRANCH  23  25
ENDBRANCH  16  17
ENDBRANCH  15  16
ENDBRANCH   2  15
TORSDOF 6
