REMARK  Name = ZINC13500555
REMARK  14 active torsions:
REMARK  status: ('A' for Active; 'I' for Inactive)
REMARK    1  A    between atoms: C_1  and  C_2
REMARK    2  A    between atoms: C_9  and  C_14
REMARK    3  A    between atoms: C_14  and  N_67
REMARK    4  A    between atoms: C_15  and  C_16
REMARK    5  A    between atoms: C_15  and  N_67
REMARK    6  A    between atoms: C_16  and  C_17
REMARK    7  A    between atoms: C_17  and  O_18
REMARK    8  A    between atoms: C_19  and  C_21
REMARK    9  A    between atoms: C_19  and  C_33
REMARK   10  A    between atoms: C_19  and  N_67
REMARK   11  A    between atoms: N_25  and  C_26
REMARK   12  A    between atoms: C_26  and  C_27
REMARK   13  A    between atoms: C_33  and  C_34
REMARK   14  A    between atoms: C_33  and  C_35
REMARK                            x       y       z     vdW  Elec       q    Type
REMARK                         _______ _______ _______ _____ _____    ______ ____
ROOT
ATOM      1  N   UNL     1       0.513   1.615   1.531  0.00  0.00    +0.389 N 
ATOM      2  H   UNL     1       1.302   2.269   1.471  0.00  0.00    -0.080 HD
ENDROOT
BRANCH   1   3
ATOM      3  C   UNL     1       0.981   0.264   1.157  0.00  0.00    -0.037 C 
BRANCH   3  12
ATOM      4  C   UNL     1      -4.283  -3.236  -2.800  0.00  0.00    +0.044 C 
ATOM      5  C   UNL     1      -3.591  -2.958  -1.491  0.00  0.00    -0.050 A 
ATOM      6  C   UNL     1      -4.027  -3.589  -0.334  0.00  0.00    +0.005 A 
ATOM      7  C   UNL     1      -3.409  -3.348   0.874  0.00  0.00    +0.026 A 
ATOM      8  C   UNL     1      -2.337  -2.464   0.937  0.00  0.00    +0.049 A 
ATOM      9  C   UNL     1      -1.898  -1.826  -0.238  0.00  0.00    -0.001 A 
ATOM     10  C   UNL     1      -2.540  -2.085  -1.454  0.00  0.00    +0.013 A 
ATOM     11  C   UNL     1      -0.772  -0.893  -0.161  0.00  0.00    +0.017 A 
ATOM     12  C   UNL     1      -0.184  -0.686   1.043  0.00  0.00    +0.001 A 
ATOM     13  C   UNL     1      -0.663  -1.352   2.192  0.00  0.00    +0.251 A 
ATOM     14  O   UNL     1      -0.123  -1.147   3.265  0.00  0.00    -0.268 OA
ATOM     15  N   UNL     1      -1.699  -2.206   2.132  0.00  0.00    -0.322 N 
ATOM     16  H   UNL     1      -2.003  -2.646   2.941  0.00  0.00    +0.169 HD
ENDBRANCH   3  12
ENDBRANCH   1   3
BRANCH   1  17
ATOM     17  C   UNL     1      -0.550   2.057   0.604  0.00  0.00    -0.075 C 
BRANCH  17  18
ATOM     18  C   UNL     1       0.064   2.279  -0.780  0.00  0.00    +0.009 C 
BRANCH  18  19
ATOM     19  C   UNL     1      -1.036   2.677  -1.767  0.00  0.00    +0.154 C 
BRANCH  19  20
ATOM     20  O   UNL     1      -0.463   2.884  -3.059  0.00  0.00    -0.395 OA
ATOM     21  H   UNL     1      -1.104   3.140  -3.737  0.00  0.00    +0.209 HD
ENDBRANCH  19  20
ENDBRANCH  18  19
ENDBRANCH  17  18
ENDBRANCH   1  17
BRANCH   1  22
ATOM     22  C   UNL     1       0.003   1.606   2.918  0.00  0.00    +0.006 C 
BRANCH  22  23
ATOM     23  C   UNL     1      -0.598   2.952   3.230  0.00  0.00    +0.138 A 
ATOM     24  N   UNL     1      -0.020   4.120   3.084  0.00  0.00    -0.115 NA
ATOM     25  N   UNL     1      -0.856   5.027   3.457  0.00  0.00    -0.023 NA
ATOM     26  N   UNL     1      -1.952   4.468   3.837  0.00  0.00    -0.044 NA
ATOM     27  N   UNL     1      -1.834   3.190   3.707  0.00  0.00    -0.228 N 
BRANCH  27  28
ATOM     28  C   UNL     1      -2.853   2.186   4.022  0.00  0.00    +0.178 C 
BRANCH  28  29
ATOM     29  C   UNL     1      -2.794   1.850   5.513  0.00  0.00    +0.140 C 
ATOM     30  C   UNL     1      -3.805   0.730   5.838  0.00  0.00    +0.035 C 
ATOM     31  C   UNL     1      -4.368   1.182   7.213  0.00  0.00    +0.031 C 
ATOM     32  C   UNL     1      -4.344   2.723   7.048  0.00  0.00    +0.160 C 
ATOM     33  O   UNL     1      -3.159   3.000   6.285  0.00  0.00    -0.375 OA
ENDBRANCH  28  29
ENDBRANCH  27  28
ENDBRANCH  22  23
BRANCH  22  34
ATOM     34  C   UNL     1       1.168   1.334   3.872  0.00  0.00    -0.024 C 
ATOM     35  C   UNL     1       2.239   2.411   3.689  0.00  0.00    +0.006 C 
ATOM     36  C   UNL     1       0.661   1.359   5.316  0.00  0.00    +0.006 C 
ENDBRANCH  22  34
ENDBRANCH   1  22
TORSDOF 11
