REMARK  Name = ZINC15017784
REMARK  8 active torsions:
REMARK  status: ('A' for Active; 'I' for Inactive)
REMARK    1  A    between atoms: C_1  and  C_2
REMARK    2  A    between atoms: C_5  and  C_8
REMARK    3  A    between atoms: C_8  and  C_10
REMARK    4  A    between atoms: C_8  and  N_25
REMARK    5  A    between atoms: C_10  and  C_12
REMARK    6  A    between atoms: C_10  and  O_24
REMARK    7  A    between atoms: C_12  and  C_14
REMARK    8  A    between atoms: C_28  and  N_31
REMARK                            x       y       z     vdW  Elec       q    Type
REMARK                         _______ _______ _______ _____ _____    ______ ____
ROOT
ATOM      1  C   UNL     1      -0.709   4.298  -1.391  0.00  0.00    +0.123 C 
ENDROOT
BRANCH   1   6
ATOM      2  C   UNL     1      -0.481   9.911  -0.035  0.00  0.00    +0.044 C 
ATOM      3  C   UNL     1      -0.541   8.447  -0.389  0.00  0.00    -0.050 A 
ATOM      4  C   UNL     1       0.611   7.778  -0.759  0.00  0.00    +0.003 A 
ATOM      5  C   UNL     1       0.556   6.436  -1.083  0.00  0.00    +0.005 A 
ATOM      6  C   UNL     1      -0.650   5.762  -1.037  0.00  0.00    -0.027 A 
ATOM      7  C   UNL     1      -1.802   6.432  -0.672  0.00  0.00    +0.005 A 
ATOM      8  C   UNL     1      -1.747   7.773  -0.342  0.00  0.00    +0.003 A 
ENDBRANCH   1   6
BRANCH   1   9
ATOM      9  N   UNL     1      -1.697   4.093  -2.459  0.00  0.00    -0.293 NA
ATOM     10  C   UNL     1      -1.710   5.228  -3.390  0.00  0.00    +0.083 C 
ATOM     11  C   UNL     1      -2.846   5.048  -4.400  0.00  0.00    +0.000 C 
ATOM     12  C   UNL     1      -2.638   3.739  -5.166  0.00  0.00    -0.066 C 
ATOM     13  C   UNL     1      -2.580   2.578  -4.170  0.00  0.00    +0.000 C 
ATOM     14  C   UNL     1      -1.452   2.829  -3.166  0.00  0.00    +0.083 C 
BRANCH  12  15
ATOM     15  N   UNL     1      -3.756   3.532  -6.096  0.00  0.00    +0.382 N 
ATOM     16  C   UNL     1      -3.646   2.233  -6.771  0.00  0.00    -0.078 C 
ATOM     17  C   UNL     1      -4.896   1.988  -7.619  0.00  0.00    -0.019 C 
ATOM     18  C   UNL     1      -5.034   3.111  -8.651  0.00  0.00    -0.004 C 
ATOM     19  C   UNL     1      -5.099   4.457  -7.924  0.00  0.00    -0.019 C 
ATOM     20  C   UNL     1      -3.842   4.630  -7.068  0.00  0.00    -0.078 C 
ATOM     21  H   UNL     1      -4.688   3.528  -5.512  0.00  0.00    -0.081 HD
ENDBRANCH  12  15
ENDBRANCH   1   9
BRANCH   1  22
ATOM     22  C   UNL     1      -1.117   3.491  -0.157  0.00  0.00    +0.207 C 
BRANCH  22  23
ATOM     23  C   UNL     1      -1.107   2.022  -0.492  0.00  0.00    +0.195 C 
ATOM     24  O   UNL     1      -2.148   1.450  -0.745  0.00  0.00    -0.289 OA
BRANCH  23  25
ATOM     25  C   UNL     1       0.116   1.307  -0.511  0.00  0.00    +0.045 A 
ATOM     26  C   UNL     1       1.373   1.811  -0.255  0.00  0.00    +0.095 A 
ATOM     27  N   UNL     1       2.288   0.830  -0.375  0.00  0.00    -0.360 N 
ATOM     28  H   UNL     1       3.353   1.046  -0.206  0.00  0.00    +0.165 HD
ATOM     29  C   UNL     1       1.682  -0.363  -0.716  0.00  0.00    +0.047 A 
ATOM     30  C   UNL     1       0.302  -0.125  -0.817  0.00  0.00    +0.010 A 
ATOM     31  C   UNL     1      -0.564  -1.162  -1.151  0.00  0.00    +0.011 A 
ATOM     32  C   UNL     1      -0.059  -2.424  -1.382  0.00  0.00    +0.001 A 
ATOM     33  C   UNL     1       1.303  -2.661  -1.283  0.00  0.00    +0.002 A 
ATOM     34  C   UNL     1       2.171  -1.643  -0.952  0.00  0.00    +0.026 A 
ENDBRANCH  23  25
ENDBRANCH  22  23
BRANCH  22  35
ATOM     35  O   UNL     1      -2.430   3.878   0.253  0.00  0.00    -0.382 OA
ATOM     36  H   UNL     1      -2.895   3.403   1.129  0.00  0.00    +0.210 HD
ENDBRANCH  22  35
ENDBRANCH   1  22
TORSDOF 7
