REMARK  Name = ZINC59640497
REMARK  9 active torsions:
REMARK  status: ('A' for Active; 'I' for Inactive)
REMARK    1  A    between atoms: C_1  and  C_2
REMARK    2  A    between atoms: C_4  and  C_27
REMARK    3  A    between atoms: C_6  and  N_8
REMARK    4  A    between atoms: C_9  and  C_26
REMARK    5  A    between atoms: C_11  and  C_14
REMARK    6  A    between atoms: C_12  and  C_13
REMARK    7  A    between atoms: N_15  and  N_16
REMARK    8  A    between atoms: C_21  and  N_23
REMARK    9  A    between atoms: N_23  and  C_24
REMARK                            x       y       z     vdW  Elec       q    Type
REMARK                         _______ _______ _______ _____ _____    ______ ____
ROOT
ATOM      1  N   UNL     1       0.051  -2.798   2.395  0.00  0.00    -0.317 N 
ATOM      2  C   UNL     1      -0.948  -3.620   2.833  0.00  0.00    +0.022 A 
ATOM      3  C   UNL     1      -0.597  -4.132   4.027  0.00  0.00    +0.032 A 
ATOM      4  C   UNL     1       0.723  -3.581   4.349  0.00  0.00    +0.016 A 
ATOM      5  C   UNL     1       1.066  -2.774   3.302  0.00  0.00    +0.030 A 
ATOM      6  C   UNL     1       2.346  -1.989   3.175  0.00  0.00    +0.064 C 
ATOM      7  C   UNL     1      -2.232  -3.907   2.100  0.00  0.00    +0.064 C 
ENDROOT
BRANCH   1  13
ATOM      8  C   UNL     1      -0.018   1.503   0.010  0.00  0.00    +0.044 C 
ATOM      9  C   UNL     1       0.002  -0.004   0.002  0.00  0.00    -0.048 A 
ATOM     10  C   UNL     1       0.006  -0.688  -1.200  0.00  0.00    +0.006 A 
ATOM     11  C   UNL     1       0.024  -2.071  -1.211  0.00  0.00    -0.048 A 
ATOM     12  C   UNL     1       0.039  -2.773  -0.022  0.00  0.00    +0.029 A 
ATOM     13  C   UNL     1       0.036  -2.089   1.186  0.00  0.00    +0.047 A 
ATOM     14  C   UNL     1       0.023  -0.700   1.195  0.00  0.00    +0.029 A 
ATOM     15  C   UNL     1       0.027  -2.812  -2.523  0.00  0.00    +0.044 C 
ENDBRANCH   1  13
BRANCH   4  16
ATOM     16  C   UNL     1       1.522  -3.849   5.559  0.00  0.00    +0.140 C 
ATOM     17  N   UNL     1       2.682  -3.285   5.708  0.00  0.00    -0.187 NA
BRANCH  17  18
ATOM     18  N   UNL     1       3.442  -3.540   6.857  0.00  0.00    -0.205 N 
ATOM     19  C   UNL     1       4.679  -2.938   7.016  0.00  0.00    +0.237 A 
ATOM     20  N   UNL     1       5.125  -2.120   6.074  0.00  0.00    -0.219 NA
ATOM     21  C   UNL     1       6.304  -1.526   6.191  0.00  0.00    +0.156 A 
ATOM     22  C   UNL     1       7.074  -1.766   7.314  0.00  0.00    +0.181 A 
ATOM     23  C   UNL     1       6.576  -2.633   8.291  0.00  0.00    +0.159 A 
ATOM     24  N   UNL     1       5.383  -3.191   8.110  0.00  0.00    -0.195 NA
ATOM     25  F   UNL     1       8.280  -1.176   7.464  0.00  0.00    -0.200 F 
ATOM     26  H   UNL     1       3.101  -4.137   7.541  0.00  0.00    +0.177 HD
BRANCH  23  27
ATOM     27  N   UNL     1       7.313  -2.904   9.433  0.00  0.00    -0.330 N 
ATOM     28  C   UNL     1       6.781  -3.815  10.450  0.00  0.00    +0.127 C 
ATOM     29  H   UNL     1       8.182  -2.490   9.560  0.00  0.00    +0.147 HD
ENDBRANCH  23  27
ENDBRANCH  17  18
ENDBRANCH   4  16
TORSDOF 4
