REMARK  Name = ZINC14470290
REMARK  10 active torsions:
REMARK  status: ('A' for Active; 'I' for Inactive)
REMARK    1  A    between atoms: C_1  and  C_2
REMARK    2  A    between atoms: C_2  and  C_3
REMARK    3  A    between atoms: C_3  and  C_5
REMARK    4  A    between atoms: C_3  and  N_6
REMARK    5  A    between atoms: N_6  and  S_7
REMARK    6  A    between atoms: S_7  and  C_10
REMARK    7  A    between atoms: C_23  and  C_26
REMARK    8  A    between atoms: C_29  and  O_32
REMARK    9  A    between atoms: O_32  and  C_33
REMARK   10  A    between atoms: C_33  and  C_34
REMARK                            x       y       z     vdW  Elec       q    Type
REMARK                         _______ _______ _______ _____ _____    ______ ____
ROOT
ATOM      1  C   UNL     1       0.386  -2.842  -0.201  0.00  0.00    +0.106 A 
ATOM      2  C   UNL     1      -0.796  -2.266   0.227  0.00  0.00    +0.030 A 
ATOM      3  C   UNL     1      -0.906  -0.890   0.280  0.00  0.00    +0.025 A 
ATOM      4  C   UNL     1       0.167  -0.092  -0.095  0.00  0.00    +0.031 A 
ATOM      5  C   UNL     1       1.353  -0.666  -0.528  0.00  0.00    -0.018 A 
ATOM      6  C   UNL     1       1.452  -2.050  -0.576  0.00  0.00    +0.034 A 
ATOM      7  C   UNL     1       2.532   0.153  -0.948  0.00  0.00    +0.049 C 
ATOM      8  C   UNL     1       3.616   0.138   0.102  0.00  0.00    -0.023 C 
ATOM      9  C   UNL     1       4.207   1.307   0.162  0.00  0.00    -0.030 C 
ATOM     10  C   UNL     1       3.598   2.261  -0.847  0.00  0.00    +0.033 C 
ATOM     11  C   UNL     1       2.195   1.647  -1.124  0.00  0.00    +0.029 C 
ATOM     12  C   UNL     1       1.264   2.108   0.001  0.00  0.00    +0.105 C 
ATOM     13  N   UNL     1       0.041   1.300  -0.033  0.00  0.00    -0.336 N 
ATOM     14  H   UNL     1      -0.833   1.720  -0.018  0.00  0.00    +0.147 HD
ENDROOT
BRANCH  12  15
ATOM     15  C   UNL     1       1.951   1.929   1.331  0.00  0.00    -0.027 A 
ATOM     16  C   UNL     1       1.823   0.736   2.018  0.00  0.00    +0.009 A 
ATOM     17  C   UNL     1       2.456   0.567   3.234  0.00  0.00    +0.046 A 
ATOM     18  C   UNL     1       3.212   1.599   3.771  0.00  0.00    +0.121 A 
ATOM     19  C   UNL     1       3.335   2.796   3.082  0.00  0.00    +0.046 A 
ATOM     20  C   UNL     1       2.704   2.959   1.863  0.00  0.00    +0.009 A 
BRANCH  18  21
ATOM     21  O   UNL     1       3.832   1.436   4.969  0.00  0.00    -0.487 OA
BRANCH  21  22
ATOM     22  C   UNL     1       3.661   0.177   5.622  0.00  0.00    +0.264 C 
BRANCH  22  23
ATOM     23  C   UNL     1       4.415   0.182   6.928  0.00  0.00    -0.010 A 
ATOM     24  C   UNL     1       5.730  -0.243   6.968  0.00  0.00    +0.007 A 
ATOM     25  C   UNL     1       6.422  -0.234   8.164  0.00  0.00    +0.000 A 
ATOM     26  C   UNL     1       5.797   0.190   9.322  0.00  0.00    +0.000 A 
ATOM     27  C   UNL     1       4.480   0.610   9.282  0.00  0.00    +0.000 A 
ATOM     28  C   UNL     1       3.789   0.605   8.085  0.00  0.00    +0.007 A 
ENDBRANCH  22  23
ENDBRANCH  21  22
ENDBRANCH  18  21
ENDBRANCH  12  15
BRANCH   1  29
ATOM     29  S   UNL     1       0.532  -4.597  -0.268  0.00  0.00    +0.059 S 
ATOM     30  O   UNL     1      -0.788  -5.110  -0.384  0.00  0.00    -0.153 OA
ATOM     31  O   UNL     1       1.547  -4.884  -1.219  0.00  0.00    -0.153 OA
BRANCH  29  32
ATOM     32  N   UNL     1       1.106  -5.097   1.203  0.00  0.00    -0.187 NA
ATOM     33  H   UNL     1       1.981  -5.511   1.267  0.00  0.00    +0.148 HD
BRANCH  32  34
ATOM     34  C   UNL     1       0.293  -4.913   2.408  0.00  0.00    +0.073 C 
ATOM     35  C   UNL     1       0.697  -3.611   3.103  0.00  0.00    +0.025 C 
BRANCH  34  37
ATOM     36  C   UNL     1      -0.001  -7.376   2.712  0.00  0.00    +0.005 C 
ATOM     37  C   UNL     1       0.518  -6.090   3.359  0.00  0.00    +0.017 C 
ENDBRANCH  34  37
ENDBRANCH  32  34
ENDBRANCH  29  32
ENDBRANCH   1  29
TORSDOF 8
