REMARK  Name = ZINC36584231
REMARK  18 active torsions:
REMARK  status: ('A' for Active; 'I' for Inactive)
REMARK    1  A    between atoms: C_1  and  C_2
REMARK    2  A    between atoms: C_2  and  C_3
REMARK    3  A    between atoms: C_2  and  C_4
REMARK    4  A    between atoms: C_2  and  C_5
REMARK    5  A    between atoms: C_5  and  C_6
REMARK    6  A    between atoms: C_6  and  C_7
REMARK    7  A    between atoms: C_6  and  C_8
REMARK    8  A    between atoms: C_6  and  N_9
REMARK    9  A    between atoms: C_10  and  C_12
REMARK   10  A    between atoms: C_12  and  C_14
REMARK   11  A    between atoms: C_12  and  N_23
REMARK   12  A    between atoms: C_17  and  N_20
REMARK   13  A    between atoms: N_23  and  C_33
REMARK   14  A    between atoms: C_24  and  C_26
REMARK   15  A    between atoms: C_31  and  O_32
REMARK   16  A    between atoms: C_33  and  C_34
REMARK   17  A    between atoms: C_33  and  C_35
REMARK   18  A    between atoms: C_33  and  C_36
REMARK                            x       y       z     vdW  Elec       q    Type
REMARK                         _______ _______ _______ _____ _____    ______ ____
ROOT
ATOM      1  C   UNL     1       5.442  -1.399  -1.972  0.00  0.00    +0.193 C 
ENDROOT
BRANCH   1   2
ATOM      2  C   UNL     1       6.234  -2.681  -1.971  0.00  0.00    -0.018 A 
ATOM      3  C   UNL     1       7.124  -2.943  -0.946  0.00  0.00    +0.008 A 
ATOM      4  C   UNL     1       7.851  -4.119  -0.946  0.00  0.00    +0.033 A 
ATOM      5  C   UNL     1       7.686  -5.034  -1.969  0.00  0.00    +0.126 A 
ATOM      6  C   UNL     1       6.795  -4.772  -2.993  0.00  0.00    +0.033 A 
ATOM      7  C   UNL     1       6.066  -3.598  -2.991  0.00  0.00    +0.008 A 
BRANCH   5   8
ATOM      8  N   UNL     1       8.464  -6.293  -1.969  0.00  0.00    +0.056 N 
ATOM      9  O   UNL     1       9.244  -6.522  -1.073  0.00  0.00    -0.126 OA
ATOM     10  O   UNL     1       8.320  -7.093  -2.864  0.00  0.00    -0.126 OA
ENDBRANCH   5   8
ENDBRANCH   1   2
BRANCH   1  12
ATOM     11  N   UNL     1       3.320  -2.594  -1.539  0.00  0.00    -0.308 N 
ATOM     12  C   UNL     1       4.163  -1.598  -1.201  0.00  0.00    +0.239 C 
ATOM     13  O   UNL     1       3.892  -0.862  -0.276  0.00  0.00    -0.273 OA
ATOM     14  H   UNL     1       3.537  -3.182  -2.279  0.00  0.00    +0.149 HD
BRANCH  11  15
ATOM     15  C   UNL     1       2.076  -2.787  -0.790  0.00  0.00    +0.030 C 
ATOM     16  C   UNL     1       1.223  -1.520  -0.882  0.00  0.00    +0.031 C 
ATOM     17  C   UNL     1       2.404  -3.076   0.676  0.00  0.00    +0.031 C 
BRANCH  15  18
ATOM     18  C   UNL     1       1.302  -3.967  -1.382  0.00  0.00    +0.031 C 
BRANCH  18  20
ATOM     19  C   UNL     1       2.455  -3.966  -3.598  0.00  0.00    +0.010 C 
ATOM     20  C   UNL     1       1.118  -3.753  -2.885  0.00  0.00    -0.036 C 
ATOM     21  C   UNL     1       0.625  -2.328  -3.141  0.00  0.00    +0.010 C 
ATOM     22  C   UNL     1       0.090  -4.752  -3.420  0.00  0.00    +0.010 C 
ENDBRANCH  18  20
ENDBRANCH  15  18
ENDBRANCH  11  15
ENDBRANCH   1  12
BRANCH   1  23
ATOM     23  N   UNL     1       6.232  -0.337  -1.342  0.00  0.00    -0.277 N 
ATOM     24  C   UNL     1       6.602  -0.449  -0.051  0.00  0.00    +0.251 C 
ATOM     25  O   UNL     1       6.278  -1.428   0.592  0.00  0.00    -0.270 OA
BRANCH  24  26
ATOM     26  C   UNL     1       7.401   0.618   0.581  0.00  0.00    +0.078 A 
ATOM     27  C   UNL     1       7.904   1.670  -0.189  0.00  0.00    +0.017 A 
ATOM     28  C   UNL     1       8.649   2.664   0.408  0.00  0.00    +0.001 A 
ATOM     29  C   UNL     1       8.903   2.625   1.770  0.00  0.00    +0.004 A 
ATOM     30  C   UNL     1       8.413   1.591   2.542  0.00  0.00    +0.046 A 
ATOM     31  C   UNL     1       7.657   0.585   1.959  0.00  0.00    +0.129 A 
BRANCH  31  32
ATOM     32  O   UNL     1       7.170  -0.429   2.718  0.00  0.00    -0.506 OA
ATOM     33  H   UNL     1       7.766  -1.187   2.790  0.00  0.00    +0.292 HD
ENDBRANCH  31  32
ENDBRANCH  24  26
BRANCH  23  34
ATOM     34  C   UNL     1       6.618   0.845  -2.116  0.00  0.00    +0.030 C 
ATOM     35  C   UNL     1       5.973   0.781  -3.502  0.00  0.00    +0.031 C 
ATOM     36  C   UNL     1       6.144   2.106  -1.391  0.00  0.00    +0.031 C 
ATOM     37  C   UNL     1       8.141   0.883  -2.263  0.00  0.00    +0.031 C 
ENDBRANCH  23  34
ENDBRANCH   1  23
TORSDOF 10
