REMARK  Name = ZINC67145609
REMARK  5 active torsions:
REMARK  status: ('A' for Active; 'I' for Inactive)
REMARK    1  A    between atoms: C_4  and  N_7
REMARK    2  A    between atoms: C_8  and  C_24
REMARK    3  A    between atoms: C_11  and  C_13
REMARK    4  A    between atoms: N_15  and  C_16
REMARK    5  A    between atoms: C_21  and  O_22
REMARK                            x       y       z     vdW  Elec       q    Type
REMARK                         _______ _______ _______ _____ _____    ______ ____
ROOT
ATOM      1  N   UNL     1       3.620  -0.650  -0.072  0.00  0.00    -0.212 N 
ATOM      2  C   UNL     1       3.784  -2.112  -0.091  0.00  0.00    +0.189 C 
ATOM      3  C   UNL     1       5.313  -2.306  -0.094  0.00  0.00    +0.096 C 
ATOM      4  C   UNL     1       5.861  -0.897  -0.077  0.00  0.00    +0.123 C 
ATOM      5  N   UNL     1       4.879  -0.053  -0.071  0.00  0.00    -0.178 NA
ENDROOT
BRANCH   1   9
ATOM      6  C   UNL     1      -0.017   1.376  -0.046  0.00  0.00    +0.000 A 
ATOM      7  C   UNL     1       1.169   2.088  -0.042  0.00  0.00    +0.002 A 
ATOM      8  C   UNL     1       2.377   1.419  -0.051  0.00  0.00    +0.025 A 
ATOM      9  C   UNL     1       2.400   0.030  -0.063  0.00  0.00    +0.052 A 
ATOM     10  C   UNL     1       1.206  -0.682  -0.066  0.00  0.00    +0.025 A 
ATOM     11  C   UNL     1       0.002  -0.007  -0.058  0.00  0.00    +0.002 A 
ENDBRANCH   1   9
BRANCH   2  12
ATOM     12  C   UNL     1       3.171  -2.730   1.139  0.00  0.00    +0.233 C 
ATOM     13  O   UNL     1       2.945  -2.044   2.114  0.00  0.00    -0.274 OA
ATOM     14  N   UNL     1       2.874  -4.044   1.157  0.00  0.00    -0.328 N 
ATOM     15  H   UNL     1       3.056  -4.593   0.378  0.00  0.00    +0.145 HD
ATOM     16  H   UNL     1       2.480  -4.442   1.949  0.00  0.00    +0.145 HD
ENDBRANCH   2  12
BRANCH   4  17
ATOM     17  C   UNL     1       7.280  -0.542  -0.074  0.00  0.00    +0.264 C 
ATOM     18  O   UNL     1       8.126  -1.417  -0.085  0.00  0.00    -0.268 OA
ATOM     19  N   UNL     1       7.650   0.754  -0.057  0.00  0.00    -0.277 N 
ATOM     20  H   UNL     1       6.978   1.451  -0.113  0.00  0.00    +0.155 HD
BRANCH  19  21
ATOM     21  C   UNL     1       9.005   1.093   0.040  0.00  0.00    +0.077 A 
ATOM     22  C   UNL     1       9.967   0.298  -0.566  0.00  0.00    +0.047 A 
ATOM     23  C   UNL     1      11.304   0.636  -0.468  0.00  0.00    +0.043 A 
ATOM     24  C   UNL     1      11.686   1.766   0.234  0.00  0.00    +0.023 A 
ATOM     25  C   UNL     1      10.732   2.562   0.841  0.00  0.00    +0.049 A 
ATOM     26  C   UNL     1       9.390   2.234   0.742  0.00  0.00    +0.138 A 
ATOM     27 CL   UNL     1      12.507  -0.360  -1.227  0.00  0.00    -0.083 Cl
BRANCH  26  28
ATOM     28  O   UNL     1       8.451   3.020   1.333  0.00  0.00    -0.505 OA
ATOM     29  H   UNL     1       8.246   2.769   2.244  0.00  0.00    +0.292 HD
ENDBRANCH  26  28
ENDBRANCH  19  21
ENDBRANCH   4  17
TORSDOF 5
