REMARK  Name = ZINC43374803
REMARK  9 active torsions:
REMARK  status: ('A' for Active; 'I' for Inactive)
REMARK    1  A    between atoms: C_1  and  C_2
REMARK    2  A    between atoms: C_2  and  C_4
REMARK    3  A    between atoms: C_2  and  N_14
REMARK    4  A    between atoms: C_7  and  S_10
REMARK    5  A    between atoms: S_10  and  N_13
REMARK    6  A    between atoms: C_21  and  C_23
REMARK    7  A    between atoms: C_23  and  C_24
REMARK    8  A    between atoms: C_24  and  C_25
REMARK    9  A    between atoms: C_24  and  C_26
REMARK                            x       y       z     vdW  Elec       q    Type
REMARK                         _______ _______ _______ _____ _____    ______ ____
ROOT
ATOM      1  N   UNL     1       0.711  -0.489   1.189  0.00  0.00    -0.293 N 
ATOM      2  C   UNL     1       2.054  -0.600   1.174  0.00  0.00    +0.306 C 
ATOM      3  O   UNL     1       2.677  -0.297   0.175  0.00  0.00    -0.252 OA
ATOM      4  N   UNL     1       2.706  -1.046   2.266  0.00  0.00    -0.247 N 
ATOM      5  C   UNL     1       4.092  -1.160   2.250  0.00  0.00    +0.189 A 
ATOM      6  N   UNL     1       4.938  -0.880   1.279  0.00  0.00    -0.126 NA
ATOM      7  N   UNL     1       6.185  -1.036   1.414  0.00  0.00    -0.145 NA
ATOM      8  C   UNL     1       6.654  -1.492   2.558  0.00  0.00    +0.104 A 
ATOM      9  S   UNL     1       5.129  -1.686   3.470  0.00  0.00    -0.035 S 
ATOM     10  H   UNL     1       0.213  -0.731   1.986  0.00  0.00    +0.151 HD
ATOM     11  H   UNL     1       2.208  -1.288   3.062  0.00  0.00    +0.158 HD
ENDROOT
BRANCH   1  13
ATOM     12  C   UNL     1      -0.019   1.526   0.010  0.00  0.00    +0.033 C 
ATOM     13  C   UNL     1       0.002  -0.004   0.002  0.00  0.00    +0.102 C 
BRANCH  13  14
ATOM     14  C   UNL     1      -1.412  -0.526   0.013  0.00  0.00    -0.027 A 
ATOM     15  C   UNL     1      -2.123  -0.571   1.197  0.00  0.00    +0.007 A 
ATOM     16  C   UNL     1      -3.420  -1.049   1.207  0.00  0.00    +0.029 A 
ATOM     17  C   UNL     1      -4.006  -1.482   0.032  0.00  0.00    +0.105 A 
ATOM     18  C   UNL     1      -3.295  -1.436  -1.153  0.00  0.00    +0.029 A 
ATOM     19  C   UNL     1      -2.000  -0.954  -1.163  0.00  0.00    +0.007 A 
BRANCH  17  20
ATOM     20  S   UNL     1      -5.658  -2.093   0.045  0.00  0.00    +0.056 S 
ATOM     21  O   UNL     1      -5.785  -2.944  -1.086  0.00  0.00    -0.153 OA
ATOM     22  O   UNL     1      -5.915  -2.542   1.369  0.00  0.00    -0.153 OA
BRANCH  20  23
ATOM     23  N   UNL     1      -6.660  -0.801  -0.219  0.00  0.00    -0.204 NA
ATOM     24  H   UNL     1      -7.510  -0.930  -0.669  0.00  0.00    +0.144 HD
ATOM     25  H   UNL     1      -6.397   0.085   0.076  0.00  0.00    +0.144 HD
ENDBRANCH  20  23
ENDBRANCH  17  20
ENDBRANCH  13  14
ENDBRANCH   1  13
BRANCH   8  26
ATOM     26  C   UNL     1       8.074  -1.768   2.979  0.00  0.00    +0.068 C 
BRANCH  26  27
ATOM     27  C   UNL     1       8.671  -0.510   3.613  0.00  0.00    -0.011 C 
ATOM     28  C   UNL     1       7.921  -0.185   4.906  0.00  0.00    +0.007 C 
ATOM     29  C   UNL     1      10.150  -0.750   3.927  0.00  0.00    +0.007 C 
ENDBRANCH  26  27
ENDBRANCH   8  26
TORSDOF 6
