REMARK  Name = ZINC51002976
REMARK  3 active torsions:
REMARK  status: ('A' for Active; 'I' for Inactive)
REMARK    1  A    between atoms: C_1  and  N_2
REMARK    2  A    between atoms: C_4  and  C_13
REMARK    3  A    between atoms: C_6  and  C_7
REMARK                            x       y       z     vdW  Elec       q    Type
REMARK                         _______ _______ _______ _____ _____    ______ ____
ROOT
ATOM      1  C   UNL     1      -0.013   1.086   0.008  0.00  0.00    +0.138 C 
ATOM      2  N   UNL     1      -0.721   1.571  -1.179  0.00  0.00    -0.278 N 
ATOM      3  C   UNL     1      -0.132   1.843  -2.393  0.00  0.00    +0.101 C 
ATOM      4  C   UNL     1      -1.271   2.309  -3.280  0.00  0.00    +0.175 C 
ATOM      5  N   UNL     1      -2.453   2.243  -2.407  0.00  0.00    -0.359 N 
ATOM      6  C   UNL     1      -2.072   1.816  -1.244  0.00  0.00    +0.108 C 
ATOM      7  N   UNL     1       1.116   1.727  -2.708  0.00  0.00    -0.388 N 
ATOM      8  H   UNL     1       1.756   1.415  -2.049  0.00  0.00    +0.157 HD
ATOM      9  H   UNL     1       1.413   1.952  -3.604  0.00  0.00    +0.157 HD
ATOM     10  H   UNL     1      -3.360   2.475  -2.659  0.00  0.00    +0.162 HD
ENDROOT
BRANCH   4  11
ATOM     11  C   UNL     1      -1.035   3.724  -3.743  0.00  0.00    +0.017 A 
ATOM     12  C   UNL     1      -1.590   4.781  -3.046  0.00  0.00    +0.010 A 
ATOM     13  C   UNL     1      -1.373   6.078  -3.470  0.00  0.00    +0.016 A 
ATOM     14  C   UNL     1      -0.601   6.321  -4.592  0.00  0.00    +0.021 A 
ATOM     15  C   UNL     1      -0.045   5.265  -5.290  0.00  0.00    +0.054 A 
ATOM     16  C   UNL     1      -0.257   3.965  -4.862  0.00  0.00    +0.130 A 
ATOM     17  F   UNL     1       0.290   2.933  -5.541  0.00  0.00    -0.205 F 
ATOM     18 BR   UNL     1      -0.306   8.097  -5.171  0.00  0.00    -0.050 Br
ENDBRANCH   4  11
BRANCH   6  19
ATOM     19  C   UNL     1      -2.995   1.616  -0.104  0.00  0.00    +0.013 A 
ATOM     20  C   UNL     1      -2.723   0.640   0.855  0.00  0.00    +0.011 A 
ATOM     21  C   UNL     1      -3.587   0.460   1.915  0.00  0.00    +0.001 A 
ATOM     22  C   UNL     1      -4.721   1.244   2.029  0.00  0.00    +0.000 A 
ATOM     23  C   UNL     1      -4.996   2.213   1.081  0.00  0.00    +0.001 A 
ATOM     24  C   UNL     1      -4.137   2.407   0.018  0.00  0.00    +0.011 A 
ENDBRANCH   6  19
TORSDOF 2
