REMARK  Name = ZINC39674956
REMARK  8 active torsions:
REMARK  status: ('A' for Active; 'I' for Inactive)
REMARK    1  A    between atoms: C_1  and  C_2
REMARK    2  A    between atoms: C_4  and  C_36
REMARK    3  A    between atoms: N_5  and  C_7
REMARK    4  A    between atoms: C_7  and  C_8
REMARK    5  A    between atoms: C_8  and  N_9
REMARK    6  A    between atoms: C_10  and  C_12
REMARK    7  A    between atoms: C_23  and  C_25
REMARK    8  A    between atoms: C_29  and  C_31
REMARK                            x       y       z     vdW  Elec       q    Type
REMARK                         _______ _______ _______ _____ _____    ______ ____
ROOT
ATOM      1  C   UNL     1       2.853  -5.993   4.186  0.00  0.00    +0.100 C 
ATOM      2  C   UNL     1       2.163  -5.979   5.569  0.00  0.00    +0.121 C 
ATOM      3  N   UNL     1       3.021  -6.832   6.424  0.00  0.00    -0.296 N 
ATOM      4  C   UNL     1       4.404  -6.493   6.013  0.00  0.00    +0.115 C 
ATOM      5  C   UNL     1       4.324  -6.330   4.483  0.00  0.00    -0.004 C 
ATOM      6  C   UNL     1       5.230  -5.190   4.026  0.00  0.00    -0.010 C 
ATOM      7  C   UNL     1       6.691  -5.573   4.277  0.00  0.00    -0.082 C 
ATOM      8  N   UNL     1       7.010  -6.803   3.542  0.00  0.00    +0.379 N 
ATOM      9  C   UNL     1       6.199  -7.915   4.052  0.00  0.00    -0.082 C 
ATOM     10  C   UNL     1       4.718  -7.632   3.791  0.00  0.00    -0.010 C 
ATOM     11  C   UNL     1       2.631  -7.717   7.363  0.00  0.00    +0.247 C 
ATOM     12  O   UNL     1       1.452  -7.981   7.498  0.00  0.00    -0.270 OA
ATOM     13  H   UNL     1       6.814  -6.668   2.562  0.00  0.00    -0.086 HD
ATOM     14  H   UNL     1       7.988  -7.019   3.660  0.00  0.00    -0.086 HD
ENDROOT
BRANCH  11  15
ATOM     15  C   UNL     1       3.637  -8.367   8.228  0.00  0.00    +0.038 A 
ATOM     16  C   UNL     1       4.897  -7.787   8.396  0.00  0.00    +0.016 A 
ATOM     17  C   UNL     1       5.831  -8.397   9.204  0.00  0.00    +0.039 A 
ATOM     18  C   UNL     1       5.523  -9.585   9.851  0.00  0.00    +0.135 A 
ATOM     19  C   UNL     1       4.274 -10.164   9.688  0.00  0.00    +0.091 A 
ATOM     20  C   UNL     1       3.330  -9.559   8.886  0.00  0.00    +0.028 A 
ATOM     21  F   UNL     1       6.443 -10.179  10.642  0.00  0.00    -0.205 F 
BRANCH  19  22
ATOM     22  C   UNL     1       3.946 -11.455  10.393  0.00  0.00    +0.420 C 
ATOM     23  F   UNL     1       2.639 -11.840  10.077  0.00  0.00    -0.166 F 
ATOM     24  F   UNL     1       4.838 -12.451   9.982  0.00  0.00    -0.166 F 
ATOM     25  F   UNL     1       4.057 -11.272  11.776  0.00  0.00    -0.166 F 
ENDBRANCH  19  22
ENDBRANCH  11  15
BRANCH   1  27
ATOM     26  N   UNL     1       2.704  -4.541   2.189  0.00  0.00    -0.313 N 
ATOM     27  C   UNL     1       2.746  -4.639   3.533  0.00  0.00    +0.218 C 
ATOM     28  O   UNL     1       2.699  -3.638   4.216  0.00  0.00    -0.275 OA
ATOM     29  H   UNL     1       2.742  -5.342   1.643  0.00  0.00    +0.149 HD
BRANCH  26  30
ATOM     30  C   UNL     1       2.600  -3.225   1.554  0.00  0.00    +0.127 C 
BRANCH  30  31
ATOM     31  C   UNL     1       2.571  -3.394   0.034  0.00  0.00    +0.162 C 
BRANCH  31  36
ATOM     32  C   UNL     1       0.614   0.766  -1.983  0.00  0.00    +0.067 C 
ATOM     33  C   UNL     1       1.590  -0.267  -1.480  0.00  0.00    +0.060 A 
ATOM     34  C   UNL     1       2.984  -0.167  -1.521  0.00  0.00    +0.047 A 
ATOM     35  C   UNL     1       3.499  -1.293  -0.975  0.00  0.00    +0.036 A 
ATOM     36  N   UNL     1       2.467  -2.078  -0.602  0.00  0.00    -0.267 N 
ATOM     37  N   UNL     1       1.278  -1.410  -0.924  0.00  0.00    -0.176 NA
ATOM     38  C   UNL     1       4.963  -1.613  -0.814  0.00  0.00    +0.065 C 
ENDBRANCH  31  36
ENDBRANCH  30  31
ENDBRANCH  26  30
ENDBRANCH   1  27
TORSDOF 6
