REMARK  Name = ZINC14508851
REMARK  11 active torsions:
REMARK  status: ('A' for Active; 'I' for Inactive)
REMARK    1  A    between atoms: C_1  and  C_2
REMARK    2  A    between atoms: C_5  and  C_7
REMARK    3  A    between atoms: N_9  and  C_10
REMARK    4  A    between atoms: N_9  and  C_15
REMARK    5  A    between atoms: C_10  and  C_11
REMARK    6  A    between atoms: C_11  and  C_12
REMARK    7  A    between atoms: C_12  and  O_13
REMARK    8  A    between atoms: O_13  and  C_14
REMARK    9  A    between atoms: C_16  and  N_31
REMARK   10  A    between atoms: N_17  and  C_24
REMARK   11  A    between atoms: C_24  and  C_25
REMARK                            x       y       z     vdW  Elec       q    Type
REMARK                         _______ _______ _______ _____ _____    ______ ____
ROOT
ATOM      1  C   UNL     1       1.217   2.201  -0.172  0.00  0.00    +0.140 A 
ATOM      2  C   UNL     1       0.705   1.679  -1.342  0.00  0.00    +0.128 A 
ATOM      3  N   UNL     1       0.649   0.314  -1.501  0.00  0.00    -0.276 N 
ATOM      4  C   UNL     1       1.090  -0.503  -0.528  0.00  0.00    +0.331 A 
ATOM      5  O   UNL     1       1.033  -1.707  -0.688  0.00  0.00    -0.246 OA
ATOM      6  N   UNL     1       1.593  -0.013   0.619  0.00  0.00    -0.273 N 
ATOM      7  H   UNL     1       1.914  -0.642   1.327  0.00  0.00    +0.173 HD
ATOM      8  C   UNL     1       1.669   1.316   0.825  0.00  0.00    +0.277 A 
ATOM      9  O   UNL     1       2.122   1.750   1.871  0.00  0.00    -0.266 OA
ENDROOT
BRANCH   1  12
ATOM     10  C   UNL     1       2.486   4.206   0.108  0.00  0.00    +0.286 C 
ATOM     11  O   UNL     1       3.507   3.569  -0.077  0.00  0.00    -0.266 OA
ATOM     12  N   UNL     1       1.287   3.596   0.021  0.00  0.00    -0.258 N 
BRANCH  10  17
ATOM     13  C   UNL     1       1.112   8.853   1.369  0.00  0.00    +0.086 C 
ATOM     14  C   UNL     1       1.964   7.675   0.975  0.00  0.00    +0.103 A 
ATOM     15  C   UNL     1       3.302   7.699   0.787  0.00  0.00    +0.045 A 
ATOM     16  C   UNL     1       3.693   6.398   0.433  0.00  0.00    +0.055 A 
ATOM     17  C   UNL     1       2.560   5.636   0.423  0.00  0.00    +0.190 A 
ATOM     18  O   UNL     1       1.520   6.431   0.750  0.00  0.00    -0.455 OA
ENDBRANCH  10  17
BRANCH  12  19
ATOM     19  C   UNL     1       0.055   4.383   0.129  0.00  0.00    +0.116 C 
BRANCH  19  20
ATOM     20  C   UNL     1      -0.331   4.526   1.602  0.00  0.00    +0.047 C 
BRANCH  20  21
ATOM     21  C   UNL     1      -1.617   5.348   1.714  0.00  0.00    +0.161 C 
BRANCH  21  22
ATOM     22  O   UNL     1      -1.978   5.482   3.090  0.00  0.00    -0.383 OA
ATOM     23  C   UNL     1      -3.172   6.237   3.307  0.00  0.00    +0.193 C 
ENDBRANCH  21  22
ENDBRANCH  20  21
ENDBRANCH  19  20
ENDBRANCH  12  19
ENDBRANCH   1  12
BRANCH   2  24
ATOM     24  N   UNL     1       0.254   2.514  -2.337  0.00  0.00    -0.343 N 
ATOM     25  H   UNL     1      -0.039   2.144  -3.185  0.00  0.00    +0.144 HD
ATOM     26  H   UNL     1       0.230   3.473  -2.192  0.00  0.00    +0.144 HD
ENDBRANCH   2  24
BRANCH   3  27
ATOM     27  C   UNL     1       0.106  -0.254  -2.738  0.00  0.00    +0.163 C 
BRANCH  27  28
ATOM     28  C   UNL     1      -1.378  -0.462  -2.586  0.00  0.00    -0.028 A 
ATOM     29  C   UNL     1      -1.861  -1.664  -2.102  0.00  0.00    +0.005 A 
ATOM     30  C   UNL     1      -3.223  -1.853  -1.957  0.00  0.00    +0.000 A 
ATOM     31  C   UNL     1      -4.102  -0.845  -2.307  0.00  0.00    +0.000 A 
ATOM     32  C   UNL     1      -3.619   0.354  -2.796  0.00  0.00    +0.000 A 
ATOM     33  C   UNL     1      -2.257   0.546  -2.935  0.00  0.00    +0.005 A 
ENDBRANCH  27  28
ENDBRANCH   3  27
TORSDOF 9
