REMARK  Name = ZINC66704081
REMARK  10 active torsions:
REMARK  status: ('A' for Active; 'I' for Inactive)
REMARK    1  A    between atoms: C_1  and  C_2
REMARK    2  A    between atoms: C_2  and  C_3
REMARK    3  A    between atoms: C_3  and  N_4
REMARK    4  A    between atoms: N_4  and  C_5
REMARK    5  A    between atoms: C_5  and  C_6
REMARK    6  A    between atoms: C_11  and  O_12
REMARK    7  A    between atoms: N_15  and  C_16
REMARK    8  A    between atoms: N_19  and  C_22
REMARK    9  A    between atoms: C_22  and  C_23
REMARK   10  A    between atoms: C_23  and  C_25
REMARK                            x       y       z     vdW  Elec       q    Type
REMARK                         _______ _______ _______ _____ _____    ______ ____
ROOT
ATOM      1  N   UNL     1       0.738  -1.962  -1.265  0.00  0.00    -0.281 N 
ATOM      2  C   UNL     1       1.764  -2.626  -0.695  0.00  0.00    +0.303 C 
ATOM      3  O   UNL     1       1.780  -3.841  -0.701  0.00  0.00    -0.253 OA
ATOM      4  N   UNL     1       2.771  -1.941  -0.117  0.00  0.00    -0.297 N 
ATOM      5  H   UNL     1       2.757  -0.971  -0.112  0.00  0.00    +0.151 HD
ENDROOT
BRANCH   4   6
ATOM      6  C   UNL     1       3.885  -2.662   0.503  0.00  0.00    +0.071 C 
ATOM      7  C   UNL     1       3.518  -3.031   1.943  0.00  0.00    +0.004 C 
ATOM      8  C   UNL     1       4.715  -3.713   2.610  0.00  0.00    -0.077 C 
ATOM      9  N   UNL     1       5.864  -2.799   2.615  0.00  0.00    +0.382 N 
ATOM     10  C   UNL     1       6.266  -2.497   1.236  0.00  0.00    -0.077 C 
ATOM     11  C   UNL     1       5.129  -1.768   0.516  0.00  0.00    +0.004 C 
ATOM     12  H   UNL     1       5.609  -1.943   3.085  0.00  0.00    -0.081 HD
BRANCH   9  13
ATOM     13  C   UNL     1       6.986  -3.428   3.324  0.00  0.00    -0.048 C 
BRANCH  13  14
ATOM     14  C   UNL     1       8.123  -2.445   3.438  0.00  0.00    -0.096 C 
ATOM     15  C   UNL     1       8.254  -1.718   4.519  0.00  0.00    +0.005 C 
ATOM     16  C   UNL     1       9.108  -2.299   2.307  0.00  0.00    +0.036 C 
ENDBRANCH  13  14
ENDBRANCH   9  13
ENDBRANCH   4   6
BRANCH   1  17
ATOM     17  C   UNL     1       0.718  -0.497  -1.257  0.00  0.00    +0.109 C 
BRANCH  17  19
ATOM     18  C   UNL     1      -0.019   1.526   0.010  0.00  0.00    +0.005 C 
ATOM     19  C   UNL     1       0.002  -0.004   0.002  0.00  0.00    +0.016 C 
ENDBRANCH  17  19
ENDBRANCH   1  17
BRANCH   1  20
ATOM     20  C   UNL     1      -0.357  -2.706  -1.893  0.00  0.00    +0.148 C 
BRANCH  20  21
ATOM     21  C   UNL     1      -0.033  -2.945  -3.345  0.00  0.00    +0.011 A 
ATOM     22  C   UNL     1      -0.588  -2.137  -4.319  0.00  0.00    +0.009 A 
ATOM     23  C   UNL     1      -0.292  -2.356  -5.652  0.00  0.00    +0.001 A 
ATOM     24  C   UNL     1       0.559  -3.383  -6.013  0.00  0.00    +0.004 A 
ATOM     25  C   UNL     1       1.116  -4.194  -5.044  0.00  0.00    +0.046 A 
ATOM     26  C   UNL     1       0.825  -3.973  -3.705  0.00  0.00    +0.122 A 
BRANCH  26  27
ATOM     27  O   UNL     1       1.377  -4.766  -2.749  0.00  0.00    -0.506 OA
ATOM     28  H   UNL     1       0.849  -5.548  -2.534  0.00  0.00    +0.292 HD
ENDBRANCH  26  27
ENDBRANCH  20  21
ENDBRANCH   1  20
TORSDOF 8
