REMARK  Name = ZINC00848593
REMARK  7 active torsions:
REMARK  status: ('A' for Active; 'I' for Inactive)
REMARK    1  A    between atoms: C_1  and  C_2
REMARK    2  A    between atoms: C_2  and  C_3
REMARK    3  A    between atoms: C_3  and  C_5
REMARK    4  A    between atoms: C_3  and  N_6
REMARK    5  A    between atoms: C_7  and  C_9
REMARK    6  A    between atoms: C_13  and  C_22
REMARK    7  A    between atoms: C_15  and  C_18
REMARK                            x       y       z     vdW  Elec       q    Type
REMARK                         _______ _______ _______ _____ _____    ______ ____
ROOT
ATOM      1  C   UNL     1       1.231   1.839   0.000  0.00  0.00    +0.168 A 
ATOM      2  C   UNL     1       2.096   0.739  -0.014  0.00  0.00    +0.117 A 
ATOM      3  C   UNL     1       1.315  -0.408  -0.013  0.00  0.00    +0.176 A 
ATOM      4  N   UNL     1       1.627  -1.710  -0.022  0.00  0.00    -0.226 NA
ATOM      5  C   UNL     1       0.682  -2.632  -0.018  0.00  0.00    +0.075 A 
ATOM      6  C   UNL     1      -0.679  -2.250  -0.003  0.00  0.00    +0.060 A 
ATOM      7  C   UNL     1      -1.000  -0.937   0.007  0.00  0.00    +0.149 A 
ATOM      8  N   UNL     1       0.002  -0.004   0.002  0.00  0.00    -0.208 N 
ATOM      9  N   UNL     1      -0.017   1.396   0.010  0.00  0.00    -0.158 NA
ATOM     10 CL   UNL     1       3.831   0.798  -0.030  0.00  0.00    -0.077 Cl
ENDROOT
BRANCH   5  11
ATOM     11  C   UNL     1       1.048  -4.067  -0.028  0.00  0.00    +0.001 A 
ATOM     12  C   UNL     1       0.052  -5.043  -0.018  0.00  0.00    +0.011 A 
ATOM     13  C   UNL     1       0.398  -6.378  -0.033  0.00  0.00    +0.020 A 
ATOM     14  C   UNL     1       1.732  -6.750  -0.047  0.00  0.00    +0.041 A 
ATOM     15  C   UNL     1       2.725  -5.785  -0.052  0.00  0.00    +0.020 A 
ATOM     16  C   UNL     1       2.390  -4.447  -0.043  0.00  0.00    +0.011 A 
ATOM     17 CL   UNL     1       2.161  -8.433  -0.059  0.00  0.00    -0.084 Cl
ENDBRANCH   5  11
BRANCH   1  19
ATOM     18  N   UNL     1       0.708   4.230   0.018  0.00  0.00    -0.307 N 
ATOM     19  C   UNL     1       1.642   3.259   0.003  0.00  0.00    +0.266 C 
ATOM     20  O   UNL     1       2.822   3.550  -0.007  0.00  0.00    -0.268 OA
ATOM     21  H   UNL     1      -0.234   3.998   0.026  0.00  0.00    +0.149 HD
BRANCH  18  22
ATOM     22  C   UNL     1       1.115   5.638   0.021  0.00  0.00    +0.070 C 
ATOM     23  C   UNL     1       1.392   6.085   1.458  0.00  0.00    +0.028 C 
BRANCH  22  25
ATOM     24  C   UNL     1      -0.197   6.131  -2.047  0.00  0.00    +0.005 C 
ATOM     25  C   UNL     1      -0.005   6.494  -0.573  0.00  0.00    +0.018 C 
ENDBRANCH  22  25
ENDBRANCH  18  22
ENDBRANCH   1  19
BRANCH   7  26
ATOM     26  C   UNL     1      -2.443  -0.505   0.023  0.00  0.00    +0.434 C 
ATOM     27  F   UNL     1      -2.902  -0.365  -1.292  0.00  0.00    -0.164 F 
ATOM     28  F   UNL     1      -3.211  -1.469   0.685  0.00  0.00    -0.164 F 
ATOM     29  F   UNL     1      -2.556   0.720   0.689  0.00  0.00    -0.164 F 
ENDBRANCH   7  26
TORSDOF 5
