REMARK  Name = ZINC44260115
REMARK  7 active torsions:
REMARK  status: ('A' for Active; 'I' for Inactive)
REMARK    1  A    between atoms: C_1  and  C_2
REMARK    2  A    between atoms: C_6  and  O_9
REMARK    3  A    between atoms: C_7  and  C_8
REMARK    4  A    between atoms: O_9  and  C_10
REMARK    5  A    between atoms: C_11  and  C_20
REMARK    6  A    between atoms: N_18  and  C_19
REMARK    7  A    between atoms: C_21  and  C_22
REMARK                            x       y       z     vdW  Elec       q    Type
REMARK                         _______ _______ _______ _____ _____    ______ ____
ROOT
ATOM      1  C   UNL     1       0.076  -4.274   2.427  0.00  0.00    +0.210 A 
ATOM      2  C   UNL     1      -1.079  -5.013   2.204  0.00  0.00    +0.044 A 
ATOM      3  C   UNL     1      -0.635  -6.384   1.884  0.00  0.00    +0.011 A 
ATOM      4  C   UNL     1      -1.305  -7.564   1.571  0.00  0.00    +0.011 A 
ATOM      5  C   UNL     1      -0.584  -8.711   1.316  0.00  0.00    +0.001 A 
ATOM      6  C   UNL     1       0.801  -8.692   1.371  0.00  0.00    +0.002 A 
ATOM      7  C   UNL     1       1.476  -7.530   1.680  0.00  0.00    +0.026 A 
ATOM      8  C   UNL     1       0.767  -6.363   1.940  0.00  0.00    +0.052 A 
ATOM      9  N   UNL     1       1.160  -5.076   2.264  0.00  0.00    -0.314 N 
ATOM     10  C   UNL     1       2.551  -4.641   2.414  0.00  0.00    +0.152 C 
ENDROOT
BRANCH   2  11
ATOM     11  C   UNL     1      -2.412  -4.546   2.271  0.00  0.00    +0.019 C 
ATOM     12  C   UNL     1      -3.280  -5.092   3.163  0.00  0.00    +0.068 C 
BRANCH  12  13
ATOM     13  C   UNL     1      -2.815  -6.010   4.128  0.00  0.00    +0.234 C 
ATOM     14  O   UNL     1      -1.621  -6.231   4.233  0.00  0.00    -0.271 OA
ATOM     15  N   UNL     1      -3.691  -6.644   4.932  0.00  0.00    -0.326 N 
ATOM     16  H   UNL     1      -4.641  -6.468   4.848  0.00  0.00    +0.145 HD
ATOM     17  H   UNL     1      -3.371  -7.275   5.595  0.00  0.00    +0.145 HD
ENDBRANCH  12  13
ENDBRANCH   2  11
BRANCH   1  18
ATOM     18  O   UNL     1       0.115  -2.962   2.750  0.00  0.00    -0.439 OA
BRANCH  18  24
ATOM     19  C   UNL     1       0.308   1.693   1.295  0.00  0.00    +0.044 C 
ATOM     20  C   UNL     1       0.264   0.218   0.989  0.00  0.00    -0.044 A 
ATOM     21  C   UNL     1       0.279  -0.216  -0.324  0.00  0.00    +0.004 A 
ATOM     22  C   UNL     1       0.238  -1.568  -0.609  0.00  0.00    +0.004 A 
ATOM     23  C   UNL     1       0.183  -2.490   0.419  0.00  0.00    +0.046 A 
ATOM     24  C   UNL     1       0.169  -2.057   1.737  0.00  0.00    +0.133 A 
ATOM     25  C   UNL     1       0.215  -0.699   2.020  0.00  0.00    -0.005 A 
ATOM     26  C   UNL     1       0.206  -0.226   3.451  0.00  0.00    +0.048 C 
ENDBRANCH  18  24
ENDBRANCH   1  18
TORSDOF 4
