REMARK  Name = ZINC58297543
REMARK  2 active torsions:
REMARK  status: ('A' for Active; 'I' for Inactive)
REMARK    1  A    between atoms: N_16  and  C_19
REMARK    2  A    between atoms: C_19  and  C_20
REMARK                            x       y       z     vdW  Elec       q    Type
REMARK                         _______ _______ _______ _____ _____    ______ ____
ROOT
ATOM      1  C   UNL     1       5.258   2.732  -0.044  0.00  0.00    +0.002 A 
ATOM      2  C   UNL     1       3.873   2.811  -0.033  0.00  0.00    +0.001 A 
ATOM      3  C   UNL     1       3.128   1.645  -0.032  0.00  0.00    +0.017 A 
ATOM      4  C   UNL     1       3.769   0.432  -0.042  0.00  0.00    +0.041 A 
ATOM      5  C   UNL     1       5.178   0.313  -0.054  0.00  0.00    +0.080 A 
ATOM      6  C   UNL     1       5.907   1.525  -0.055  0.00  0.00    +0.029 A 
ATOM      7  N   UNL     1       5.659  -0.949  -0.062  0.00  0.00    -0.225 NA
ATOM      8  C   UNL     1       4.875  -2.002  -0.060  0.00  0.00    +0.167 A 
ATOM      9  S   UNL     1       3.247  -1.266  -0.044  0.00  0.00    -0.052 S 
ATOM     10  N   UNL     1       5.223  -3.343  -0.068  0.00  0.00    -0.248 N 
ATOM     11  C   UNL     1       4.262  -4.288  -0.064  0.00  0.00    +0.308 C 
ATOM     12  O   UNL     1       3.094  -3.967   0.042  0.00  0.00    -0.252 OA
ATOM     13  N   UNL     1       4.595  -5.589  -0.176  0.00  0.00    -0.283 N 
ATOM     14  C   UNL     1       3.559  -6.627  -0.289  0.00  0.00    +0.124 C 
ATOM     15  C   UNL     1       3.884  -7.508  -1.500  0.00  0.00    +0.103 C 
ATOM     16  N   UNL     1       5.258  -8.013  -1.381  0.00  0.00    -0.297 NA
ATOM     17  C   UNL     1       6.233  -6.914  -1.403  0.00  0.00    +0.103 C 
ATOM     18  C   UNL     1       6.005  -6.008  -0.194  0.00  0.00    +0.124 C 
ATOM     19  H   UNL     1       6.157  -3.602  -0.077  0.00  0.00    +0.158 HD
ENDROOT
BRANCH  16  20
ATOM     20  C   UNL     1       5.550  -8.997  -2.431  0.00  0.00    +0.116 C 
BRANCH  20  21
ATOM     21  C   UNL     1       6.887  -9.680  -2.132  0.00  0.00    +0.132 C 
ATOM     22  C   UNL     1       7.261 -10.629  -3.292  0.00  0.00    +0.035 C 
ATOM     23  C   UNL     1       7.868 -11.845  -2.540  0.00  0.00    +0.031 C 
ATOM     24  C   UNL     1       7.004 -11.856  -1.254  0.00  0.00    +0.160 C 
ATOM     25  O   UNL     1       6.773 -10.470  -0.943  0.00  0.00    -0.375 OA
ENDBRANCH  20  21
ENDBRANCH  16  20
TORSDOF 2
