REMARK  Name = ZINC35591779
REMARK  16 active torsions:
REMARK  status: ('A' for Active; 'I' for Inactive)
REMARK    1  A    between atoms: C_1  and  C_2
REMARK    2  A    between atoms: C_6  and  C_8
REMARK    3  A    between atoms: C_8  and  O_9
REMARK    4  A    between atoms: O_9  and  C_10
REMARK    5  A    between atoms: C_10  and  C_34
REMARK    6  A    between atoms: C_16  and  O_19
REMARK    7  A    between atoms: O_19  and  C_20
REMARK    8  A    between atoms: C_20  and  C_21
REMARK    9  A    between atoms: C_24  and  C_27
REMARK   10  A    between atoms: C_30  and  C_32
REMARK   11  A    between atoms: C_30  and  C_33
REMARK   12  A    between atoms: N_36  and  C_37
REMARK   13  A    between atoms: C_37  and  C_38
REMARK   14  A    between atoms: C_38  and  N_39
REMARK   15  A    between atoms: N_39  and  C_40
REMARK   16  A    between atoms: N_39  and  C_41
REMARK                            x       y       z     vdW  Elec       q    Type
REMARK                         _______ _______ _______ _____ _____    ______ ____
ROOT
ATOM      1  C   UNL     1       1.629  -3.827   4.085  0.00  0.00    +0.150 C 
ATOM      2  C   UNL     1       3.082  -3.894   4.548  0.00  0.00    +0.079 C 
ATOM      3  C   UNL     1       3.205  -4.692   5.848  0.00  0.00    +0.156 C 
ATOM      4  C   UNL     1       2.245  -4.143   6.919  0.00  0.00    +0.179 C 
ATOM      5  C   UNL     1       0.836  -3.939   6.418  0.00  0.00    +0.153 C 
ATOM      6  C   UNL     1       0.811  -3.094   5.154  0.00  0.00    +0.079 C 
ATOM      7  O   UNL     1       2.881  -2.913   7.303  0.00  0.00    -0.341 OA
ATOM      8  C   UNL     1       4.287  -3.231   7.288  0.00  0.00    +0.165 C 
ATOM      9  O   UNL     1       4.506  -4.363   6.405  0.00  0.00    -0.343 OA
ATOM     10  C   UNL     1       4.749  -3.589   8.702  0.00  0.00    +0.074 C 
ATOM     11  C   UNL     1       5.082  -2.025   6.781  0.00  0.00    +0.074 C 
ENDROOT
BRANCH   1  12
ATOM     12  C   UNL     1       1.088  -5.222   3.901  0.00  0.00    +0.245 C 
ATOM     13  O   UNL     1       1.605  -6.154   4.479  0.00  0.00    -0.273 OA
ATOM     14  N   UNL     1       0.029  -5.433   3.095  0.00  0.00    -0.315 N 
ATOM     15  H   UNL     1      -0.428  -4.680   2.687  0.00  0.00    +0.149 HD
BRANCH  14  16
ATOM     16  C   UNL     1      -0.432  -6.799   2.833  0.00  0.00    +0.086 C 
BRANCH  16  17
ATOM     17  C   UNL     1      -1.639  -6.758   1.894  0.00  0.00    -0.061 C 
BRANCH  17  18
ATOM     18  N   UNL     1      -2.102  -8.128   1.632  0.00  0.00    +0.377 N 
ATOM     19  C   UNL     1      -3.331  -8.084   0.828  0.00  0.00    -0.097 C 
ATOM     20  C   UNL     1      -1.063  -8.863   0.898  0.00  0.00    -0.097 C 
ATOM     21  H   UNL     1      -2.288  -8.593   2.507  0.00  0.00    -0.083 HD
ENDBRANCH  17  18
ENDBRANCH  16  17
ENDBRANCH  14  16
ENDBRANCH   1  12
BRANCH   1  22
ATOM     22  O   UNL     1       1.551  -3.116   2.848  0.00  0.00    -0.359 OA
BRANCH  22  23
ATOM     23  C   UNL     1       2.128  -1.809   2.892  0.00  0.00    +0.196 C 
BRANCH  23  29
ATOM     24  C   UNL     1       4.232  -1.003  -1.576  0.00  0.00    +0.044 C 
ATOM     25  C   UNL     1       3.085  -0.805  -0.619  0.00  0.00    -0.050 A 
ATOM     26  C   UNL     1       1.987  -0.057  -1.001  0.00  0.00    +0.003 A 
ATOM     27  C   UNL     1       0.935   0.125  -0.123  0.00  0.00    +0.001 A 
ATOM     28  C   UNL     1       0.981  -0.442   1.137  0.00  0.00    +0.006 A 
ATOM     29  C   UNL     1       2.078  -1.191   1.519  0.00  0.00    -0.022 A 
ATOM     30  C   UNL     1       3.128  -1.376   0.639  0.00  0.00    +0.009 A 
ENDBRANCH  23  29
ENDBRANCH  22  23
ENDBRANCH   1  22
BRANCH   5  31
ATOM     31  O   UNL     1       0.074  -3.274   7.427  0.00  0.00    -0.369 OA
BRANCH  31  32
ATOM     32  C   UNL     1      -1.317  -3.601   7.414  0.00  0.00    +0.195 C 
BRANCH  32  33
ATOM     33  C   UNL     1      -2.021  -2.848   8.514  0.00  0.00    -0.022 A 
ATOM     34  C   UNL     1      -2.130  -3.411   9.773  0.00  0.00    +0.007 A 
ATOM     35  C   UNL     1      -2.773  -2.727  10.784  0.00  0.00    +0.019 A 
ATOM     36  C   UNL     1      -3.313  -1.464  10.535  0.00  0.00    +0.052 A 
ATOM     37  C   UNL     1      -3.198  -0.901   9.262  0.00  0.00    +0.019 A 
ATOM     38  C   UNL     1      -2.549  -1.594   8.261  0.00  0.00    +0.007 A 
BRANCH  36  39
ATOM     39  C   UNL     1      -3.981  -0.748  11.579  0.00  0.00    +0.099 C 
ATOM     40  N   UNL     1      -4.512  -0.180  12.408  0.00  0.00    -0.191 NA
ENDBRANCH  36  39
ENDBRANCH  32  33
ENDBRANCH  31  32
ENDBRANCH   5  31
TORSDOF 11
