REMARK  Name = ZINC01937542
REMARK  9 active torsions:
REMARK  status: ('A' for Active; 'I' for Inactive)
REMARK    1  A    between atoms: C_1  and  C_2
REMARK    2  A    between atoms: C_4  and  C_28
REMARK    3  A    between atoms: C_5  and  C_27
REMARK    4  A    between atoms: C_6  and  O_8
REMARK    5  A    between atoms: O_8  and  C_9
REMARK    6  A    between atoms: C_9  and  C_10
REMARK    7  A    between atoms: N_12  and  C_13
REMARK    8  A    between atoms: C_14  and  C_24
REMARK    9  A    between atoms: C_19  and  C_23
REMARK                            x       y       z     vdW  Elec       q    Type
REMARK                         _______ _______ _______ _____ _____    ______ ____
ROOT
ATOM      1  C   UNL     1       5.981  -0.737  -0.058  0.00  0.00    +0.255 C 
ATOM      2  O   UNL     1       5.839  -1.941  -0.063  0.00  0.00    -0.272 OA
ATOM      3  N   UNL     1       7.218  -0.204  -0.067  0.00  0.00    -0.277 N 
ATOM      4  H   UNL     1       7.332   0.760  -0.063  0.00  0.00    +0.155 HD
ENDROOT
BRANCH   3   5
ATOM      5  C   UNL     1       8.330  -1.032  -0.082  0.00  0.00    +0.084 A 
ATOM      6  C   UNL     1       9.671  -0.675  -0.093  0.00  0.00    +0.068 A 
ATOM      7  C   UNL     1      10.651  -1.748  -0.107  0.00  0.00    -0.023 A 
ATOM      8  C   UNL     1      10.137  -2.997  -0.108  0.00  0.00    -0.004 A 
ATOM      9  S   UNL     1       8.382  -2.764  -0.083  0.00  0.00    -0.077 S 
ATOM     10  C   UNL     1      10.898  -4.287  -0.121  0.00  0.00    +0.046 C 
ATOM     11  C   UNL     1      12.359  -3.990   0.246  0.00  0.00    -0.009 C 
ATOM     12  C   UNL     1      12.846  -2.803  -0.590  0.00  0.00    +0.008 C 
ATOM     13  C   UNL     1      12.158  -1.520  -0.121  0.00  0.00    +0.037 C 
ATOM     14  C   UNL     1      13.222  -5.218  -0.052  0.00  0.00    +0.008 C 
BRANCH   6  15
ATOM     15  C   UNL     1      10.084   0.732  -0.089  0.00  0.00    +0.244 C 
ATOM     16  O   UNL     1      10.265   1.310   0.967  0.00  0.00    -0.270 OA
ATOM     17  N   UNL     1      10.263   1.384  -1.254  0.00  0.00    -0.325 N 
ATOM     18  H   UNL     1      10.119   0.923  -2.096  0.00  0.00    +0.145 HD
ATOM     19  H   UNL     1      10.536   2.315  -1.252  0.00  0.00    +0.145 HD
ENDBRANCH   6  15
ENDBRANCH   3   5
BRANCH   1  20
ATOM     20  C   UNL     1       4.772   0.164  -0.042  0.00  0.00    +0.324 C 
BRANCH  20  21
ATOM     21  O   UNL     1       3.586  -0.632  -0.035  0.00  0.00    -0.482 OA
BRANCH  21  27
ATOM     22  C   UNL     1       1.146   3.595   0.011  0.00  0.00    +0.044 C 
ATOM     23  C   UNL     1       1.170   2.088   0.002  0.00  0.00    -0.047 A 
ATOM     24  C   UNL     1      -0.017   1.378   0.010  0.00  0.00    +0.007 A 
ATOM     25  C   UNL     1       0.002  -0.004   0.002  0.00  0.00    -0.044 A 
ATOM     26  C   UNL     1       1.207  -0.680  -0.013  0.00  0.00    -0.006 A 
ATOM     27  C   UNL     1       2.399   0.030  -0.021  0.00  0.00    +0.125 A 
ATOM     28  C   UNL     1       2.377   1.417  -0.013  0.00  0.00    +0.049 A 
ATOM     29  C   UNL     1       1.227  -2.187  -0.021  0.00  0.00    +0.048 C 
ATOM     30  C   UNL     1      -1.293  -0.775   0.010  0.00  0.00    +0.044 C 
ENDBRANCH  21  27
ENDBRANCH  20  21
ENDBRANCH   1  20
TORSDOF 5
