REMARK  Name = ZINC08854916
REMARK  16 active torsions:
REMARK  status: ('A' for Active; 'I' for Inactive)
REMARK    1  A    between atoms: C_1  and  C_2
REMARK    2  A    between atoms: C_2  and  O_3
REMARK    3  A    between atoms: O_3  and  C_4
REMARK    4  A    between atoms: C_4  and  C_6
REMARK    5  A    between atoms: C_10  and  N_11
REMARK    6  A    between atoms: N_11  and  C_12
REMARK    7  A    between atoms: C_12  and  C_13
REMARK    8  A    between atoms: C_12  and  C_18
REMARK    9  A    between atoms: C_12  and  N_22
REMARK   10  A    between atoms: C_13  and  O_15
REMARK   11  A    between atoms: O_15  and  C_16
REMARK   12  A    between atoms: C_16  and  C_17
REMARK   13  A    between atoms: C_23  and  O_25
REMARK   14  A    between atoms: O_25  and  C_26
REMARK   15  A    between atoms: C_26  and  C_27
REMARK   16  A    between atoms: C_31  and  N_58
REMARK                            x       y       z     vdW  Elec       q    Type
REMARK                         _______ _______ _______ _____ _____    ______ ____
ROOT
ATOM      1  N   UNL     1       1.512  -0.421   0.080  0.00  0.00    -0.301 N 
ATOM      2  H   UNL     1       2.173   0.286   0.147  0.00  0.00    +0.149 HD
ENDROOT
BRANCH   1   7
ATOM      3  C   UNL     1       3.209  -2.252   0.068  0.00  0.00    +0.090 A 
ATOM      4  C   UNL     1       3.361  -3.692  -0.042  0.00  0.00    -0.025 A 
ATOM      5  C   UNL     1       2.213  -4.383  -0.214  0.00  0.00    -0.021 A 
ATOM      6  S   UNL     1       0.941  -3.154  -0.223  0.00  0.00    -0.080 S 
ATOM      7  C   UNL     1       1.917  -1.739  -0.002  0.00  0.00    +0.082 A 
ATOM      8  C   UNL     1       2.082  -5.867  -0.365  0.00  0.00    -0.036 C 
ATOM      9  C   UNL     1       4.412  -5.906   0.299  0.00  0.00    -0.074 C 
ATOM     10  C   UNL     1       4.695  -4.428   0.019  0.00  0.00    +0.018 C 
ATOM     11  C   UNL     1       3.393  -7.889  -0.647  0.00  0.00    -0.096 C 
ATOM     12  N   UNL     1       3.426  -6.411  -0.678  0.00  0.00    +0.381 N 
ATOM     13  H   UNL     1       3.700  -6.103  -1.619  0.00  0.00    -0.082 HD
BRANCH   3  14
ATOM     14  C   UNL     1       4.366  -1.377   0.249  0.00  0.00    +0.342 C 
ATOM     15  O   UNL     1       4.755  -1.106   1.370  0.00  0.00    -0.245 OA
BRANCH  14  16
ATOM     16  O   UNL     1       5.003  -0.869  -0.827  0.00  0.00    -0.461 OA
BRANCH  16  18
ATOM     17  C   UNL     1       6.713   0.454  -1.906  0.00  0.00    +0.048 C 
ATOM     18  C   UNL     1       6.126  -0.022  -0.576  0.00  0.00    +0.229 C 
ENDBRANCH  16  18
ENDBRANCH  14  16
ENDBRANCH   3  14
ENDBRANCH   1   7
BRANCH   1  19
ATOM     19  C   UNL     1       0.085  -0.091   0.065  0.00  0.00    +0.298 C 
BRANCH  19  20
ATOM     20  C   UNL     1      -0.088   1.412  -0.161  0.00  0.00    +0.438 C 
ATOM     21  F   UNL     1       0.429   2.111   0.935  0.00  0.00    -0.166 F 
ATOM     22  F   UNL     1       0.595   1.792  -1.321  0.00  0.00    -0.166 F 
ATOM     23  F   UNL     1      -1.448   1.709  -0.303  0.00  0.00    -0.166 F 
ENDBRANCH  19  20
BRANCH  19  24
ATOM     24  N   UNL     1      -0.516  -0.465   1.348  0.00  0.00    -0.244 N 
ATOM     25  C   UNL     1      -1.834  -0.273   1.556  0.00  0.00    +0.402 C 
ATOM     26  O   UNL     1      -2.538   0.135   0.653  0.00  0.00    -0.226 OA
ATOM     27  H   UNL     1       0.035  -0.846   2.049  0.00  0.00    +0.155 HD
BRANCH  25  28
ATOM     28  O   UNL     1      -2.370  -0.532   2.763  0.00  0.00    -0.451 OA
BRANCH  28  29
ATOM     29  C   UNL     1      -3.795  -0.302   2.915  0.00  0.00    +0.230 C 
ATOM     30  C   UNL     1      -4.219  -0.650   4.343  0.00  0.00    +0.048 C 
ENDBRANCH  28  29
ENDBRANCH  25  28
ENDBRANCH  19  24
BRANCH  19  31
ATOM     31  C   UNL     1      -0.594  -0.848  -1.048  0.00  0.00    +0.359 C 
ATOM     32  O   UNL     1      -1.647  -1.404  -0.845  0.00  0.00    -0.246 OA
BRANCH  31  33
ATOM     33  O   UNL     1      -0.028  -0.904  -2.263  0.00  0.00    -0.462 OA
BRANCH  33  34
ATOM     34  C   UNL     1      -0.738  -1.651  -3.287  0.00  0.00    +0.229 C 
ATOM     35  C   UNL     1       0.054  -1.603  -4.595  0.00  0.00    +0.048 C 
ENDBRANCH  33  34
ENDBRANCH  31  33
ENDBRANCH  19  31
ENDBRANCH   1  19
TORSDOF 12
