REMARK  Name = ZINC21632894
REMARK  5 active torsions:
REMARK  status: ('A' for Active; 'I' for Inactive)
REMARK    1  A    between atoms: C_1  and  N_2
REMARK    2  A    between atoms: C_6  and  C_7
REMARK    3  A    between atoms: N_9  and  N_10
REMARK    4  A    between atoms: N_10  and  S_11
REMARK    5  A    between atoms: S_11  and  C_14
REMARK                            x       y       z     vdW  Elec       q    Type
REMARK                         _______ _______ _______ _____ _____    ______ ____
ROOT
ATOM      1  N   UNL     1      -3.801   5.242  -0.188  0.00  0.00    -0.108 NA
ATOM      2  H   UNL     1      -3.768   5.943   0.481  0.00  0.00    +0.172 HD
ENDROOT
BRANCH   1   5
ATOM      3  C   UNL     1      -1.619   4.313   0.015  0.00  0.00    +0.275 C 
ATOM      4  O   UNL     1      -1.161   5.437   0.106  0.00  0.00    -0.267 OA
ATOM      5  N   UNL     1      -2.951   4.134  -0.084  0.00  0.00    -0.227 N 
ATOM      6  H   UNL     1      -3.370   3.117  -0.083  0.00  0.00    +0.171 HD
BRANCH   3  12
ATOM      7  C   UNL     1       1.478   4.402   0.023  0.00  0.00    +0.149 C 
ATOM      8  N   UNL     1       0.656   3.189   0.016  0.00  0.00    -0.346 N 
ATOM      9  C   UNL     1       1.123   1.917   0.009  0.00  0.00    +0.086 A 
ATOM     10  C   UNL     1       0.071   1.064   0.010  0.00  0.00    +0.020 A 
ATOM     11  C   UNL     1      -1.101   1.828   0.013  0.00  0.00    +0.032 A 
ATOM     12  C   UNL     1      -0.721   3.153   0.013  0.00  0.00    +0.105 A 
ENDBRANCH   3  12
ENDBRANCH   1   5
BRANCH   1  13
ATOM     13  S   UNL     1      -4.862   5.356  -1.454  0.00  0.00    +0.074 S 
ATOM     14  O   UNL     1      -5.671   6.497  -1.205  0.00  0.00    -0.152 OA
ATOM     15  O   UNL     1      -4.095   5.210  -2.642  0.00  0.00    -0.152 OA
BRANCH  13  16
ATOM     16  C   UNL     1      -5.927   3.955  -1.369  0.00  0.00    +0.108 A 
ATOM     17  C   UNL     1      -5.590   2.789  -2.030  0.00  0.00    +0.028 A 
ATOM     18  C   UNL     1      -6.423   1.688  -1.958  0.00  0.00    +0.003 A 
ATOM     19  C   UNL     1      -7.599   1.756  -1.235  0.00  0.00    +0.015 A 
ATOM     20  C   UNL     1      -7.939   2.925  -0.578  0.00  0.00    +0.020 A 
ATOM     21  C   UNL     1      -7.103   4.024  -0.645  0.00  0.00    +0.043 A 
ATOM     22 BR   UNL     1      -9.548   3.019   0.412  0.00  0.00    -0.050 Br
ENDBRANCH  13  16
ENDBRANCH   1  13
TORSDOF 4
