REMARK  Name = ZINC43742839
REMARK  6 active torsions:
REMARK  status: ('A' for Active; 'I' for Inactive)
REMARK    1  A    between atoms: C_1  and  C_2
REMARK    2  A    between atoms: C_12  and  N_17
REMARK    3  A    between atoms: N_17  and  C_18
REMARK    4  A    between atoms: C_18  and  C_19
REMARK    5  A    between atoms: C_25  and  C_38
REMARK    6  A    between atoms: C_30  and  C_37
REMARK                            x       y       z     vdW  Elec       q    Type
REMARK                         _______ _______ _______ _____ _____    ______ ____
ROOT
ATOM      1  N   UNL     1      -0.849  -6.560   1.706  0.00  0.00    +0.385 N 
ATOM      2  H   UNL     1      -1.791  -6.213   1.810  0.00  0.00    -0.085 HD
ATOM      3  H   UNL     1      -0.628  -6.645   0.725  0.00  0.00    -0.085 HD
ENDROOT
BRANCH   1  15
ATOM      4  C   UNL     1      -0.018   1.503   0.010  0.00  0.00    +0.044 C 
ATOM      5  C   UNL     1       0.002  -0.004   0.002  0.00  0.00    -0.050 A 
ATOM      6  C   UNL     1       0.006  -0.686  -1.207  0.00  0.00    +0.005 A 
ATOM      7  C   UNL     1       0.024  -2.063  -1.236  0.00  0.00    +0.026 A 
ATOM      8  C   UNL     1       0.039  -2.780  -0.045  0.00  0.00    +0.047 A 
ATOM      9  C   UNL     1       0.036  -2.084   1.179  0.00  0.00    +0.003 A 
ATOM     10  C   UNL     1       0.023  -0.688   1.184  0.00  0.00    +0.013 A 
ATOM     11  C   UNL     1       0.056  -3.108   2.219  0.00  0.00    -0.021 A 
ATOM     12  C   UNL     1       0.069  -4.306   1.604  0.00  0.00    +0.006 A 
ATOM     13  N   UNL     1       0.059  -4.126   0.250  0.00  0.00    -0.359 N 
ATOM     14  H   UNL     1       0.064  -4.840  -0.407  0.00  0.00    +0.166 HD
ATOM     15  C   UNL     1       0.090  -5.626   2.341  0.00  0.00    -0.024 C 
ATOM     16  C   UNL     1      -0.327  -5.379   3.795  0.00  0.00    -0.009 C 
ATOM     17  C   UNL     1       0.496  -4.225   4.374  0.00  0.00    +0.003 C 
ATOM     18  C   UNL     1       0.064  -2.911   3.713  0.00  0.00    +0.037 C 
ENDBRANCH   1  15
BRANCH   1  19
ATOM     19  C   UNL     1      -0.739  -7.877   2.348  0.00  0.00    -0.066 C 
BRANCH  19  20
ATOM     20  C   UNL     1      -1.717  -8.850   1.687  0.00  0.00    +0.091 C 
ATOM     21  C   UNL     1      -1.673 -10.224   2.387  0.00  0.00    +0.064 C 
ATOM     22  C   UNL     1      -2.804 -10.411   3.330  0.00  0.00    -0.019 C 
ATOM     23  C   UNL     1      -3.907 -11.047   3.067  0.00  0.00    -0.064 C 
ATOM     24  C   UNL     1      -4.934 -11.191   4.173  0.00  0.00    +0.012 C 
ATOM     25  C   UNL     1      -6.313 -10.817   3.625  0.00  0.00    +0.007 C 
ATOM     26  C   UNL     1      -6.606 -11.670   2.388  0.00  0.00    +0.001 C 
ATOM     27  C   UNL     1      -5.611 -11.315   1.283  0.00  0.00    +0.011 C 
ATOM     28  C   UNL     1      -4.189 -11.669   1.731  0.00  0.00    -0.007 C 
ATOM     29  C   UNL     1      -3.205 -11.215   0.667  0.00  0.00    +0.056 C 
ATOM     30  C   UNL     1      -1.753 -11.183   1.177  0.00  0.00    +0.185 C 
ATOM     31  O   UNL     1      -0.962 -10.473   0.188  0.00  0.00    -0.461 OA
ATOM     32  C   UNL     1      -1.283  -9.161   0.264  0.00  0.00    +0.309 C 
ATOM     33  O   UNL     1      -1.233  -8.367  -0.646  0.00  0.00    -0.251 OA
ATOM     34  C   UNL     1      -4.079 -13.190   1.862  0.00  0.00    +0.016 C 
ATOM     35  C   UNL     1      -4.572 -10.260   5.332  0.00  0.00    +0.012 C 
ENDBRANCH  19  20
ENDBRANCH   1  19
TORSDOF 3
