REMARK  Name = ZINC35671280
REMARK  12 active torsions:
REMARK  status: ('A' for Active; 'I' for Inactive)
REMARK    1  A    between atoms: C_1  and  C_2
REMARK    2  A    between atoms: C_2  and  C_3
REMARK    3  A    between atoms: C_6  and  C_9
REMARK    4  A    between atoms: C_9  and  C_11
REMARK    5  A    between atoms: C_9  and  N_35
REMARK    6  A    between atoms: C_11  and  N_12
REMARK    7  A    between atoms: N_12  and  C_13
REMARK    8  A    between atoms: C_14  and  C_33
REMARK    9  A    between atoms: C_16  and  C_18
REMARK   10  A    between atoms: C_21  and  O_24
REMARK   11  A    between atoms: O_24  and  C_25
REMARK   12  A    between atoms: C_25  and  C_26
REMARK                            x       y       z     vdW  Elec       q    Type
REMARK                         _______ _______ _______ _____ _____    ______ ____
ROOT
ATOM      1  C   UNL     1       4.070  -0.414   7.859  0.00  0.00    +0.225 A 
ATOM      2  C   UNL     1       4.553  -0.753   9.114  0.00  0.00    +0.201 A 
ATOM      3  N   UNL     1       4.769   0.412   9.782  0.00  0.00    -0.196 NA
ATOM      4  C   UNL     1       4.445   1.409   8.999  0.00  0.00    +0.231 A 
ATOM      5  O   UNL     1       4.020   0.930   7.814  0.00  0.00    -0.421 OA
ENDROOT
BRANCH   4   6
ATOM      6  C   UNL     1       4.536   2.839   9.358  0.00  0.00    +0.037 A 
ATOM      7  C   UNL     1       4.154   3.817   8.438  0.00  0.00    +0.017 A 
ATOM      8  C   UNL     1       4.241   5.150   8.776  0.00  0.00    +0.046 A 
ATOM      9  C   UNL     1       4.708   5.521  10.030  0.00  0.00    +0.121 A 
ATOM     10  C   UNL     1       5.090   4.551  10.948  0.00  0.00    +0.046 A 
ATOM     11  C   UNL     1       5.000   3.216  10.620  0.00  0.00    +0.017 A 
BRANCH   9  12
ATOM     12  O   UNL     1       4.793   6.836  10.360  0.00  0.00    -0.487 OA
BRANCH  12  13
ATOM     13  C   UNL     1       5.282   7.148  11.666  0.00  0.00    +0.266 C 
BRANCH  13  14
ATOM     14  C   UNL     1       5.305   8.643  11.850  0.00  0.00    +0.008 A 
ATOM     15  C   UNL     1       4.883   9.473  10.828  0.00  0.00    +0.008 A 
ATOM     16  C   UNL     1       4.904  10.844  10.997  0.00  0.00    +0.000 A 
ATOM     17  C   UNL     1       5.348  11.388  12.188  0.00  0.00    +0.001 A 
ATOM     18  C   UNL     1       5.770  10.560  13.211  0.00  0.00    +0.020 A 
ATOM     19  C   UNL     1       5.744   9.186  13.045  0.00  0.00    +0.047 A 
ATOM     20 CL   UNL     1       6.268   8.146  14.331  0.00  0.00    -0.083 Cl
ENDBRANCH  13  14
ENDBRANCH  12  13
ENDBRANCH   9  12
ENDBRANCH   4   6
BRANCH   1  21
ATOM     21  N   UNL     1       3.717  -1.284   6.851  0.00  0.00    -0.314 N 
ATOM     22  H   UNL     1       3.793  -2.242   6.989  0.00  0.00    +0.149 HD
BRANCH  21  23
ATOM     23  C   UNL     1       3.228  -0.764   5.572  0.00  0.00    +0.094 C 
BRANCH  23  24
ATOM     24  C   UNL     1       3.033  -1.923   4.591  0.00  0.00    -0.020 C 
BRANCH  24  28
ATOM     25  C   UNL     1       6.822  -3.678   3.690  0.00  0.00    -0.048 A 
ATOM     26  C   UNL     1       5.986  -4.275   4.616  0.00  0.00    +0.004 A 
ATOM     27  C   UNL     1       4.760  -3.707   4.907  0.00  0.00    +0.002 A 
ATOM     28  C   UNL     1       4.370  -2.542   4.274  0.00  0.00    -0.059 A 
ATOM     29  C   UNL     1       5.206  -1.944   3.349  0.00  0.00    +0.002 A 
ATOM     30  C   UNL     1       6.434  -2.510   3.061  0.00  0.00    +0.004 A 
BRANCH  25  32
ATOM     31  C   UNL     1       9.220  -3.736   4.321  0.00  0.00    +0.009 C 
ATOM     32  C   UNL     1       8.158  -4.298   3.372  0.00  0.00    +0.032 C 
ENDBRANCH  25  32
ENDBRANCH  24  28
BRANCH  24  33
ATOM     33  N   UNL     1       2.421  -1.419   3.355  0.00  0.00    +0.385 N 
ATOM     34  C   UNL     1       2.212  -2.534   2.396  0.00  0.00    -0.078 C 
ATOM     35  C   UNL     1       1.105  -1.993   1.457  0.00  0.00    -0.020 C 
ATOM     36  C   UNL     1       0.190  -1.204   2.422  0.00  0.00    -0.020 C 
ATOM     37  C   UNL     1       1.075  -0.874   3.637  0.00  0.00    -0.078 C 
ATOM     38  H   UNL     1       3.005  -0.708   2.941  0.00  0.00    -0.081 HD
ENDBRANCH  24  33
ENDBRANCH  23  24
ENDBRANCH  21  23
ENDBRANCH   1  21
BRANCH   2  39
ATOM     39  C   UNL     1       4.778  -2.076   9.612  0.00  0.00    +0.124 C 
ATOM     40  N   UNL     1       4.958  -3.126  10.007  0.00  0.00    -0.189 NA
ENDBRANCH   2  39
TORSDOF 11
