REMARK  Name = ZINC11661779
REMARK  6 active torsions:
REMARK  status: ('A' for Active; 'I' for Inactive)
REMARK    1  A    between atoms: C_5  and  C_7
REMARK    2  A    between atoms: C_7  and  C_8
REMARK    3  A    between atoms: C_14  and  C_16
REMARK    4  A    between atoms: C_16  and  C_17
REMARK    5  A    between atoms: C_24  and  C_25
REMARK    6  A    between atoms: C_24  and  N_60
REMARK                            x       y       z     vdW  Elec       q    Type
REMARK                         _______ _______ _______ _____ _____    ______ ____
ROOT
ATOM      1  C   UNL     1      -0.450   4.921  -1.966  0.00  0.00    +0.090 C 
ENDROOT
BRANCH   1   2
ATOM      2  C   UNL     1       0.034   5.781  -3.136  0.00  0.00    +0.028 C 
ATOM      3  C   UNL     1      -0.745   5.426  -4.371  0.00  0.00    +0.200 C 
ATOM      4  O   UNL     1      -1.942   5.259  -4.276  0.00  0.00    -0.278 OA
ATOM      5  N   UNL     1      -0.172   5.288  -5.572  0.00  0.00    -0.318 N 
ATOM      6  C   UNL     1       1.265   5.433  -5.787  0.00  0.00    +0.085 C 
ATOM      7  C   UNL     1       1.899   6.179  -4.612  0.00  0.00    -0.058 C 
ATOM      8  H   UNL     1      -0.736   5.082  -6.333  0.00  0.00    +0.149 HD
ATOM      9  N   UNL     1       1.467   5.518  -3.364  0.00  0.00    +0.391 N 
ATOM     10  H   UNL     1       1.612   4.505  -3.453  0.00  0.00    -0.080 HD
BRANCH   9  11
ATOM     11  C   UNL     1       2.263   6.020  -2.221  0.00  0.00    -0.040 C 
BRANCH  11  12
ATOM     12  C   UNL     1       3.648   5.431  -2.295  0.00  0.00    -0.046 A 
ATOM     13  C   UNL     1       4.657   6.093  -2.978  0.00  0.00    +0.005 A 
ATOM     14  C   UNL     1       5.915   5.514  -3.020  0.00  0.00    +0.020 A 
ATOM     15  C   UNL     1       6.122   4.305  -2.384  0.00  0.00    +0.111 A 
ATOM     16  N   UNL     1       5.139   3.703  -1.743  0.00  0.00    -0.263 NA
ATOM     17  C   UNL     1       3.930   4.228  -1.677  0.00  0.00    +0.112 A 
ENDBRANCH  11  12
ENDBRANCH   9  11
ENDBRANCH   1   2
BRANCH   1  24
ATOM     18  C   UNL     1      -0.505   0.725   0.774  0.00  0.00    -0.004 C 
ATOM     19  C   UNL     1       0.342   0.472  -0.475  0.00  0.00    +0.023 C 
ATOM     20  C   UNL     1      -0.350   1.095  -1.692  0.00  0.00    +0.108 C 
ATOM     21  N   UNL     1      -0.606   2.515  -1.414  0.00  0.00    -0.301 N 
ATOM     22  C   UNL     1      -1.335   2.875  -0.190  0.00  0.00    +0.108 C 
ATOM     23  C   UNL     1      -0.632   2.232   1.010  0.00  0.00    +0.023 C 
ATOM     24  C   UNL     1      -0.180   3.469  -2.265  0.00  0.00    +0.214 C 
ATOM     25  O   UNL     1       0.421   3.159  -3.272  0.00  0.00    -0.276 OA
BRANCH  18  26
ATOM     26  C   UNL     1       0.166   0.074   1.985  0.00  0.00    +0.041 C 
BRANCH  26  31
ATOM     27  C   UNL     1      -2.334  -0.713   4.703  0.00  0.00    +0.000 A 
ATOM     28  C   UNL     1      -2.365   0.478   5.405  0.00  0.00    +0.003 A 
ATOM     29  C   UNL     1      -1.577   1.539   5.002  0.00  0.00    +0.038 A 
ATOM     30  C   UNL     1      -0.753   1.408   3.896  0.00  0.00    +0.127 A 
ATOM     31  C   UNL     1      -0.727   0.217   3.191  0.00  0.00    -0.012 A 
ATOM     32  C   UNL     1      -1.516  -0.843   3.597  0.00  0.00    +0.006 A 
ATOM     33  F   UNL     1       0.022   2.443   3.504  0.00  0.00    -0.205 F 
ENDBRANCH  26  31
ENDBRANCH  18  26
ENDBRANCH   1  24
TORSDOF 6
