REMARK  Name = ZINC40825117
REMARK  7 active torsions:
REMARK  status: ('A' for Active; 'I' for Inactive)
REMARK    1  A    between atoms: C_1  and  C_2
REMARK    2  A    between atoms: C_6  and  C_7
REMARK    3  A    between atoms: N_9  and  C_10
REMARK    4  A    between atoms: N_23  and  N_24
REMARK    5  A    between atoms: N_24  and  C_25
REMARK    6  A    between atoms: C_25  and  N_27
REMARK    7  A    between atoms: N_27  and  C_28
REMARK                            x       y       z     vdW  Elec       q    Type
REMARK                         _______ _______ _______ _____ _____    ______ ____
ROOT
ATOM      1  C   UNL     1      -0.537   2.485  -1.510  0.00  0.00    +0.048 C 
ATOM      2  C   UNL     1      -0.313   1.110  -0.935  0.00  0.00    +0.009 A 
ATOM      3  C   UNL     1      -0.348  -0.107  -1.628  0.00  0.00    +0.042 A 
ATOM      4  C   UNL     1      -0.092  -1.106  -0.719  0.00  0.00    +0.115 A 
ATOM      5  O   UNL     1       0.096  -0.542   0.472  0.00  0.00    -0.454 OA
ATOM      6  C   UNL     1      -0.029   0.801   0.366  0.00  0.00    +0.193 A 
ATOM      7  C   UNL     1      -0.052  -2.566  -1.095  0.00  0.00    +0.075 C 
ATOM      8  C   UNL     1      -0.813  -2.775  -2.406  0.00  0.00    +0.014 C 
ATOM      9  C   UNL     1      -0.294  -1.823  -3.490  0.00  0.00    +0.058 C 
ATOM     10  C   UNL     1      -0.599  -0.397  -3.057  0.00  0.00    +0.070 C 
ATOM     11  N   UNL     1      -1.046   0.500  -3.881  0.00  0.00    -0.185 NA
ENDROOT
BRANCH   6  12
ATOM     12  C   UNL     1       0.113   1.764   1.464  0.00  0.00    +0.284 C 
ATOM     13  O   UNL     1      -0.025   2.954   1.251  0.00  0.00    -0.266 OA
ATOM     14  N   UNL     1       0.395   1.330   2.708  0.00  0.00    -0.279 N 
ATOM     15  H   UNL     1       0.425   0.379   2.895  0.00  0.00    +0.155 HD
BRANCH  14  16
ATOM     16  C   UNL     1       0.645   2.252   3.731  0.00  0.00    +0.037 A 
ATOM     17  C   UNL     1       0.260   1.966   5.034  0.00  0.00    +0.027 A 
ATOM     18  C   UNL     1       0.506   2.876   6.044  0.00  0.00    +0.051 A 
ATOM     19  C   UNL     1       1.138   4.076   5.761  0.00  0.00    +0.166 A 
ATOM     20  C   UNL     1       1.526   4.366   4.455  0.00  0.00    +0.168 A 
ATOM     21  C   UNL     1       1.284   3.451   3.444  0.00  0.00    +0.072 A 
ATOM     22  O   UNL     1       2.121   5.595   4.439  0.00  0.00    -0.453 OA
ATOM     23  C   UNL     1       1.726   6.229   5.670  0.00  0.00    +0.466 C 
ATOM     24  O   UNL     1       1.489   5.124   6.563  0.00  0.00    -0.453 OA
ENDBRANCH  14  16
ENDBRANCH   6  12
BRANCH  11  25
ATOM     25  N   UNL     1      -1.266   0.170  -5.225  0.00  0.00    -0.218 N 
ATOM     26  H   UNL     1      -1.083  -0.730  -5.539  0.00  0.00    +0.176 HD
BRANCH  25  27
ATOM     27  C   UNL     1      -1.730   1.101  -6.081  0.00  0.00    +0.154 C 
ATOM     28  S   UNL     1      -1.998   0.697  -7.723  0.00  0.00    -0.017 S 
BRANCH  27  29
ATOM     29  N   UNL     1      -1.984   2.351  -5.644  0.00  0.00    -0.296 N 
ATOM     30  H   UNL     1      -1.757   2.602  -4.735  0.00  0.00    +0.154 HD
BRANCH  29  31
ATOM     31  C   UNL     1      -2.575   3.284  -6.501  0.00  0.00    +0.033 A 
ATOM     32  C   UNL     1      -3.616   2.901  -7.338  0.00  0.00    +0.023 A 
ATOM     33  C   UNL     1      -4.197   3.825  -8.183  0.00  0.00    +0.002 A 
ATOM     34  C   UNL     1      -3.744   5.132  -8.197  0.00  0.00    +0.000 A 
ATOM     35  C   UNL     1      -2.708   5.517  -7.366  0.00  0.00    +0.002 A 
ATOM     36  C   UNL     1      -2.127   4.599  -6.514  0.00  0.00    +0.023 A 
ENDBRANCH  29  31
ENDBRANCH  27  29
ENDBRANCH  25  27
ENDBRANCH  11  25
TORSDOF 6
