REMARK  Name = ZINC20686773
REMARK  11 active torsions:
REMARK  status: ('A' for Active; 'I' for Inactive)
REMARK    1  A    between atoms: C_1  and  C_2
REMARK    2  A    between atoms: C_2  and  C_3
REMARK    3  A    between atoms: C_3  and  C_4
REMARK    4  A    between atoms: C_4  and  C_5
REMARK    5  A    between atoms: C_5  and  C_6
REMARK    6  A    between atoms: C_6  and  O_7
REMARK    7  A    between atoms: O_7  and  C_8
REMARK    8  A    between atoms: C_21  and  C_24
REMARK    9  A    between atoms: C_27  and  N_30
REMARK   10  A    between atoms: N_30  and  C_31
REMARK   11  A    between atoms: N_30  and  C_32
REMARK                            x       y       z     vdW  Elec       q    Type
REMARK                         _______ _______ _______ _____ _____    ______ ____
ROOT
ATOM      1  C   UNL     1      -1.023   1.999   5.388  0.00  0.00    +0.121 A 
ATOM      2  C   UNL     1       0.103   1.254   5.068  0.00  0.00    +0.047 A 
ATOM      3  C   UNL     1       0.857   0.690   6.077  0.00  0.00    +0.027 A 
ATOM      4  C   UNL     1       0.490   0.868   7.404  0.00  0.00    +0.032 A 
ATOM      5  C   UNL     1      -0.633   1.612   7.731  0.00  0.00    -0.016 A 
ATOM      6  C   UNL     1      -1.384   2.180   6.711  0.00  0.00    +0.051 A 
ATOM      7  C   UNL     1      -1.064   1.833   9.147  0.00  0.00    +0.049 C 
ATOM      8  C   UNL     1      -2.268   0.990   9.494  0.00  0.00    -0.023 C 
ATOM      9  C   UNL     1      -2.188   0.574  10.734  0.00  0.00    -0.030 C 
ATOM     10  C   UNL     1      -0.919   1.088  11.386  0.00  0.00    +0.033 C 
ATOM     11  C   UNL     1       0.004   1.410  10.174  0.00  0.00    +0.029 C 
ATOM     12  C   UNL     1       0.659   0.096   9.738  0.00  0.00    +0.105 C 
ATOM     13  N   UNL     1       1.266   0.285   8.416  0.00  0.00    -0.336 N 
ATOM     14  H   UNL     1       2.305  -0.029   8.238  0.00  0.00    +0.147 HD
ENDROOT
BRANCH  12  15
ATOM     15  C   UNL     1      -0.385  -0.988   9.663  0.00  0.00    -0.027 A 
ATOM     16  C   UNL     1      -0.645  -1.772  10.772  0.00  0.00    +0.007 A 
ATOM     17  C   UNL     1      -1.605  -2.763  10.710  0.00  0.00    +0.023 A 
ATOM     18  C   UNL     1      -2.302  -2.979   9.527  0.00  0.00    +0.029 A 
ATOM     19  C   UNL     1      -2.035  -2.193   8.414  0.00  0.00    +0.023 A 
ATOM     20  C   UNL     1      -1.077  -1.200   8.485  0.00  0.00    +0.007 A 
BRANCH  18  21
ATOM     21  N   UNL     1      -3.270  -3.983   9.459  0.00  0.00    -0.336 N 
ATOM     22  C   UNL     1      -4.005  -4.209   8.212  0.00  0.00    +0.129 C 
ATOM     23  C   UNL     1      -3.551  -4.811  10.634  0.00  0.00    +0.129 C 
ENDBRANCH  18  21
ENDBRANCH  12  15
BRANCH   1  24
ATOM     24  O   UNL     1      -1.771   2.556   4.398  0.00  0.00    -0.492 OA
BRANCH  24  25
ATOM     25  C   UNL     1      -1.338   2.334   3.054  0.00  0.00    +0.229 C 
BRANCH  25  26
ATOM     26  C   UNL     1      -2.297   3.033   2.088  0.00  0.00    +0.041 C 
BRANCH  26  27
ATOM     27  C   UNL     1      -1.833   2.795   0.649  0.00  0.00    +0.003 C 
BRANCH  27  28
ATOM     28  C   UNL     1      -2.792   3.494  -0.318  0.00  0.00    -0.000 C 
BRANCH  28  30
ATOM     29  C   UNL     1      -3.287   3.954  -2.723  0.00  0.00    +0.004 C 
ATOM     30  C   UNL     1      -2.328   3.256  -1.756  0.00  0.00    -0.003 C 
ENDBRANCH  28  30
ENDBRANCH  27  28
ENDBRANCH  26  27
ENDBRANCH  25  26
ENDBRANCH  24  25
ENDBRANCH   1  24
TORSDOF 8
