REMARK  Name = ZINC63695480
REMARK  5 active torsions:
REMARK  status: ('A' for Active; 'I' for Inactive)
REMARK    1  A    between atoms: C_1  and  C_2
REMARK    2  A    between atoms: C_5  and  C_7
REMARK    3  A    between atoms: C_7  and  N_8
REMARK    4  A    between atoms: C_9  and  C_11
REMARK    5  A    between atoms: N_14  and  C_17
REMARK                            x       y       z     vdW  Elec       q    Type
REMARK                         _______ _______ _______ _____ _____    ______ ____
ROOT
ATOM      1  C   UNL     1       3.117  -5.038  -3.086  0.00  0.00    +0.077 C 
ATOM      2  C   UNL     1       3.778  -3.858  -3.804  0.00  0.00    +0.028 C 
ATOM      3  C   UNL     1       4.143  -4.275  -5.231  0.00  0.00    +0.089 C 
ATOM      4  N   UNL     1       5.060  -5.421  -5.188  0.00  0.00    -0.266 NA
ATOM      5  C   UNL     1       4.430  -6.582  -4.545  0.00  0.00    +0.089 C 
ATOM      6  C   UNL     1       4.074  -6.234  -3.098  0.00  0.00    +0.028 C 
ENDROOT
BRANCH   4   7
ATOM      7  C   UNL     1       5.541  -5.762  -6.534  0.00  0.00    +0.252 C 
ATOM      8  N   UNL     1       4.404  -5.940  -7.445  0.00  0.00    -0.351 N 
ATOM      9  C   UNL     1       4.521  -5.058  -8.394  0.00  0.00    +0.061 A 
ATOM     10  C   UNL     1       3.705  -4.748  -9.577  0.00  0.00    +0.029 A 
ATOM     11  C   UNL     1       4.083  -3.754 -10.404  0.00  0.00    +0.022 A 
ATOM     12  C   UNL     1       5.242  -2.985 -10.185  0.00  0.00    +0.043 A 
ATOM     13  C   UNL     1       6.059  -3.186  -9.131  0.00  0.00    +0.047 A 
ATOM     14  C   UNL     1       5.746  -4.244  -8.162  0.00  0.00    +0.063 A 
ATOM     15  N   UNL     1       6.340  -4.657  -7.078  0.00  0.00    -0.351 N 
ATOM     16 CL   UNL     1       5.633  -1.728 -11.317  0.00  0.00    -0.083 Cl
ATOM     17  H   UNL     1       3.695  -6.596  -7.356  0.00  0.00    +0.163 HD
ATOM     18  H   UNL     1       7.158  -4.299  -6.699  0.00  0.00    +0.163 HD
ENDBRANCH   4   7
BRANCH   1  20
ATOM     19  N   UNL     1       1.983  -3.620  -1.407  0.00  0.00    -0.308 N 
ATOM     20  C   UNL     1       2.810  -4.653  -1.662  0.00  0.00    +0.217 C 
ATOM     21  O   UNL     1       3.307  -5.273  -0.746  0.00  0.00    -0.276 OA
ATOM     22  H   UNL     1       1.586  -3.124  -2.140  0.00  0.00    +0.149 HD
BRANCH  19  23
ATOM     23  C   UNL     1       1.684  -3.245  -0.023  0.00  0.00    +0.178 C 
BRANCH  23  28
ATOM     24  C   UNL     1      -0.018   1.503   0.010  0.00  0.00    +0.086 C 
ATOM     25  C   UNL     1       0.002  -0.004   0.002  0.00  0.00    +0.102 A 
ATOM     26  C   UNL     1      -1.078  -0.805   0.003  0.00  0.00    +0.045 A 
ATOM     27  C   UNL     1      -0.601  -2.136  -0.007  0.00  0.00    +0.046 A 
ATOM     28  C   UNL     1       0.742  -2.069  -0.013  0.00  0.00    +0.122 A 
ATOM     29  O   UNL     1       1.102  -0.775  -0.013  0.00  0.00    -0.463 OA
ENDBRANCH  23  28
ENDBRANCH  19  23
ENDBRANCH   1  20
TORSDOF 4
