REMARK  Name = ZINC63426684
REMARK  5 active torsions:
REMARK  status: ('A' for Active; 'I' for Inactive)
REMARK    1  A    between atoms: C_3  and  C_6
REMARK    2  A    between atoms: C_6  and  N_7
REMARK    3  A    between atoms: C_15  and  O_39
REMARK    4  A    between atoms: C_16  and  C_20
REMARK    5  A    between atoms: C_26  and  C_29
REMARK                            x       y       z     vdW  Elec       q    Type
REMARK                         _______ _______ _______ _____ _____    ______ ____
ROOT
ATOM      1  N   UNL     1       5.700   1.667   2.522  0.00  0.00    -0.286 N 
ATOM      2  C   UNL     1       4.479   2.210   3.126  0.00  0.00    +0.106 C 
ATOM      3  C   UNL     1       4.386   3.707   3.009  0.00  0.00    +0.027 C 
ATOM      4  C   UNL     1       4.620   4.410   4.344  0.00  0.00    +0.002 C 
ATOM      5  C   UNL     1       3.599   3.865   5.353  0.00  0.00    +0.005 C 
ATOM      6  C   UNL     1       4.029   2.446   5.726  0.00  0.00    +0.036 C 
ATOM      7  C   UNL     1       4.308   1.651   4.501  0.00  0.00    -0.011 C 
ATOM      8  C   UNL     1       4.456   0.330   4.639  0.00  0.00    +0.116 C 
ATOM      9  C   UNL     1       4.808  -0.450   3.388  0.00  0.00    +0.226 C 
ATOM     10  C   UNL     1       5.882   0.320   2.642  0.00  0.00    +0.236 C 
ATOM     11  O   UNL     1       6.856  -0.234   2.179  0.00  0.00    -0.274 OA
ENDROOT
BRANCH   9  12
ATOM     12  C   UNL     1       5.324  -1.814   3.765  0.00  0.00    +0.238 C 
ATOM     13  O   UNL     1       6.481  -1.953   4.104  0.00  0.00    -0.274 OA
ATOM     14  N   UNL     1       4.501  -2.881   3.726  0.00  0.00    -0.264 N 
ATOM     15  C   UNL     1       4.977  -4.139   4.074  0.00  0.00    +0.165 A 
ATOM     16  N   UNL     1       4.328  -5.283   4.090  0.00  0.00    -0.229 NA
ATOM     17  H   UNL     1       3.576  -2.770   3.455  0.00  0.00    +0.157 HD
ATOM     18  C   UNL     1       4.928  -6.403   4.449  0.00  0.00    +0.057 A 
ATOM     19  C   UNL     1       6.235  -6.318   4.797  0.00  0.00    +0.072 A 
ATOM     20  S   UNL     1       6.526  -4.571   4.570  0.00  0.00    -0.060 S 
BRANCH  18  21
ATOM     21  C   UNL     1       4.192  -7.718   4.470  0.00  0.00    +0.014 C 
ATOM     22  C   UNL     1       4.621  -8.563   3.269  0.00  0.00    +0.016 C 
ATOM     23  C   UNL     1       3.874  -9.898   3.291  0.00  0.00    -0.010 C 
ATOM     24  C   UNL     1       2.367  -9.640   3.221  0.00  0.00    +0.007 C 
ATOM     25  C   UNL     1       1.938  -8.796   4.422  0.00  0.00    -0.010 C 
ATOM     26  C   UNL     1       2.685  -7.461   4.400  0.00  0.00    +0.016 C 
ATOM     27  C   UNL     1       2.268  -9.543   5.715  0.00  0.00    +0.007 C 
ATOM     28  C   UNL     1       3.774  -9.801   5.785  0.00  0.00    -0.010 C 
ATOM     29  C   UNL     1       4.204 -10.646   4.584  0.00  0.00    +0.007 C 
ATOM     30  C   UNL     1       4.522  -8.466   5.763  0.00  0.00    +0.016 C 
ENDBRANCH  18  21
ENDBRANCH   9  12
BRANCH   8  31
ATOM     31  O   UNL     1       4.300  -0.282   5.840  0.00  0.00    -0.510 OA
ATOM     32  H   UNL     1       4.500  -1.228   5.828  0.00  0.00    +0.292 HD
ENDBRANCH   8  31
BRANCH   1  33
ATOM     33  C   UNL     1       6.665   2.521   1.825  0.00  0.00    +0.182 C 
BRANCH  33  36
ATOM     34  C   UNL     1       5.350   3.358  -1.515  0.00  0.00    +0.041 A 
ATOM     35  C   UNL     1       5.456   3.607  -0.127  0.00  0.00    +0.046 A 
ATOM     36  C   UNL     1       6.263   2.657   0.379  0.00  0.00    +0.122 A 
ATOM     37  O   UNL     1       6.650   1.851  -0.624  0.00  0.00    -0.466 OA
ATOM     38  C   UNL     1       6.099   2.271  -1.774  0.00  0.00    +0.195 A 
ENDBRANCH  33  36
ENDBRANCH   1  33
TORSDOF 5
