REMARK  Name = ZINC03532381
REMARK  11 active torsions:
REMARK  status: ('A' for Active; 'I' for Inactive)
REMARK    1  A    between atoms: C_1  and  C_2
REMARK    2  A    between atoms: C_2  and  C_3
REMARK    3  A    between atoms: C_3  and  C_5
REMARK    4  A    between atoms: C_3  and  C_6
REMARK    5  A    between atoms: C_9  and  N_12
REMARK    6  A    between atoms: C_22  and  S_23
REMARK    7  A    between atoms: S_23  and  C_24
REMARK    8  A    between atoms: C_24  and  C_26
REMARK    9  A    between atoms: C_24  and  C_27
REMARK   10  A    between atoms: N_32  and  C_33
REMARK   11  A    between atoms: C_33  and  C_34
REMARK                            x       y       z     vdW  Elec       q    Type
REMARK                         _______ _______ _______ _____ _____    ______ ____
ROOT
ATOM      1  N   UNL     1      -2.895   2.509   7.164  0.00  0.00    -0.255 N 
ATOM      2  C   UNL     1      -3.433   1.543   7.944  0.00  0.00    +0.267 A 
ATOM      3  O   UNL     1      -3.307   0.364   7.666  0.00  0.00    -0.267 OA
ATOM      4  C   UNL     1      -4.175   1.968   9.138  0.00  0.00    +0.065 A 
ATOM      5  C   UNL     1      -4.765   1.050  10.005  0.00  0.00    +0.015 A 
ATOM      6  C   UNL     1      -5.445   1.500  11.103  0.00  0.00    +0.001 A 
ATOM      7  C   UNL     1      -5.553   2.860  11.363  0.00  0.00    +0.002 A 
ATOM      8  C   UNL     1      -4.984   3.782  10.530  0.00  0.00    +0.028 A 
ATOM      9  C   UNL     1      -4.282   3.353   9.399  0.00  0.00    +0.079 A 
ATOM     10  N   UNL     1      -3.703   4.232   8.549  0.00  0.00    -0.223 NA
ATOM     11  C   UNL     1      -3.042   3.828   7.492  0.00  0.00    +0.177 A 
ENDROOT
BRANCH   1  15
ATOM     12  C   UNL     1      -0.760   1.454   3.743  0.00  0.00    -0.044 A 
ATOM     13  C   UNL     1      -0.105   1.577   4.955  0.00  0.00    +0.006 A 
ATOM     14  C   UNL     1      -0.809   1.932   6.089  0.00  0.00    +0.026 A 
ATOM     15  C   UNL     1      -2.178   2.154   6.014  0.00  0.00    +0.052 A 
ATOM     16  C   UNL     1      -2.833   2.025   4.797  0.00  0.00    +0.026 A 
ATOM     17  C   UNL     1      -2.123   1.676   3.665  0.00  0.00    +0.006 A 
BRANCH  12  18
ATOM     18  C   UNL     1       0.012   1.073   2.506  0.00  0.00    +0.016 C 
ATOM     19  C   UNL     1       0.670  -0.292   2.717  0.00  0.00    +0.012 C 
BRANCH  18  21
ATOM     20  C   UNL     1       1.791   1.804   0.912  0.00  0.00    +0.004 C 
ATOM     21  C   UNL     1       1.090   2.123   2.234  0.00  0.00    +0.004 C 
ENDBRANCH  18  21
ENDBRANCH  12  18
ENDBRANCH   1  15
BRANCH  11  22
ATOM     22  S   UNL     1      -2.313   5.041   6.442  0.00  0.00    -0.075 S 
BRANCH  22  23
ATOM     23  C   UNL     1      -2.800   6.549   7.318  0.00  0.00    +0.137 C 
ATOM     24  C   UNL     1      -2.122   6.584   8.689  0.00  0.00    +0.029 C 
BRANCH  23  25
ATOM     25  C   UNL     1      -2.378   7.754   6.518  0.00  0.00    +0.233 C 
ATOM     26  O   UNL     1      -1.513   7.649   5.675  0.00  0.00    -0.274 OA
ATOM     27  N   UNL     1      -2.963   8.948   6.739  0.00  0.00    -0.239 N 
ATOM     28  C   UNL     1      -2.585  10.025   6.022  0.00  0.00    +0.306 C 
ATOM     29  O   UNL     1      -1.718   9.920   5.178  0.00  0.00    -0.252 OA
ATOM     30  N   UNL     1      -3.170  11.220   6.244  0.00  0.00    -0.299 N 
ATOM     31  H   UNL     1      -3.748   9.043   7.503  0.00  0.00    +0.159 HD
ATOM     32  H   UNL     1      -3.954  11.315   7.008  0.00  0.00    +0.150 HD
BRANCH  30  33
ATOM     33  C   UNL     1      -2.759  12.391   5.465  0.00  0.00    +0.102 C 
ATOM     34  C   UNL     1      -3.572  13.609   5.910  0.00  0.00    +0.024 C 
ENDBRANCH  30  33
ENDBRANCH  23  25
ENDBRANCH  22  23
ENDBRANCH  11  22
TORSDOF 7
