REMARK  Name = ZINC04236787
REMARK  16 active torsions:
REMARK  status: ('A' for Active; 'I' for Inactive)
REMARK    1  A    between atoms: C_1  and  C_2
REMARK    2  A    between atoms: C_5  and  O_29
REMARK    3  A    between atoms: C_7  and  C_26
REMARK    4  A    between atoms: C_7  and  C_27
REMARK    5  A    between atoms: C_12  and  O_25
REMARK    6  A    between atoms: C_14  and  C_16
REMARK    7  A    between atoms: C_16  and  C_17
REMARK    8  A    between atoms: C_27  and  O_28
REMARK    9  A    between atoms: O_29  and  C_30
REMARK   10  A    between atoms: N_32  and  C_33
REMARK   11  A    between atoms: C_35  and  O_43
REMARK   12  A    between atoms: C_36  and  O_41
REMARK   13  A    between atoms: C_37  and  O_39
REMARK   14  A    between atoms: O_39  and  C_40
REMARK   15  A    between atoms: O_41  and  C_42
REMARK   16  A    between atoms: O_43  and  C_44
REMARK                            x       y       z     vdW  Elec       q    Type
REMARK                         _______ _______ _______ _____ _____    ______ ____
ROOT
ATOM      1  C   UNL     1      -3.963   2.510   3.092  0.00  0.00    +0.012 C 
ATOM      2  C   UNL     1      -2.669   3.303   2.897  0.00  0.00    -0.023 C 
ATOM      3  C   UNL     1      -1.573   2.718   3.791  0.00  0.00    +0.011 C 
ATOM      4  C   UNL     1      -1.335   1.255   3.414  0.00  0.00    +0.046 C 
ATOM      5  C   UNL     1      -0.900   1.169   1.950  0.00  0.00    +0.186 C 
ATOM      6  C   UNL     1      -1.995   1.754   1.057  0.00  0.00    +0.031 C 
ATOM      7  C   UNL     1      -2.233   3.217   1.433  0.00  0.00    +0.007 C 
ATOM      8  C   UNL     1      -0.939   4.011   1.239  0.00  0.00    +0.007 C 
ATOM      9  C   UNL     1      -1.177   5.474   1.615  0.00  0.00    +0.032 C 
ATOM     10  C   UNL     1      -1.613   5.560   3.080  0.00  0.00    +0.119 C 
ATOM     11  C   UNL     1      -2.906   4.767   3.274  0.00  0.00    +0.032 C 
ATOM     12  C   UNL     1      -1.560   1.668  -0.407  0.00  0.00    +0.017 C 
ENDROOT
BRANCH  10  13
ATOM     13  O   UNL     1      -1.834   6.927   3.431  0.00  0.00    -0.391 OA
ATOM     14  H   UNL     1      -1.055   7.490   3.332  0.00  0.00    +0.210 HD
ENDBRANCH  10  13
BRANCH  11  15
ATOM     15  C   UNL     1      -4.002   5.352   2.381  0.00  0.00    +0.102 C 
BRANCH  15  16
ATOM     16  C   UNL     1      -4.425   6.695   2.918  0.00  0.00    +0.216 C 
ATOM     17  O   UNL     1      -4.035   7.062   4.006  0.00  0.00    -0.276 OA
ATOM     18  N   UNL     1      -5.235   7.488   2.189  0.00  0.00    -0.301 N 
ATOM     19  C   UNL     1      -5.710   7.059   0.866  0.00  0.00    +0.108 C 
ATOM     20  C   UNL     1      -7.242   7.157   0.842  0.00  0.00    +0.019 C 
ATOM     21  C   UNL     1      -7.664   8.576   1.231  0.00  0.00    +0.003 C 
ATOM     22  C   UNL     1      -7.184   8.880   2.652  0.00  0.00    +0.019 C 
ATOM     23  C   UNL     1      -5.655   8.800   2.700  0.00  0.00    +0.108 C 
ENDBRANCH  15  16
ENDBRANCH  11  15
BRANCH   6  24
ATOM     24  C   UNL     1      -3.289   0.961   1.251  0.00  0.00    +0.166 C 
BRANCH  24  25
ATOM     25  O   UNL     1      -3.121  -0.360   0.731  0.00  0.00    -0.394 OA
ATOM     26  H   UNL     1      -3.904  -0.920   0.821  0.00  0.00    +0.209 HD
ENDBRANCH  24  25
ENDBRANCH   6  24
BRANCH   5  27
ATOM     27  O   UNL     1      -0.674  -0.220   1.593  0.00  0.00    -0.446 OA
BRANCH  27  28
ATOM     28  C   UNL     1       0.568  -0.705   1.778  0.00  0.00    +0.405 C 
ATOM     29  O   UNL     1       1.440   0.013   2.226  0.00  0.00    -0.226 OA
ATOM     30  N   UNL     1       0.845  -1.987   1.467  0.00  0.00    -0.251 N 
ATOM     31  H   UNL     1       0.167  -2.542   1.050  0.00  0.00    +0.158 HD
BRANCH  30  32
ATOM     32  C   UNL     1       2.112  -2.518   1.744  0.00  0.00    +0.044 A 
ATOM     33  C   UNL     1       3.244  -1.733   1.578  0.00  0.00    +0.073 A 
ATOM     34  C   UNL     1       4.497  -2.256   1.857  0.00  0.00    +0.167 A 
ATOM     35  C   UNL     1       4.620  -3.569   2.293  0.00  0.00    +0.204 A 
ATOM     36  C   UNL     1       3.486  -4.356   2.455  0.00  0.00    +0.167 A 
ATOM     37  C   UNL     1       2.233  -3.830   2.180  0.00  0.00    +0.073 A 
BRANCH  36  38
ATOM     38  O   UNL     1       3.605  -5.642   2.882  0.00  0.00    -0.491 OA
ATOM     39  C   UNL     1       2.398  -6.392   3.025  0.00  0.00    +0.277 C 
ENDBRANCH  36  38
BRANCH  35  40
ATOM     40  O   UNL     1       5.851  -4.085   2.563  0.00  0.00    -0.488 OA
ATOM     41  C   UNL     1       6.538  -4.723   1.484  0.00  0.00    +0.277 C 
ENDBRANCH  35  40
BRANCH  34  42
ATOM     42  O   UNL     1       5.606  -1.485   1.699  0.00  0.00    -0.491 OA
ATOM     43  C   UNL     1       5.406  -0.144   1.247  0.00  0.00    +0.277 C 
ENDBRANCH  34  42
ENDBRANCH  30  32
ENDBRANCH  27  28
ENDBRANCH   5  27
TORSDOF 11
