REMARK  Name = ZINC00893855
REMARK  6 active torsions:
REMARK  status: ('A' for Active; 'I' for Inactive)
REMARK    1  A    between atoms: C_1  and  C_2
REMARK    2  A    between atoms: C_6  and  C_15
REMARK    3  A    between atoms: C_13  and  C_14
REMARK    4  A    between atoms: C_15  and  C_17
REMARK    5  A    between atoms: C_15  and  N_28
REMARK    6  A    between atoms: N_21  and  C_22
REMARK                            x       y       z     vdW  Elec       q    Type
REMARK                         _______ _______ _______ _____ _____    ______ ____
ROOT
ATOM      1  C   UNL     1       1.968  -2.772   0.813  0.00  0.00    +0.179 C 
ENDROOT
BRANCH   1   7
ATOM      2  C   UNL     1       5.141   0.658   6.625  0.00  0.00    +0.044 C 
ATOM      3  C   UNL     1       3.944   0.018   5.970  0.00  0.00    -0.047 A 
ATOM      4  C   UNL     1       4.054  -0.487   4.705  0.00  0.00    +0.013 A 
ATOM      5  C   UNL     1       2.944  -1.081   4.097  0.00  0.00    -0.001 A 
ATOM      6  C   UNL     1       3.026  -1.632   2.743  0.00  0.00    +0.021 A 
ATOM      7  C   UNL     1       1.917  -2.196   2.205  0.00  0.00    +0.045 A 
ATOM      8  C   UNL     1       0.713  -2.240   2.941  0.00  0.00    +0.255 A 
ATOM      9  O   UNL     1      -0.273  -2.748   2.436  0.00  0.00    -0.268 OA
ATOM     10  N   UNL     1       0.630  -1.743   4.187  0.00  0.00    -0.322 N 
ATOM     11  H   UNL     1      -0.212  -1.794   4.667  0.00  0.00    +0.169 HD
ATOM     12  C   UNL     1       1.721  -1.156   4.791  0.00  0.00    +0.049 A 
ATOM     13  C   UNL     1       1.633  -0.635   6.078  0.00  0.00    +0.030 A 
ATOM     14  C   UNL     1       2.740  -0.054   6.657  0.00  0.00    -0.046 A 
ATOM     15  C   UNL     1       2.643   0.509   8.052  0.00  0.00    +0.044 C 
ENDBRANCH   1   7
BRANCH   1  16
ATOM     16  N   UNL     1       0.899  -2.180  -0.001  0.00  0.00    -0.315 N 
ATOM     17  C   UNL     1       0.892  -0.706   0.123  0.00  0.00    +0.111 C 
ATOM     18  C   UNL     1       0.368  -0.252  -1.259  0.00  0.00    +0.056 C 
ATOM     19  C   UNL     1       0.755  -1.407  -2.162  0.00  0.00    -0.025 A 
ATOM     20  C   UNL     1       1.066  -2.496  -1.355  0.00  0.00    +0.034 A 
ATOM     21  C   UNL     1       1.471  -3.688  -1.953  0.00  0.00    +0.023 A 
ATOM     22  C   UNL     1       1.554  -3.782  -3.327  0.00  0.00    +0.002 A 
ATOM     23  C   UNL     1       1.238  -2.695  -4.120  0.00  0.00    +0.000 A 
ATOM     24  C   UNL     1       0.838  -1.507  -3.534  0.00  0.00    +0.005 A 
ENDBRANCH   1  16
BRANCH   1  25
ATOM     25  C   UNL     1       1.778  -4.266   0.881  0.00  0.00    +0.177 A 
ATOM     26  N   UNL     1       0.654  -4.903   1.099  0.00  0.00    -0.111 NA
ATOM     27  N   UNL     1       0.903  -6.167   1.082  0.00  0.00    -0.023 NA
ATOM     28  N   UNL     1       2.158  -6.353   0.859  0.00  0.00    -0.044 NA
ATOM     29  N   UNL     1       2.730  -5.205   0.724  0.00  0.00    -0.224 N 
BRANCH  29  30
ATOM     30  C   UNL     1       4.151  -4.967   0.454  0.00  0.00    +0.111 C 
ATOM     31  C   UNL     1       4.534  -5.622  -0.875  0.00  0.00    +0.027 C 
ATOM     32  C   UNL     1       6.017  -5.374  -1.156  0.00  0.00    +0.002 C 
ATOM     33  C   UNL     1       6.858  -5.976  -0.029  0.00  0.00    +0.000 C 
ATOM     34  C   UNL     1       6.475  -5.321   1.299  0.00  0.00    +0.002 C 
ATOM     35  C   UNL     1       4.992  -5.569   1.581  0.00  0.00    +0.027 C 
ENDBRANCH  29  30
ENDBRANCH   1  25
TORSDOF 4
