REMARK  Name = ZINC40986290
REMARK  8 active torsions:
REMARK  status: ('A' for Active; 'I' for Inactive)
REMARK    1  A    between atoms: C_4  and  C_7
REMARK    2  A    between atoms: C_7  and  S_8
REMARK    3  A    between atoms: S_8  and  C_11
REMARK    4  A    between atoms: C_14  and  C_18
REMARK    5  A    between atoms: N_20  and  C_21
REMARK    6  A    between atoms: C_21  and  C_22
REMARK    7  A    between atoms: C_22  and  C_24
REMARK    8  A    between atoms: C_22  and  N_29
REMARK                            x       y       z     vdW  Elec       q    Type
REMARK                         _______ _______ _______ _____ _____    ______ ____
ROOT
ATOM      1  C   UNL     1       5.802  -1.845   1.361  0.00  0.00    +0.272 A 
ATOM      2  N   UNL     1       5.795  -3.146   1.145  0.00  0.00    -0.219 NA
ATOM      3  C   UNL     1       6.920  -3.840   1.134  0.00  0.00    +0.130 A 
ATOM      4  C   UNL     1       8.130  -3.172   1.356  0.00  0.00    +0.092 A 
ATOM      5  C   UNL     1       8.089  -1.790   1.582  0.00  0.00    +0.146 A 
ATOM      6  N   UNL     1       6.917  -1.175   1.570  0.00  0.00    -0.199 NA
ATOM      7 CL   UNL     1       9.551  -0.898   1.865  0.00  0.00    -0.061 Cl
ENDROOT
BRANCH   4   8
ATOM      8  C   UNL     1       9.413  -3.904   1.354  0.00  0.00    +0.248 C 
ATOM      9  O   UNL     1      10.454  -3.307   1.550  0.00  0.00    -0.270 OA
ATOM     10  N   UNL     1       9.431  -5.234   1.136  0.00  0.00    -0.312 N 
ATOM     11  H   UNL     1       8.600  -5.711   0.980  0.00  0.00    +0.149 HD
BRANCH  10  12
ATOM     12  C   UNL     1      10.703  -5.960   1.133  0.00  0.00    +0.097 C 
BRANCH  12  13
ATOM     13  C   UNL     1      10.435  -7.460   0.998  0.00  0.00    +0.016 C 
BRANCH  13  14
ATOM     14  N   UNL     1      11.711  -8.175   0.863  0.00  0.00    +0.387 N 
ATOM     15  C   UNL     1      11.468  -9.634   0.724  0.00  0.00    -0.078 C 
ATOM     16  C   UNL     1      12.764 -10.146   0.048  0.00  0.00    -0.020 C 
ATOM     17  C   UNL     1      13.116  -9.005  -0.934  0.00  0.00    -0.020 C 
ATOM     18  C   UNL     1      12.400  -7.761  -0.378  0.00  0.00    -0.078 C 
ATOM     19  H   UNL     1      12.297  -7.994   1.664  0.00  0.00    -0.081 HD
ENDBRANCH  13  14
BRANCH  13  20
ATOM     20  C   UNL     1       9.709  -7.953   2.223  0.00  0.00    +0.093 A 
ATOM     21  C   UNL     1       8.386  -8.179   2.315  0.00  0.00    +0.043 A 
ATOM     22  C   UNL     1       8.139  -8.630   3.632  0.00  0.00    +0.041 A 
ATOM     23  C   UNL     1       9.325  -8.652   4.266  0.00  0.00    +0.195 A 
ATOM     24  O   UNL     1      10.273  -8.247   3.405  0.00  0.00    -0.469 OA
ENDBRANCH  13  20
ENDBRANCH  12  13
ENDBRANCH  10  12
ENDBRANCH   4   8
BRANCH   1  25
ATOM     25  S   UNL     1       4.270  -0.974   1.363  0.00  0.00    +0.036 S 
ATOM     26  O   UNL     1       4.502   0.164   2.182  0.00  0.00    -0.166 OA
ATOM     27  O   UNL     1       3.301  -1.946   1.732  0.00  0.00    -0.166 OA
BRANCH  25  28
ATOM     28  C   UNL     1       4.021  -0.465  -0.360  0.00  0.00    +0.210 C 
BRANCH  28  32
ATOM     29  C   UNL     1       0.350   1.694  -0.692  0.00  0.00    +0.000 A 
ATOM     30  C   UNL     1       1.526   2.368  -0.419  0.00  0.00    +0.000 A 
ATOM     31  C   UNL     1       2.714   1.669  -0.312  0.00  0.00    +0.005 A 
ATOM     32  C   UNL     1       2.726   0.297  -0.476  0.00  0.00    -0.026 A 
ATOM     33  C   UNL     1       1.550  -0.377  -0.748  0.00  0.00    +0.005 A 
ATOM     34  C   UNL     1       0.362   0.322  -0.857  0.00  0.00    +0.000 A 
ENDBRANCH  28  32
ENDBRANCH  25  28
ENDBRANCH   1  25
TORSDOF 8
