REMARK  Name = ZINC06038720
REMARK  7 active torsions:
REMARK  status: ('A' for Active; 'I' for Inactive)
REMARK    1  A    between atoms: C_4  and  C_7
REMARK    2  A    between atoms: N_9  and  C_10
REMARK    3  A    between atoms: C_10  and  C_17
REMARK    4  A    between atoms: C_11  and  C_12
REMARK    5  A    between atoms: N_19  and  C_20
REMARK    6  A    between atoms: C_23  and  S_26
REMARK    7  A    between atoms: S_26  and  N_29
REMARK                            x       y       z     vdW  Elec       q    Type
REMARK                         _______ _______ _______ _____ _____    ______ ____
ROOT
ATOM      1  C   UNL     1       0.334   0.524  -0.155  0.00  0.00    +0.262 C 
ATOM      2  O   UNL     1       0.053  -0.246   0.745  0.00  0.00    -0.268 OA
ATOM      3  N   UNL     1      -0.400   0.536  -1.286  0.00  0.00    -0.280 N 
ATOM      4  H   UNL     1      -0.115   1.071  -2.043  0.00  0.00    +0.155 HD
ENDROOT
BRANCH   3   5
ATOM      5  C   UNL     1      -1.570  -0.225  -1.368  0.00  0.00    +0.034 A 
ATOM      6  C   UNL     1      -2.280  -0.535  -0.216  0.00  0.00    +0.025 A 
ATOM      7  C   UNL     1      -3.439  -1.282  -0.301  0.00  0.00    +0.030 A 
ATOM      8  C   UNL     1      -3.886  -1.729  -1.530  0.00  0.00    +0.109 A 
ATOM      9  C   UNL     1      -3.178  -1.427  -2.679  0.00  0.00    +0.030 A 
ATOM     10  C   UNL     1      -2.022  -0.676  -2.602  0.00  0.00    +0.025 A 
BRANCH   8  11
ATOM     11  S   UNL     1      -5.361  -2.687  -1.634  0.00  0.00    +0.074 S 
ATOM     12  O   UNL     1      -6.132  -2.372  -0.482  0.00  0.00    -0.150 OA
ATOM     13  O   UNL     1      -5.861  -2.522  -2.954  0.00  0.00    -0.150 OA
BRANCH  11  14
ATOM     14  N   UNL     1      -4.923  -4.278  -1.489  0.00  0.00    -0.194 N 
ATOM     15  C   UNL     1      -4.372  -4.740  -0.304  0.00  0.00    +0.177 A 
ATOM     16  N   UNL     1      -4.115  -4.074   0.806  0.00  0.00    -0.232 NA
ATOM     17  C   UNL     1      -3.586  -4.674   1.855  0.00  0.00    +0.120 A 
ATOM     18  C   UNL     1      -3.300  -5.995   1.768  0.00  0.00    +0.068 A 
ATOM     19  S   UNL     1      -3.836  -6.341   0.099  0.00  0.00    -0.059 S 
ATOM     20  H   UNL     1      -5.052  -4.886  -2.233  0.00  0.00    +0.176 HD
ENDBRANCH  11  14
ENDBRANCH   8  11
ENDBRANCH   3   5
BRANCH   1  21
ATOM     21  C   UNL     1       1.472   1.434  -0.012  0.00  0.00    +0.098 C 
ATOM     22  C   UNL     1       1.277   2.700   0.445  0.00  0.00    +0.043 C 
BRANCH  22  23
ATOM     23  C   UNL     1      -0.001   3.095   0.912  0.00  0.00    +0.014 A 
ATOM     24  C   UNL     1      -0.439   4.354   1.303  0.00  0.00    +0.015 A 
ATOM     25  C   UNL     1      -1.738   4.489   1.724  0.00  0.00    +0.008 A 
ATOM     26  C   UNL     1      -2.550   3.396   1.745  0.00  0.00    +0.046 A 
ATOM     27  S   UNL     1      -1.470   2.108   1.145  0.00  0.00    -0.097 S 
ENDBRANCH  22  23
BRANCH  21  30
ATOM     28  C   UNL     1       2.969  -0.282  -0.704  0.00  0.00    +0.248 C 
ATOM     29  O   UNL     1       2.026  -1.039  -0.830  0.00  0.00    -0.270 OA
ATOM     30  N   UNL     1       2.761   1.000  -0.345  0.00  0.00    -0.277 N 
ATOM     31  H   UNL     1       3.505   1.623  -0.317  0.00  0.00    +0.155 HD
BRANCH  28  35
ATOM     32  C   UNL     1       6.920  -1.678  -1.399  0.00  0.00    +0.000 A 
ATOM     33  C   UNL     1       5.849  -2.542  -1.542  0.00  0.00    +0.001 A 
ATOM     34  C   UNL     1       4.563  -2.095  -1.318  0.00  0.00    +0.013 A 
ATOM     35  C   UNL     1       4.344  -0.768  -0.946  0.00  0.00    +0.037 A 
ATOM     36  C   UNL     1       5.429   0.100  -0.808  0.00  0.00    +0.013 A 
ATOM     37  C   UNL     1       6.710  -0.361  -1.030  0.00  0.00    +0.001 A 
ENDBRANCH  28  35
ENDBRANCH  21  30
ENDBRANCH   1  21
TORSDOF 7
