REMARK  Name = ZINC62545707
REMARK  5 active torsions:
REMARK  status: ('A' for Active; 'I' for Inactive)
REMARK    1  A    between atoms: C_1  and  C_2
REMARK    2  A    between atoms: C_2  and  C_4
REMARK    3  A    between atoms: C_8  and  S_10
REMARK    4  A    between atoms: S_10  and  N_13
REMARK    5  A    between atoms: C_17  and  C_20
REMARK                            x       y       z     vdW  Elec       q    Type
REMARK                         _______ _______ _______ _____ _____    ______ ____
ROOT
ATOM      1  N   UNL     1      -2.427  -5.104  -1.569  0.00  0.00    -0.111 NA
ATOM      2  C   UNL     1      -2.417  -6.387  -1.862  0.00  0.00    +0.153 A 
ATOM      3  C   UNL     1      -2.417  -6.806  -3.214  0.00  0.00    +0.048 A 
ATOM      4  C   UNL     1      -2.407  -8.132  -3.500  0.00  0.00    +0.013 A 
ATOM      5  C   UNL     1      -2.396  -9.075  -2.444  0.00  0.00    -0.002 A 
ATOM      6  C   UNL     1      -2.397  -8.652  -1.150  0.00  0.00    +0.093 A 
ATOM      7  N   UNL     1      -2.402  -7.323  -0.856  0.00  0.00    -0.345 N 
ATOM      8  H   UNL     1      -2.399  -7.035   0.070  0.00  0.00    +0.167 HD
ENDROOT
BRANCH   5   9
ATOM      9  C   UNL     1      -2.385 -10.526  -2.748  0.00  0.00    -0.017 A 
ATOM     10  C   UNL     1      -1.287 -11.099  -3.388  0.00  0.00    +0.008 A 
ATOM     11  C   UNL     1      -1.282 -12.450  -3.668  0.00  0.00    +0.001 A 
ATOM     12  C   UNL     1      -2.365 -13.236  -3.315  0.00  0.00    +0.000 A 
ATOM     13  C   UNL     1      -3.457 -12.673  -2.680  0.00  0.00    +0.001 A 
ATOM     14  C   UNL     1      -3.471 -11.324  -2.390  0.00  0.00    +0.008 A 
ENDBRANCH   5   9
BRANCH   1  15
ATOM     15  S   UNL     1      -2.421  -4.616   0.014  0.00  0.00    +0.101 S 
ATOM     16  O   UNL     1      -1.168  -5.011   0.555  0.00  0.00    -0.146 OA
ATOM     17  O   UNL     1      -3.658  -5.034   0.573  0.00  0.00    -0.146 OA
BRANCH  15  22
ATOM     18  C   UNL     1      -1.262  -0.757   0.010  0.00  0.00    +0.019 A 
ATOM     19  C   UNL     1      -2.485  -0.078   0.019  0.00  0.00    +0.011 A 
ATOM     20  C   UNL     1      -3.665  -0.791   0.026  0.00  0.00    +0.003 A 
ATOM     21  C   UNL     1      -3.642  -2.175   0.024  0.00  0.00    +0.029 A 
ATOM     22  C   UNL     1      -2.437  -2.854   0.015  0.00  0.00    +0.113 A 
ATOM     23  C   UNL     1      -1.248  -2.155   0.002  0.00  0.00    +0.040 A 
BRANCH  18  25
ATOM     24  C   UNL     1      -0.018   1.503   0.010  0.00  0.00    +0.091 C 
ATOM     25  C   UNL     1       0.002  -0.004   0.002  0.00  0.00    +0.160 C 
ATOM     26  O   UNL     1       1.060  -0.596  -0.011  0.00  0.00    -0.292 OA
ENDBRANCH  18  25
ENDBRANCH  15  22
ENDBRANCH   1  15
TORSDOF 4
