REMARK  Name = ZINC32960859
REMARK  8 active torsions:
REMARK  status: ('A' for Active; 'I' for Inactive)
REMARK    1  A    between atoms: C_6  and  S_7
REMARK    2  A    between atoms: S_7  and  N_10
REMARK    3  A    between atoms: N_10  and  C_11
REMARK    4  A    between atoms: C_11  and  C_12
REMARK    5  A    between atoms: C_12  and  C_13
REMARK    6  A    between atoms: N_15  and  C_16
REMARK    7  A    between atoms: C_16  and  C_17
REMARK    8  A    between atoms: C_17  and  N_23
REMARK                            x       y       z     vdW  Elec       q    Type
REMARK                         _______ _______ _______ _____ _____    ______ ____
ROOT
ATOM      1  C   UNL     1      -3.449   7.742  -2.593  0.00  0.00    +0.214 C 
ATOM      2  O   UNL     1      -2.382   7.460  -2.092  0.00  0.00    -0.276 OA
ATOM      3  N   UNL     1      -3.661   7.509  -3.903  0.00  0.00    -0.317 N 
ATOM      4  H   UNL     1      -4.629   7.766  -4.358  0.00  0.00    +0.149 HD
ENDROOT
BRANCH   1   5
ATOM      5  C   UNL     1      -4.538   8.355  -1.751  0.00  0.00    +0.112 C 
BRANCH   5   6
ATOM      6  C   UNL     1      -4.043   8.512  -0.312  0.00  0.00    +0.115 C 
BRANCH   6   7
ATOM      7  N   UNL     1      -5.102   9.107   0.507  0.00  0.00    -0.189 NA
ATOM      8  H   UNL     1      -5.878   9.728   0.036  0.00  0.00    +0.148 HD
BRANCH   7   9
ATOM      9  S   UNL     1      -4.998   9.057   2.159  0.00  0.00    +0.058 S 
ATOM     10  O   UNL     1      -6.146   9.731   2.659  0.00  0.00    -0.153 OA
ATOM     11  O   UNL     1      -4.693   7.713   2.506  0.00  0.00    -0.153 OA
BRANCH   9  17
ATOM     12  C   UNL     1      -2.358   9.435   2.738  0.00  0.00    +0.029 A 
ATOM     13  C   UNL     1      -1.262  10.197   3.097  0.00  0.00    +0.017 A 
ATOM     14  C   UNL     1      -1.412  11.548   3.353  0.00  0.00    +0.018 A 
ATOM     15  C   UNL     1      -2.659  12.137   3.244  0.00  0.00    +0.017 A 
ATOM     16  C   UNL     1      -3.753  11.377   2.879  0.00  0.00    +0.029 A 
ATOM     17  C   UNL     1      -3.603  10.026   2.623  0.00  0.00    +0.105 A 
ATOM     18 BR   UNL     1       0.086  12.588   3.852  0.00  0.00    -0.050 Br
ENDBRANCH   9  17
ENDBRANCH   7   9
ENDBRANCH   6   7
ENDBRANCH   5   6
ENDBRANCH   1   5
BRANCH   3  19
ATOM     19  C   UNL     1      -2.602   6.914  -4.722  0.00  0.00    +0.092 C 
BRANCH  19  20
ATOM     20  C   UNL     1      -3.064   6.842  -6.179  0.00  0.00    -0.050 C 
ATOM     21  C   UNL     1      -2.015   6.099  -7.010  0.00  0.00    -0.010 C 
ATOM     22  C   UNL     1      -0.682   6.846  -6.934  0.00  0.00    -0.001 C 
ATOM     23  C   UNL     1      -0.858   8.263  -7.483  0.00  0.00    -0.000 C 
ATOM     24  C   UNL     1      -1.906   9.005  -6.652  0.00  0.00    -0.001 C 
ATOM     25  C   UNL     1      -3.240   8.259  -6.729  0.00  0.00    -0.010 C 
BRANCH  20  26
ATOM     26  N   UNL     1      -4.344   6.126  -6.253  0.00  0.00    +0.384 N 
ATOM     27  C   UNL     1      -4.230   4.783  -5.668  0.00  0.00    -0.078 C 
ATOM     28  C   UNL     1      -5.611   4.124  -5.630  0.00  0.00    -0.019 C 
ATOM     29  C   UNL     1      -6.169   4.035  -7.053  0.00  0.00    -0.004 C 
ATOM     30  C   UNL     1      -6.232   5.442  -7.656  0.00  0.00    -0.019 C 
ATOM     31  C   UNL     1      -4.833   6.063  -7.636  0.00  0.00    -0.078 C 
ATOM     32  H   UNL     1      -5.082   6.688  -5.661  0.00  0.00    -0.081 HD
ENDBRANCH  20  26
ENDBRANCH  19  20
ENDBRANCH   3  19
TORSDOF 8
