REMARK  Name = ZINC34759772
REMARK  11 active torsions:
REMARK  status: ('A' for Active; 'I' for Inactive)
REMARK    1  A    between atoms: C_1  and  C_2
REMARK    2  A    between atoms: C_2  and  N_3
REMARK    3  A    between atoms: N_3  and  C_4
REMARK    4  A    between atoms: C_4  and  C_5
REMARK    5  A    between atoms: C_6  and  C_8
REMARK    6  A    between atoms: C_8  and  S_9
REMARK    7  A    between atoms: S_9  and  C_10
REMARK    8  A    between atoms: C_14  and  C_20
REMARK    9  A    between atoms: C_15  and  C_19
REMARK   10  A    between atoms: N_24  and  C_27
REMARK   11  A    between atoms: C_27  and  C_28
REMARK                            x       y       z     vdW  Elec       q    Type
REMARK                         _______ _______ _______ _____ _____    ______ ____
ROOT
ATOM      1  C   UNL     1      -1.305  -0.957   5.253  0.00  0.00    +0.191 A 
ATOM      2  N   UNL     1      -1.811  -1.210   6.455  0.00  0.00    -0.206 NA
ATOM      3  C   UNL     1      -1.118  -1.014   7.564  0.00  0.00    +0.134 A 
ATOM      4  C   UNL     1       0.212  -0.517   7.476  0.00  0.00    +0.051 A 
ATOM      5  C   UNL     1       1.165  -0.224   8.533  0.00  0.00    -0.028 A 
ATOM      6  C   UNL     1       2.379   0.242   8.210  0.00  0.00    -0.008 A 
ATOM      7  S   UNL     1       2.334   0.323   6.430  0.00  0.00    -0.073 S 
ATOM      8  C   UNL     1       0.684  -0.272   6.168  0.00  0.00    +0.115 A 
ATOM      9  N   UNL     1      -0.069  -0.499   5.110  0.00  0.00    -0.214 NA
ATOM     10  C   UNL     1       3.513   0.611   9.132  0.00  0.00    +0.052 C 
ATOM     11  C   UNL     1       0.791  -0.440   9.977  0.00  0.00    +0.045 C 
ATOM     12  N   UNL     1      -1.681  -1.288   8.797  0.00  0.00    -0.318 N 
ATOM     13  C   UNL     1      -2.555  -0.311   9.464  0.00  0.00    +0.088 C 
ATOM     14  C   UNL     1      -3.845  -1.022   9.887  0.00  0.00    -0.059 C 
ATOM     15  N   UNL     1      -3.510  -2.194  10.706  0.00  0.00    +0.387 N 
ATOM     16  C   UNL     1      -2.767  -3.171   9.901  0.00  0.00    -0.059 C 
ATOM     17  C   UNL     1      -1.428  -2.569   9.476  0.00  0.00    +0.088 C 
ATOM     18  H   UNL     1      -2.943  -1.905  11.490  0.00  0.00    -0.081 HD
ENDROOT
BRANCH   1  19
ATOM     19  S   UNL     1      -2.293  -1.244   3.822  0.00  0.00    -0.077 S 
BRANCH  19  20
ATOM     20  C   UNL     1      -1.211  -0.778   2.442  0.00  0.00    +0.173 C 
BRANCH  20  22
ATOM     21  N   UNL     1      -1.332  -0.696  -0.027  0.00  0.00    -0.301 N 
ATOM     22  C   UNL     1      -1.943  -0.979   1.140  0.00  0.00    +0.226 C 
ATOM     23  O   UNL     1      -3.083  -1.395   1.143  0.00  0.00    -0.275 OA
BRANCH  21  25
ATOM     24  C   UNL     1       0.029   1.335   0.038  0.00  0.00    +0.024 C 
ATOM     25  C   UNL     1       0.044  -0.193  -0.030  0.00  0.00    +0.104 C 
ENDBRANCH  21  25
BRANCH  21  26
ATOM     26  C   UNL     1      -2.044  -0.891  -1.292  0.00  0.00    +0.104 C 
ATOM     27  C   UNL     1      -1.798  -2.312  -1.803  0.00  0.00    +0.024 C 
ENDBRANCH  21  26
ENDBRANCH  20  22
ENDBRANCH  19  20
ENDBRANCH   1  19
BRANCH  15  28
ATOM     28  C   UNL     1      -4.747  -2.811  11.203  0.00  0.00    +0.019 C 
BRANCH  28  29
ATOM     29  C   UNL     1      -4.404  -3.939  12.142  0.00  0.00    +0.199 C 
ATOM     30  O   UNL     1      -3.243  -4.202  12.375  0.00  0.00    -0.278 OA
ATOM     31  N   UNL     1      -5.387  -4.654  12.723  0.00  0.00    -0.303 N 
ATOM     32  C   UNL     1      -6.829  -4.448  12.526  0.00  0.00    +0.108 C 
ATOM     33  C   UNL     1      -7.565  -5.478  13.408  0.00  0.00    +0.020 C 
ATOM     34  C   UNL     1      -6.505  -5.833  14.485  0.00  0.00    +0.020 C 
ATOM     35  C   UNL     1      -5.194  -5.779  13.658  0.00  0.00    +0.108 C 
ENDBRANCH  28  29
ENDBRANCH  15  28
TORSDOF 7
