REMARK  Name = ZINC39997437
REMARK  6 active torsions:
REMARK  status: ('A' for Active; 'I' for Inactive)
REMARK    1  A    between atoms: C_1  and  C_2
REMARK    2  A    between atoms: C_5  and  C_8
REMARK    3  A    between atoms: C_8  and  S_9
REMARK    4  A    between atoms: S_9  and  C_10
REMARK    5  A    between atoms: C_11  and  C_16
REMARK    6  A    between atoms: C_21  and  N_24
REMARK                            x       y       z     vdW  Elec       q    Type
REMARK                         _______ _______ _______ _____ _____    ______ ____
ROOT
ATOM      1  C   UNL     1       4.386  -6.538   0.649  0.00  0.00    +0.249 C 
ATOM      2  O   UNL     1       3.984  -5.662   1.391  0.00  0.00    -0.270 OA
ATOM      3  N   UNL     1       4.934  -7.657   1.161  0.00  0.00    -0.297 N 
ATOM      4  C   UNL     1       5.543  -8.664   0.281  0.00  0.00    +0.110 C 
ATOM      5  C   UNL     1       6.972  -8.938   0.759  0.00  0.00    +0.044 C 
ATOM      6  C   UNL     1       6.944  -9.331   2.237  0.00  0.00    +0.095 C 
ATOM      7  C   UNL     1       6.372  -8.177   3.063  0.00  0.00    +0.044 C 
ATOM      8  C   UNL     1       4.941  -7.891   2.612  0.00  0.00    +0.110 C 
ENDROOT
BRANCH   6   9
ATOM      9  N   UNL     1       8.306  -9.627   2.690  0.00  0.00    -0.289 N 
ATOM     10  C   UNL     1       8.749 -10.844   3.202  0.00  0.00    +0.070 A 
ATOM     11  C   UNL     1       8.127 -12.061   3.435  0.00  0.00    +0.028 A 
ATOM     12  C   UNL     1       8.849 -13.111   3.966  0.00  0.00    +0.002 A 
ATOM     13  C   UNL     1      10.191 -12.955   4.266  0.00  0.00    +0.002 A 
ATOM     14  C   UNL     1      10.819 -11.746   4.037  0.00  0.00    +0.028 A 
ATOM     15  C   UNL     1      10.103 -10.686   3.504  0.00  0.00    +0.067 A 
ATOM     16  N   UNL     1      10.441  -9.377   3.166  0.00  0.00    -0.306 N 
ATOM     17  H   UNL     1      11.317  -8.974   3.264  0.00  0.00    +0.170 HD
ATOM     18  C   UNL     1       9.344  -8.769   2.676  0.00  0.00    +0.328 A 
ATOM     19  O   UNL     1       9.298  -7.619   2.282  0.00  0.00    -0.247 OA
ENDBRANCH   6   9
BRANCH   1  21
ATOM     20  C   UNL     1       4.796  -5.235  -1.448  0.00  0.00    +0.109 A 
ATOM     21  C   UNL     1       4.272  -6.375  -0.812  0.00  0.00    +0.069 A 
ATOM     22  C   UNL     1       3.641  -7.351  -1.591  0.00  0.00    +0.017 A 
ATOM     23  C   UNL     1       3.561  -7.151  -2.957  0.00  0.00    +0.020 A 
ATOM     24  C   UNL     1       4.100  -6.004  -3.511  0.00  0.00    +0.112 A 
ATOM     25  N   UNL     1       4.686  -5.093  -2.761  0.00  0.00    -0.248 NA
BRANCH  20  26
ATOM     26  S   UNL     1       5.595  -3.988  -0.494  0.00  0.00    -0.099 S 
BRANCH  26  27
ATOM     27  C   UNL     1       6.084  -2.744  -1.720  0.00  0.00    +0.130 C 
BRANCH  27  31
ATOM     28  C   UNL     1       8.862   1.399  -0.690  0.00  0.00    +0.055 C 
ATOM     29  C   UNL     1       7.576   0.590  -0.509  0.00  0.00    +0.207 C 
ATOM     30  C   UNL     1       7.351  -0.370  -1.702  0.00  0.00    +0.102 C 
ATOM     31  C   UNL     1       6.788  -1.606  -1.028  0.00  0.00    +0.071 C 
ATOM     32  N   UNL     1       7.011  -1.519   0.226  0.00  0.00    -0.093 NA
ATOM     33  O   UNL     1       7.699  -0.338   0.589  0.00  0.00    -0.390 OA
ENDBRANCH  27  31
ENDBRANCH  26  27
ENDBRANCH  20  26
ENDBRANCH   1  21
TORSDOF 5
