REMARK  Name = ZINC14459378
REMARK  7 active torsions:
REMARK  status: ('A' for Active; 'I' for Inactive)
REMARK    1  A    between atoms: C_1  and  O_2
REMARK    2  A    between atoms: O_2  and  C_3
REMARK    3  A    between atoms: C_5  and  C_10
REMARK    4  A    between atoms: C_8  and  O_9
REMARK    5  A    between atoms: C_23  and  O_26
REMARK    6  A    between atoms: O_26  and  C_27
REMARK    7  A    between atoms: C_27  and  C_28
REMARK                            x       y       z     vdW  Elec       q    Type
REMARK                         _______ _______ _______ _____ _____    ______ ____
ROOT
ATOM      1  C   UNL     1       0.075   0.787  -2.405  0.00  0.00    +0.105 C 
ATOM      2  C   UNL     1      -0.662   1.559  -1.330  0.00  0.00    +0.029 C 
ATOM      3  C   UNL     1      -2.104   1.160  -0.998  0.00  0.00    +0.033 C 
ATOM      4  C   UNL     1      -2.198   1.556   0.478  0.00  0.00    -0.030 C 
ATOM      5  C   UNL     1      -1.005   1.529   1.017  0.00  0.00    -0.023 C 
ATOM      6  C   UNL     1      -0.013   1.086   0.008  0.00  0.00    +0.049 C 
ATOM      7  C   UNL     1       1.386   1.567  -0.003  0.00  0.00    -0.016 A 
ATOM      8  C   UNL     1       2.035   1.938   1.158  0.00  0.00    +0.006 A 
ATOM      9  C   UNL     1       3.347   2.369   1.123  0.00  0.00    +0.004 A 
ATOM     10  C   UNL     1       4.016   2.429  -0.086  0.00  0.00    +0.047 A 
ATOM     11  C   UNL     1       3.374   2.066  -1.253  0.00  0.00    +0.142 A 
ATOM     12  C   UNL     1       2.042   1.634  -1.233  0.00  0.00    +0.074 A 
ATOM     13  N   UNL     1       1.447   1.318  -2.455  0.00  0.00    -0.334 N 
ATOM     14  H   UNL     1       1.512   2.091  -3.100  0.00  0.00    +0.147 HD
ENDROOT
BRANCH   1  17
ATOM     15  C   UNL     1      -2.037   0.176  -5.477  0.00  0.00    +0.162 A 
ATOM     16  C   UNL     1      -1.415  -0.005  -4.253  0.00  0.00    +0.054 A 
ATOM     17  C   UNL     1      -0.602   0.987  -3.737  0.00  0.00    -0.023 A 
ATOM     18  C   UNL     1      -0.412   2.163  -4.438  0.00  0.00    +0.009 A 
ATOM     19  C   UNL     1      -1.026   2.349  -5.663  0.00  0.00    +0.049 A 
ATOM     20  C   UNL     1      -1.842   1.358  -6.185  0.00  0.00    +0.158 A 
BRANCH  15  22
ATOM     21  C   UNL     1      -2.991  -1.985  -5.205  0.00  0.00    +0.277 C 
ATOM     22  O   UNL     1      -2.837  -0.799  -5.986  0.00  0.00    -0.491 OA
ENDBRANCH  15  22
BRANCH  20  23
ATOM     23  O   UNL     1      -2.451   1.541  -7.388  0.00  0.00    -0.503 OA
ATOM     24  H   UNL     1      -3.324   1.953  -7.328  0.00  0.00    +0.292 HD
ENDBRANCH  20  23
ENDBRANCH   1  17
BRANCH  11  25
ATOM     25  O   UNL     1       4.043   2.127  -2.436  0.00  0.00    -0.488 OA
BRANCH  25  26
ATOM     26  C   UNL     1       5.399   2.576  -2.392  0.00  0.00    +0.260 C 
BRANCH  26  27
ATOM     27  C   UNL     1       5.981   2.579  -3.807  0.00  0.00    +0.156 C 
ATOM     28  C   UNL     1       7.479   2.952  -3.756  0.00  0.00    +0.037 C 
ATOM     29  C   UNL     1       7.636   3.857  -5.008  0.00  0.00    +0.031 C 
ATOM     30  C   UNL     1       6.257   4.564  -5.035  0.00  0.00    +0.160 C 
ATOM     31  O   UNL     1       5.316   3.567  -4.604  0.00  0.00    -0.373 OA
ENDBRANCH  26  27
ENDBRANCH  25  26
ENDBRANCH  11  25
TORSDOF 6
