REMARK  Name = ZINC49421764
REMARK  8 active torsions:
REMARK  status: ('A' for Active; 'I' for Inactive)
REMARK    1  A    between atoms: C_1  and  C_2
REMARK    2  A    between atoms: C_2  and  O_3
REMARK    3  A    between atoms: O_3  and  C_4
REMARK    4  A    between atoms: C_7  and  C_10
REMARK    5  A    between atoms: C_13  and  C_15
REMARK    6  A    between atoms: C_16  and  N_28
REMARK    7  A    between atoms: N_17  and  C_20
REMARK    8  A    between atoms: C_23  and  C_27
REMARK                            x       y       z     vdW  Elec       q    Type
REMARK                         _______ _______ _______ _____ _____    ______ ____
ROOT
ATOM      1  C   UNL     1       0.193  -9.228  -0.199  0.00  0.00    +0.159 A 
ATOM      2  C   UNL     1       0.336 -10.588  -0.412  0.00  0.00    +0.150 A 
ATOM      3  N   UNL     1      -0.269 -11.207   0.643  0.00  0.00    -0.198 N 
ATOM      4  N   UNL     1      -0.765 -10.191   1.472  0.00  0.00    -0.058 NA
ATOM      5  N   UNL     1      -0.473  -9.051   0.954  0.00  0.00    -0.125 NA
ENDROOT
BRANCH   3   6
ATOM      6  C   UNL     1      -0.374 -12.588   0.856  0.00  0.00    +0.072 A 
ATOM      7  C   UNL     1      -0.526 -13.449  -0.223  0.00  0.00    +0.028 A 
ATOM      8  C   UNL     1      -0.629 -14.810  -0.011  0.00  0.00    +0.008 A 
ATOM      9  C   UNL     1      -0.580 -15.317   1.274  0.00  0.00    -0.015 A 
ATOM     10  C   UNL     1      -0.428 -14.463   2.353  0.00  0.00    +0.128 A 
ATOM     11  C   UNL     1      -0.320 -13.099   2.145  0.00  0.00    +0.066 A 
ATOM     12  F   UNL     1      -0.381 -14.961   3.607  0.00  0.00    -0.205 F 
ATOM     13  C   UNL     1      -0.693 -16.803   1.501  0.00  0.00    +0.047 C 
ENDBRANCH   3   6
BRANCH   1  17
ATOM     14  C   UNL     1       1.109  -6.020  -1.844  0.00  0.00    +0.079 A 
ATOM     15  C   UNL     1       1.746  -6.535  -2.940  0.00  0.00    +0.075 A 
ATOM     16  S   UNL     1       1.584  -8.288  -2.627  0.00  0.00    -0.073 S 
ATOM     17  C   UNL     1       0.693  -8.157  -1.083  0.00  0.00    +0.132 A 
ATOM     18  N   UNL     1       0.603  -6.843  -0.941  0.00  0.00    -0.237 NA
BRANCH  14  22
ATOM     19  C   UNL     1       0.777  -1.810  -1.336  0.00  0.00    +0.121 A 
ATOM     20  C   UNL     1       0.241  -2.667  -0.384  0.00  0.00    +0.046 A 
ATOM     21  C   UNL     1       0.348  -4.033  -0.546  0.00  0.00    +0.013 A 
ATOM     22  C   UNL     1       0.993  -4.552  -1.667  0.00  0.00    +0.001 A 
ATOM     23  C   UNL     1       1.529  -3.689  -2.621  0.00  0.00    +0.013 A 
ATOM     24  C   UNL     1       1.415  -2.324  -2.457  0.00  0.00    +0.046 A 
BRANCH  19  25
ATOM     25  O   UNL     1       0.671  -0.465  -1.174  0.00  0.00    -0.492 OA
BRANCH  25  27
ATOM     26  C   UNL     1      -0.019   1.526   0.010  0.00  0.00    +0.048 C 
ATOM     27  C   UNL     1       0.002  -0.004   0.002  0.00  0.00    +0.225 C 
ENDBRANCH  25  27
ENDBRANCH  19  25
ENDBRANCH  14  22
ENDBRANCH   1  17
BRANCH   2  28
ATOM     28  N   UNL     1       0.968 -11.200  -1.484  0.00  0.00    -0.341 N 
ATOM     29  H   UNL     1       1.368 -10.661  -2.183  0.00  0.00    +0.144 HD
ATOM     30  H   UNL     1       1.010 -12.168  -1.534  0.00  0.00    +0.144 HD
ENDBRANCH   2  28
TORSDOF 6
