REMARK  Name = ZINC09716037
REMARK  9 active torsions:
REMARK  status: ('A' for Active; 'I' for Inactive)
REMARK    1  A    between atoms: C_1  and  C_2
REMARK    2  A    between atoms: C_7  and  N_8
REMARK    3  A    between atoms: C_11  and  C_16
REMARK    4  A    between atoms: C_16  and  S_17
REMARK    5  A    between atoms: S_17  and  C_18
REMARK    6  A    between atoms: C_22  and  C_26
REMARK    7  A    between atoms: C_23  and  C_25
REMARK    8  A    between atoms: N_29  and  C_30
REMARK    9  A    between atoms: C_30  and  C_31
REMARK                            x       y       z     vdW  Elec       q    Type
REMARK                         _______ _______ _______ _____ _____    ______ ____
ROOT
ATOM      1  N   UNL     1      -4.253   6.500   2.405  0.00  0.00    -0.283 N 
ATOM      2  C   UNL     1      -3.716   6.084   1.202  0.00  0.00    +0.224 A 
ATOM      3  N   UNL     1      -2.660   5.274   1.189  0.00  0.00    -0.198 NA
ATOM      4  C   UNL     1      -2.146   4.874   0.039  0.00  0.00    +0.146 A 
ATOM      5  N   UNL     1      -2.675   5.281  -1.102  0.00  0.00    -0.199 NA
ATOM      6  C   UNL     1      -3.734   6.087  -1.097  0.00  0.00    +0.217 A 
ATOM      7  N   UNL     1      -4.254   6.491   0.057  0.00  0.00    -0.181 NA
ATOM      8  N   UNL     1      -4.288   6.507  -2.289  0.00  0.00    -0.327 N 
ATOM      9  H   UNL     1      -3.917   6.137   3.238  0.00  0.00    +0.155 HD
ATOM     10  H   UNL     1      -5.058   7.097  -2.284  0.00  0.00    +0.145 HD
ATOM     11  H   UNL     1      -3.908   6.212  -3.131  0.00  0.00    +0.145 HD
ENDROOT
BRANCH   1  18
ATOM     12  C   UNL     1      -6.002   6.546   4.649  0.00  0.00    +0.045 C 
ATOM     13  C   UNL     1      -6.160   7.504   3.496  0.00  0.00    -0.029 A 
ATOM     14  C   UNL     1      -7.175   8.440   3.508  0.00  0.00    +0.005 A 
ATOM     15  C   UNL     1      -7.320   9.319   2.451  0.00  0.00    +0.000 A 
ATOM     16  C   UNL     1      -6.449   9.264   1.378  0.00  0.00    +0.002 A 
ATOM     17  C   UNL     1      -5.428   8.335   1.362  0.00  0.00    +0.023 A 
ATOM     18  C   UNL     1      -5.283   7.447   2.420  0.00  0.00    +0.036 A 
ENDBRANCH   1  18
BRANCH   4  19
ATOM     19  C   UNL     1      -0.951   3.957   0.029  0.00  0.00    +0.153 C 
BRANCH  19  20
ATOM     20  S   UNL     1      -1.511   2.236   0.031  0.00  0.00    -0.080 S 
BRANCH  20  21
ATOM     21  C   UNL     1       0.045   1.408   0.018  0.00  0.00    +0.173 A 
ATOM     22  N   UNL     1       1.157   2.114   0.005  0.00  0.00    -0.216 NA
ATOM     23  C   UNL     1       2.343   1.518  -0.011  0.00  0.00    +0.117 A 
ATOM     24  C   UNL     1       2.474   0.116  -0.014  0.00  0.00    +0.075 A 
ATOM     25  C   UNL     1       3.843  -0.370  -0.031  0.00  0.00    -0.026 A 
ATOM     26  C   UNL     1       4.852   0.513  -0.042  0.00  0.00    -0.008 A 
ATOM     27  S   UNL     1       4.022   2.090  -0.030  0.00  0.00    -0.073 S 
ATOM     28  C   UNL     1       6.334   0.237  -0.060  0.00  0.00    +0.052 C 
ATOM     29  C   UNL     1       4.125  -1.851  -0.037  0.00  0.00    +0.045 C 
ATOM     30  C   UNL     1       1.250  -0.624   0.000  0.00  0.00    +0.263 A 
ATOM     31  O   UNL     1       1.265  -1.843  -0.001  0.00  0.00    -0.267 OA
ATOM     32  N   UNL     1       0.081   0.043   0.016  0.00  0.00    -0.283 N 
BRANCH  32  33
ATOM     33  C   UNL     1      -1.175  -0.709   0.030  0.00  0.00    +0.154 C 
BRANCH  33  34
ATOM     34  C   UNL     1      -1.623  -0.965  -1.386  0.00  0.00    -0.013 C 
ATOM     35  C   UNL     1      -1.865  -2.189  -1.785  0.00  0.00    +0.005 C 
ENDBRANCH  33  34
ENDBRANCH  32  33
ENDBRANCH  20  21
ENDBRANCH  19  20
ENDBRANCH   4  19
TORSDOF 6
