REMARK  Name = ZINC15229118
REMARK  7 active torsions:
REMARK  status: ('A' for Active; 'I' for Inactive)
REMARK    1  A    between atoms: C_1  and  C_2
REMARK    2  A    between atoms: N_7  and  C_9
REMARK    3  A    between atoms: C_9  and  C_10
REMARK    4  A    between atoms: C_10  and  C_24
REMARK    5  A    between atoms: C_21  and  O_23
REMARK    6  A    between atoms: C_24  and  N_25
REMARK    7  A    between atoms: C_29  and  C_32
REMARK                            x       y       z     vdW  Elec       q    Type
REMARK                         _______ _______ _______ _____ _____    ______ ____
ROOT
ATOM      1  C   UNL     1       1.607  -3.739   2.603  0.00  0.00    +0.033 C 
ATOM      2  C   UNL     1       0.274  -4.496   2.548  0.00  0.00    +0.238 C 
ATOM      3  O   UNL     1      -0.598  -3.807   1.650  0.00  0.00    -0.490 OA
ATOM      4  C   UNL     1      -0.112  -3.470   0.427  0.00  0.00    +0.140 A 
ATOM      5  C   UNL     1       1.246  -3.448   0.163  0.00  0.00    +0.025 A 
ATOM      6  C   UNL     1       1.697  -3.092  -1.097  0.00  0.00    +0.025 A 
ATOM      7  C   UNL     1       0.797  -2.763  -2.094  0.00  0.00    +0.019 A 
ATOM      8  C   UNL     1      -0.561  -2.788  -1.834  0.00  0.00    +0.034 A 
ATOM      9  C   UNL     1      -1.016  -3.140  -0.578  0.00  0.00    +0.061 A 
ATOM     10 BR   UNL     1      -2.873  -3.173  -0.224  0.00  0.00    -0.046 Br
ATOM     11 BR   UNL     1       1.423  -2.278  -3.811  0.00  0.00    -0.050 Br
ATOM     12  C   UNL     1       2.258  -3.811   1.220  0.00  0.00    +0.157 C 
ENDROOT
BRANCH  12  13
ATOM     13  O   UNL     1       2.735  -5.138   0.987  0.00  0.00    -0.386 OA
ATOM     14  H   UNL     1       3.160  -5.258   0.127  0.00  0.00    +0.210 HD
ENDBRANCH  12  13
BRANCH   1  15
ATOM     15  C   UNL     1       1.355  -2.278   2.979  0.00  0.00    -0.064 C 
BRANCH  15  21
ATOM     16  C   UNL     1      -1.866   0.390   5.524  0.00  0.00    +0.005 C 
ATOM     17  C   UNL     1      -1.089  -0.928   5.487  0.00  0.00    -0.031 C 
ATOM     18  C   UNL     1      -0.218  -1.043   6.742  0.00  0.00    -0.001 C 
ATOM     19  C   UNL     1       0.614  -2.326   6.658  0.00  0.00    -0.018 C 
ATOM     20  C   UNL     1       1.446  -2.304   5.375  0.00  0.00    -0.079 C 
ATOM     21  N   UNL     1       0.556  -2.220   4.211  0.00  0.00    +0.380 N 
ATOM     22  C   UNL     1      -0.194  -0.958   4.246  0.00  0.00    -0.076 C 
ATOM     23  H   UNL     1      -0.090  -2.994   4.226  0.00  0.00    -0.082 HD
ENDBRANCH  15  21
ENDBRANCH   1  15
BRANCH   1  24
ATOM     24  C   UNL     1       2.527  -4.387   3.640  0.00  0.00    +0.095 C 
BRANCH  24  25
ATOM     25  N   UNL     1       3.760  -3.598   3.763  0.00  0.00    -0.301 NA
ATOM     26  C   UNL     1       4.744  -3.998   2.750  0.00  0.00    +0.084 C 
ATOM     27  C   UNL     1       5.953  -3.062   2.813  0.00  0.00    +0.016 C 
ATOM     28  C   UNL     1       6.574  -3.131   4.211  0.00  0.00    +0.006 C 
ATOM     29  C   UNL     1       5.514  -2.757   5.251  0.00  0.00    +0.000 C 
ATOM     30  C   UNL     1       4.319  -3.702   5.117  0.00  0.00    +0.087 C 
ATOM     31  C   UNL     1       6.110  -2.881   6.654  0.00  0.00    +0.009 C 
ENDBRANCH  24  25
ENDBRANCH   1  24
TORSDOF 5
