REMARK  Name = ZINC41117206
REMARK  6 active torsions:
REMARK  status: ('A' for Active; 'I' for Inactive)
REMARK    1  A    between atoms: C_3  and  C_9
REMARK    2  A    between atoms: C_4  and  O_8
REMARK    3  A    between atoms: C_5  and  O_7
REMARK    4  A    between atoms: C_9  and  N_10
REMARK    5  A    between atoms: N_10  and  C_11
REMARK    6  A    between atoms: C_14  and  C_18
REMARK                            x       y       z     vdW  Elec       q    Type
REMARK                         _______ _______ _______ _____ _____    ______ ____
ROOT
ATOM      1  N   UNL     1       4.198   2.251  -1.388  0.00  0.00    -0.338 N 
ATOM      2  H   UNL     1       3.717   1.820  -2.111  0.00  0.00    +0.146 HD
ENDROOT
BRANCH   1   3
ATOM      3  C   UNL     1       5.395   2.924  -1.648  0.00  0.00    +0.046 A 
ATOM      4  C   UNL     1       6.088   3.537  -0.613  0.00  0.00    +0.025 A 
ATOM      5  C   UNL     1       7.271   4.200  -0.873  0.00  0.00    +0.014 A 
ATOM      6  C   UNL     1       7.766   4.255  -2.163  0.00  0.00    +0.056 A 
ATOM      7  C   UNL     1       7.080   3.646  -3.197  0.00  0.00    +0.034 A 
ATOM      8  C   UNL     1       5.898   2.976  -2.943  0.00  0.00    +0.062 A 
ATOM      9 CL   UNL     1       5.039   2.205  -4.240  0.00  0.00    -0.082 Cl
BRANCH   6  10
ATOM     10  C   UNL     1       9.057   4.981  -2.443  0.00  0.00    +0.417 C 
ATOM     11  F   UNL     1      10.129   4.091  -2.319  0.00  0.00    -0.166 F 
ATOM     12  F   UNL     1       9.029   5.499  -3.743  0.00  0.00    -0.166 F 
ATOM     13  F   UNL     1       9.212   6.027  -1.528  0.00  0.00    -0.166 F 
ENDBRANCH   6  10
ENDBRANCH   1   3
BRANCH   1  14
ATOM     14  C   UNL     1       3.670   2.198  -0.023  0.00  0.00    +0.140 C 
BRANCH  14  17
ATOM     15  C   UNL     1      -0.017   1.378   0.010  0.00  0.00    +0.004 A 
ATOM     16  C   UNL     1       1.169   2.089   0.002  0.00  0.00    +0.009 A 
ATOM     17  C   UNL     1       2.379   1.420  -0.013  0.00  0.00    +0.015 A 
ATOM     18  C   UNL     1       2.405   0.035  -0.021  0.00  0.00    +0.163 A 
ATOM     19  C   UNL     1       1.211  -0.680  -0.013  0.00  0.00    +0.159 A 
ATOM     20  C   UNL     1       0.002  -0.004   0.002  0.00  0.00    +0.049 A 
BRANCH  19  21
ATOM     21  O   UNL     1       1.232  -2.040  -0.021  0.00  0.00    -0.503 OA
ATOM     22  H   UNL     1       1.246  -2.438   0.860  0.00  0.00    +0.292 HD
ENDBRANCH  19  21
BRANCH  18  23
ATOM     23  O   UNL     1       3.594  -0.625  -0.037  0.00  0.00    -0.503 OA
ATOM     24  H   UNL     1       3.947  -0.820   0.842  0.00  0.00    +0.292 HD
ENDBRANCH  18  23
ENDBRANCH  14  17
ENDBRANCH   1  14
TORSDOF 6
