REMARK  Name = ZINC00897459
REMARK  7 active torsions:
REMARK  status: ('A' for Active; 'I' for Inactive)
REMARK    1  A    between atoms: C_1  and  C_2
REMARK    2  A    between atoms: C_2  and  N_3
REMARK    3  A    between atoms: C_4  and  C_26
REMARK    4  A    between atoms: C_7  and  S_8
REMARK    5  A    between atoms: S_8  and  C_9
REMARK    6  A    between atoms: C_9  and  C_10
REMARK    7  A    between atoms: C_29  and  O_32
REMARK                            x       y       z     vdW  Elec       q    Type
REMARK                         _______ _______ _______ _____ _____    ______ ____
ROOT
ATOM      1  C   UNL     1      -1.328   2.498   0.480  0.00  0.00    +0.174 C 
ENDROOT
BRANCH   1   2
ATOM      2  C   UNL     1       0.088   2.001   0.621  0.00  0.00    +0.234 C 
ATOM      3  O   UNL     1       0.297   0.848   0.936  0.00  0.00    -0.274 OA
ATOM      4  N   UNL     1       1.121   2.835   0.392  0.00  0.00    -0.237 N 
ATOM      5  C   UNL     1       2.427   2.376   0.605  0.00  0.00    +0.055 A 
ATOM      6  C   UNL     1       2.709   1.526   1.659  0.00  0.00    +0.025 A 
ATOM      7  C   UNL     1       4.002   1.077   1.859  0.00  0.00    +0.002 A 
ATOM      8  C   UNL     1       5.020   1.469   1.010  0.00  0.00    +0.001 A 
ATOM      9  C   UNL     1       4.750   2.316  -0.051  0.00  0.00    +0.017 A 
ATOM     10  C   UNL     1       3.459   2.768  -0.256  0.00  0.00    +0.035 A 
ATOM     11  S   UNL     1       3.083   3.849  -1.601  0.00  0.00    -0.086 S 
ATOM     12  C   UNL     1       1.696   4.750  -0.984  0.00  0.00    +0.035 A 
ATOM     13  C   UNL     1       0.859   4.139  -0.047  0.00  0.00    +0.055 A 
ATOM     14  C   UNL     1      -0.234   4.837   0.444  0.00  0.00    +0.025 A 
ATOM     15  C   UNL     1      -0.486   6.125   0.007  0.00  0.00    +0.002 A 
ATOM     16  C   UNL     1       0.346   6.725  -0.920  0.00  0.00    +0.001 A 
ATOM     17  C   UNL     1       1.440   6.038  -1.418  0.00  0.00    +0.017 A 
ENDBRANCH   1   2
BRANCH   1  18
ATOM     18  S   UNL     1      -2.451   1.087   0.325  0.00  0.00    -0.077 S 
BRANCH  18  23
ATOM     19  N   UNL     1      -5.220   1.360   0.033  0.00  0.00    -0.302 N 
ATOM     20  C   UNL     1      -6.111   2.405  -0.036  0.00  0.00    +0.165 A 
ATOM     21  N   UNL     1      -5.414   3.513   0.066  0.00  0.00    -0.128 NA
ATOM     22  N   UNL     1      -4.166   3.236   0.198  0.00  0.00    -0.122 NA
ATOM     23  C   UNL     1      -3.989   1.934   0.180  0.00  0.00    +0.192 A 
BRANCH  20  24
ATOM     24  C   UNL     1      -7.577   2.301  -0.196  0.00  0.00    +0.020 A 
ATOM     25  C   UNL     1      -8.314   3.404  -0.630  0.00  0.00    +0.015 A 
ATOM     26  C   UNL     1      -9.680   3.302  -0.783  0.00  0.00    +0.046 A 
ATOM     27  C   UNL     1     -10.325   2.106  -0.495  0.00  0.00    +0.117 A 
ATOM     28  C   UNL     1      -9.596   1.008  -0.058  0.00  0.00    +0.046 A 
ATOM     29  C   UNL     1      -8.229   1.101   0.092  0.00  0.00    +0.015 A 
BRANCH  27  30
ATOM     30  O   UNL     1     -11.672   2.010  -0.641  0.00  0.00    -0.507 OA
ATOM     31  H   UNL     1     -12.171   2.243   0.154  0.00  0.00    +0.292 HD
ENDBRANCH  27  30
ENDBRANCH  20  24
BRANCH  19  33
ATOM     32  C   UNL     1      -5.708  -0.622   1.381  0.00  0.00    +0.027 C 
ATOM     33  C   UNL     1      -5.526  -0.071  -0.035  0.00  0.00    +0.122 C 
ENDBRANCH  19  33
ENDBRANCH  18  23
ENDBRANCH   1  18
TORSDOF 6
