REMARK  Name = ZINC03443795
REMARK  7 active torsions:
REMARK  status: ('A' for Active; 'I' for Inactive)
REMARK    1  A    between atoms: C_1  and  C_2
REMARK    2  A    between atoms: C_11  and  N_15
REMARK    3  A    between atoms: N_15  and  C_16
REMARK    4  A    between atoms: C_16  and  C_18
REMARK    5  A    between atoms: C_16  and  C_19
REMARK    6  A    between atoms: C_22  and  S_25
REMARK    7  A    between atoms: S_25  and  N_28
REMARK                            x       y       z     vdW  Elec       q    Type
REMARK                         _______ _______ _______ _____ _____    ______ ____
ROOT
ATOM      1  N   UNL     1       3.483  -0.816  -0.036  0.00  0.00    -0.322 N 
ATOM      2  H   UNL     1       4.340  -0.369  -0.115  0.00  0.00    +0.148 HD
ENDROOT
BRANCH   1  12
ATOM      3  C   UNL     1       6.798   5.059  -0.029  0.00  0.00    +0.008 C 
ATOM      4  C   UNL     1       5.689   4.051  -0.336  0.00  0.00    -0.009 C 
ATOM      5  C   UNL     1       5.914   2.775   0.481  0.00  0.00    +0.008 C 
ATOM      6  C   UNL     1       4.963   1.678   0.003  0.00  0.00    +0.037 C 
ATOM      7  C   UNL     1       3.537   2.223   0.014  0.00  0.00    -0.025 A 
ATOM      8  C   UNL     1       3.308   3.552   0.035  0.00  0.00    -0.004 A 
ATOM      9  S   UNL     1       1.543   3.716   0.042  0.00  0.00    -0.073 S 
ATOM     10  C   UNL     1       1.114   1.996   0.016  0.00  0.00    +0.114 A 
ATOM     11  C   UNL     1       2.365   1.347   0.002  0.00  0.00    +0.051 A 
ATOM     12  C   UNL     1       2.316  -0.074  -0.021  0.00  0.00    +0.131 A 
ATOM     13  N   UNL     1       1.138  -0.678  -0.027  0.00  0.00    -0.220 NA
ATOM     14  C   UNL     1       0.002  -0.004  -0.012  0.00  0.00    +0.224 A 
ATOM     15  N   UNL     1      -0.016   1.315   0.008  0.00  0.00    -0.228 NA
ATOM     16  C   UNL     1       4.329   4.649   0.050  0.00  0.00    +0.046 C 
ENDBRANCH   1  12
BRANCH   1  17
ATOM     17  C   UNL     1       3.425  -2.276   0.067  0.00  0.00    +0.099 C 
ATOM     18  C   UNL     1       3.360  -2.682   1.540  0.00  0.00    +0.033 C 
BRANCH  17  19
ATOM     19  C   UNL     1       4.656  -2.874  -0.565  0.00  0.00    -0.027 A 
ATOM     20  C   UNL     1       5.887  -2.271  -0.386  0.00  0.00    +0.007 A 
ATOM     21  C   UNL     1       7.017  -2.821  -0.961  0.00  0.00    +0.029 A 
ATOM     22  C   UNL     1       6.914  -3.970  -1.724  0.00  0.00    +0.105 A 
ATOM     23  C   UNL     1       5.682  -4.570  -1.907  0.00  0.00    +0.029 A 
ATOM     24  C   UNL     1       4.553  -4.022  -1.328  0.00  0.00    +0.007 A 
BRANCH  22  25
ATOM     25  S   UNL     1       8.353  -4.668  -2.463  0.00  0.00    +0.056 S 
ATOM     26  O   UNL     1       9.461  -4.226  -1.691  0.00  0.00    -0.153 OA
ATOM     27  O   UNL     1       8.073  -6.044  -2.676  0.00  0.00    -0.153 OA
BRANCH  25  28
ATOM     28  N   UNL     1       8.516  -3.981  -3.961  0.00  0.00    -0.204 NA
ATOM     29  H   UNL     1       9.398  -3.868  -4.350  0.00  0.00    +0.144 HD
ATOM     30  H   UNL     1       7.730  -3.691  -4.450  0.00  0.00    +0.144 HD
ENDBRANCH  25  28
ENDBRANCH  22  25
ENDBRANCH  17  19
ENDBRANCH   1  17
TORSDOF 5
