REMARK  Name = ZINC03142404
REMARK  10 active torsions:
REMARK  status: ('A' for Active; 'I' for Inactive)
REMARK    1  A    between atoms: C_1  and  C_2
REMARK    2  A    between atoms: C_2  and  C_3
REMARK    3  A    between atoms: C_2  and  C_4
REMARK    4  A    between atoms: C_2  and  C_5
REMARK    5  A    between atoms: N_7  and  C_8
REMARK    6  A    between atoms: C_8  and  C_10
REMARK    7  A    between atoms: C_8  and  N_14
REMARK    8  A    between atoms: N_14  and  C_15
REMARK    9  A    between atoms: C_15  and  N_17
REMARK   10  A    between atoms: N_17  and  C_18
REMARK                            x       y       z     vdW  Elec       q    Type
REMARK                         _______ _______ _______ _____ _____    ______ ____
ROOT
ATOM      1  C   UNL     1       1.567  -1.920  -1.897  0.00  0.00    +0.211 C 
ENDROOT
BRANCH   1   4
ATOM      2  C   UNL     1       1.214  -0.523   0.067  0.00  0.00    +0.220 C 
ATOM      3  O   UNL     1       1.611   0.427  -0.573  0.00  0.00    -0.275 OA
ATOM      4  N   UNL     1       1.153  -1.742  -0.504  0.00  0.00    -0.293 N 
ATOM      5  H   UNL     1       0.835  -2.502   0.009  0.00  0.00    +0.151 HD
BRANCH   2   7
ATOM      6  C   UNL     1       0.954   1.128   1.899  0.00  0.00    +0.020 C 
ATOM      7  C   UNL     1       0.788  -0.340   1.501  0.00  0.00    +0.039 C 
ATOM      8  C   UNL     1       1.656  -1.216   2.407  0.00  0.00    +0.020 C 
ATOM      9  C   UNL     1      -0.679  -0.747   1.653  0.00  0.00    +0.020 C 
ENDBRANCH   2   7
ENDBRANCH   1   4
BRANCH   1  10
ATOM     10  C   UNL     1       0.539  -2.785  -2.629  0.00  0.00    +0.225 C 
ATOM     11 CL   UNL     1      -1.071  -1.975  -2.579  0.00  0.00    -0.080 Cl
ATOM     12 CL   UNL     1       1.049  -3.003  -4.345  0.00  0.00    -0.080 Cl
ATOM     13 CL   UNL     1       0.427  -4.395  -1.825  0.00  0.00    -0.080 Cl
ENDBRANCH   1  10
BRANCH   1  14
ATOM     14  N   UNL     1       2.876  -2.578  -1.938  0.00  0.00    -0.305 N 
ATOM     15  H   UNL     1       2.947  -3.527  -1.750  0.00  0.00    +0.150 HD
BRANCH  14  16
ATOM     16  C   UNL     1       3.980  -1.865  -2.236  0.00  0.00    +0.136 C 
ATOM     17  S   UNL     1       3.853  -0.190  -2.568  0.00  0.00    -0.019 S 
BRANCH  16  18
ATOM     18  N   UNL     1       5.183  -2.470  -2.274  0.00  0.00    -0.297 N 
ATOM     19  H   UNL     1       5.264  -3.405  -2.026  0.00  0.00    +0.154 HD
BRANCH  18  20
ATOM     20  C   UNL     1       6.316  -1.751  -2.669  0.00  0.00    +0.033 A 
ATOM     21  C   UNL     1       6.545  -0.479  -2.161  0.00  0.00    +0.024 A 
ATOM     22  C   UNL     1       7.665   0.229  -2.553  0.00  0.00    +0.017 A 
ATOM     23  C   UNL     1       8.557  -0.329  -3.452  0.00  0.00    +0.018 A 
ATOM     24  C   UNL     1       8.332  -1.596  -3.960  0.00  0.00    +0.017 A 
ATOM     25  C   UNL     1       7.217  -2.310  -3.567  0.00  0.00    +0.024 A 
ATOM     26 BR   UNL     1      10.088   0.644  -3.987  0.00  0.00    -0.050 Br
ENDBRANCH  18  20
ENDBRANCH  16  18
ENDBRANCH  14  16
ENDBRANCH   1  14
TORSDOF 7
