REMARK  Name = ZINC09357397
REMARK  4 active torsions:
REMARK  status: ('A' for Active; 'I' for Inactive)
REMARK    1  A    between atoms: C_4  and  C_7
REMARK    2  A    between atoms: C_7  and  C_9
REMARK    3  A    between atoms: C_11  and  C_28
REMARK    4  A    between atoms: C_31  and  N_34
REMARK                            x       y       z     vdW  Elec       q    Type
REMARK                         _______ _______ _______ _____ _____    ______ ____
ROOT
ATOM      1  C   UNL     1      -3.427   1.454  -1.130  0.00  0.00    +0.069 C 
ATOM      2  C   UNL     1      -3.460   1.463   0.413  0.00  0.00    +0.016 C 
ATOM      3  C   UNL     1      -4.952   1.644   0.760  0.00  0.00    -0.047 C 
ATOM      4  C   UNL     1      -5.237   1.012   2.133  0.00  0.00    +0.052 C 
ATOM      5  S   UNL     1      -6.327  -0.405   1.679  0.00  0.00    -0.181 S 
ATOM      6  C   UNL     1      -5.931  -0.434  -0.125  0.00  0.00    -0.005 C 
ATOM      7  C   UNL     1      -4.872   1.189  -1.565  0.00  0.00    +0.052 C 
ATOM      8  C   UNL     1      -4.956  -0.030  -2.446  0.00  0.00    -0.027 A 
ATOM      9  C   UNL     1      -4.636  -1.355  -2.255  0.00  0.00    +0.004 A 
ATOM     10  C   UNL     1      -4.832  -2.267  -3.277  0.00  0.00    +0.000 A 
ATOM     11  C   UNL     1      -5.348  -1.843  -4.489  0.00  0.00    +0.002 A 
ATOM     12  C   UNL     1      -5.668  -0.516  -4.683  0.00  0.00    +0.023 A 
ATOM     13  C   UNL     1      -5.475   0.409  -3.659  0.00  0.00    +0.036 A 
ATOM     14  N   UNL     1      -5.718   1.783  -3.612  0.00  0.00    -0.286 N 
ATOM     15  C   UNL     1      -5.393   2.316  -2.419  0.00  0.00    +0.212 C 
ATOM     16  O   UNL     1      -5.499   3.479  -2.095  0.00  0.00    -0.277 OA
ATOM     17  H   UNL     1      -6.079   2.295  -4.353  0.00  0.00    +0.155 HD
ATOM     18  N   UNL     1      -5.683   1.032  -0.367  0.00  0.00    +0.401 N 
ATOM     19  H   UNL     1      -6.583   1.510  -0.491  0.00  0.00    -0.078 HD
ENDROOT
BRANCH   2  20
ATOM     20  C   UNL     1      -2.650   2.614   0.951  0.00  0.00    -0.045 A 
ATOM     21  C   UNL     1      -1.269   2.559   0.924  0.00  0.00    +0.006 A 
ATOM     22  C   UNL     1      -0.525   3.617   1.413  0.00  0.00    +0.033 A 
ATOM     23  C   UNL     1      -1.163   4.727   1.934  0.00  0.00    +0.126 A 
ATOM     24  C   UNL     1      -2.543   4.779   1.966  0.00  0.00    +0.033 A 
ATOM     25  C   UNL     1      -3.287   3.722   1.478  0.00  0.00    +0.006 A 
BRANCH  23  26
ATOM     26  N   UNL     1      -0.366   5.860   2.457  0.00  0.00    +0.056 N 
ATOM     27  O   UNL     1       0.850   5.814   2.428  0.00  0.00    -0.126 OA
ATOM     28  O   UNL     1      -0.928   6.838   2.916  0.00  0.00    -0.126 OA
ENDBRANCH  23  26
ENDBRANCH   2  20
BRANCH   1  29
ATOM     29  C   UNL     1      -2.961   2.790  -1.650  0.00  0.00    +0.166 C 
ATOM     30  O   UNL     1      -3.323   3.812  -1.107  0.00  0.00    -0.292 OA
BRANCH  29  34
ATOM     31  C   UNL     1      -0.382   2.974  -5.013  0.00  0.00    +0.000 A 
ATOM     32  C   UNL     1      -0.793   4.143  -4.396  0.00  0.00    +0.001 A 
ATOM     33  C   UNL     1      -1.632   4.091  -3.302  0.00  0.00    +0.011 A 
ATOM     34  C   UNL     1      -2.067   2.854  -2.817  0.00  0.00    +0.018 A 
ATOM     35  C   UNL     1      -1.642   1.677  -3.442  0.00  0.00    +0.011 A 
ATOM     36  C   UNL     1      -0.808   1.746  -4.538  0.00  0.00    +0.001 A 
ENDBRANCH  29  34
ENDBRANCH   1  29
TORSDOF 4
