REMARK  Name = ZINC21016951
REMARK  5 active torsions:
REMARK  status: ('A' for Active; 'I' for Inactive)
REMARK    1  A    between atoms: C_1  and  O_2
REMARK    2  A    between atoms: O_2  and  C_3
REMARK    3  A    between atoms: C_8  and  C_9
REMARK    4  A    between atoms: C_9  and  C_11
REMARK    5  A    between atoms: C_9  and  N_21
REMARK                            x       y       z     vdW  Elec       q    Type
REMARK                         _______ _______ _______ _____ _____    ______ ____
ROOT
ATOM      1  C   UNL     1       0.002  -0.004   0.002  0.00  0.00    -0.010 C 
ENDROOT
BRANCH   1   2
ATOM      2  C   UNL     1       0.146  -0.512   1.413  0.00  0.00    -0.054 A 
ATOM      3  C   UNL     1      -0.958  -0.566   2.244  0.00  0.00    +0.006 A 
ATOM      4  C   UNL     1      -0.830  -1.031   3.539  0.00  0.00    +0.049 A 
ATOM      5  C   UNL     1       0.408  -1.444   4.009  0.00  0.00    +0.162 A 
ATOM      6  C   UNL     1       1.517  -1.392   3.174  0.00  0.00    +0.162 A 
ATOM      7  C   UNL     1       1.381  -0.929   1.874  0.00  0.00    +0.051 A 
ATOM      8  O   UNL     1       2.740  -1.797   3.614  0.00  0.00    -0.485 OA
ATOM      9  C   UNL     1       2.911  -1.903   5.032  0.00  0.00    +0.270 C 
ATOM     10  C   UNL     1       1.697  -2.644   5.608  0.00  0.00    +0.270 C 
ATOM     11  O   UNL     1       0.520  -1.892   5.290  0.00  0.00    -0.485 OA
ENDBRANCH   1   2
BRANCH   1  17
ATOM     12  C   UNL     1       1.173   2.213   0.003  0.00  0.00    +0.122 A 
ATOM     13  C   UNL     1       1.152   3.600   0.010  0.00  0.00    +0.047 A 
ATOM     14  C   UNL     1      -0.056   4.271   0.025  0.00  0.00    +0.023 A 
ATOM     15  C   UNL     1      -1.243   3.561   0.033  0.00  0.00    +0.041 A 
ATOM     16  C   UNL     1      -1.224   2.178   0.020  0.00  0.00    +0.025 A 
ATOM     17  C   UNL     1      -0.018   1.503   0.010  0.00  0.00    -0.015 A 
ATOM     18 CL   UNL     1      -2.759   4.407   0.052  0.00  0.00    -0.084 Cl
BRANCH  12  20
ATOM     19  C   UNL     1       3.547   2.347  -0.018  0.00  0.00    +0.277 C 
ATOM     20  O   UNL     1       2.360   1.551  -0.011  0.00  0.00    -0.495 OA
ENDBRANCH  12  20
ENDBRANCH   1  17
BRANCH   1  21
ATOM     21  N   UNL     1      -1.252  -0.508  -0.574  0.00  0.00    +0.385 N 
ATOM     22  H   UNL     1      -1.237  -1.607  -0.580  0.00  0.00    -0.089 HD
ATOM     23  H   UNL     1      -1.357  -0.137  -1.604  0.00  0.00    -0.089 HD
ATOM     24  H   UNL     1      -2.101  -0.156   0.031  0.00  0.00    -0.089 HD
ENDBRANCH   1  21
TORSDOF 4
