REMARK  Name = ZINC65386959
REMARK  4 active torsions:
REMARK  status: ('A' for Active; 'I' for Inactive)
REMARK    1  A    between atoms: C_1  and  O_2
REMARK    2  A    between atoms: O_2  and  C_3
REMARK    3  A    between atoms: C_3  and  C_5
REMARK    4  A    between atoms: C_16  and  C_18
REMARK                            x       y       z     vdW  Elec       q    Type
REMARK                         _______ _______ _______ _____ _____    ______ ____
ROOT
ATOM      1  C   UNL     1       0.091  -1.890   1.675  0.00  0.00    +0.191 C 
ATOM      2  C   UNL     1      -0.008  -3.062   0.691  0.00  0.00    +0.089 C 
ATOM      3  C   UNL     1      -0.218  -4.336   1.470  0.00  0.00    +0.040 A 
ATOM      4  C   UNL     1       0.038  -4.474   2.789  0.00  0.00    +0.054 A 
ATOM      5  N   UNL     1      -0.270  -5.755   3.128  0.00  0.00    -0.348 N 
ATOM      6  H   UNL     1      -0.189  -6.155   4.008  0.00  0.00    +0.166 HD
ATOM      7  C   UNL     1      -0.712  -6.365   2.003  0.00  0.00    +0.171 A 
ATOM      8  N   UNL     1      -0.677  -5.507   1.018  0.00  0.00    -0.349 N 
ATOM      9  C   UNL     1       0.564  -3.369   3.670  0.00  0.00    +0.163 C 
ATOM     10  N   UNL     1       0.979  -2.264   2.787  0.00  0.00    -0.277 N 
ATOM     11  C   UNL     1       2.142  -1.615   2.991  0.00  0.00    +0.255 C 
ATOM     12  O   UNL     1       2.441  -0.667   2.289  0.00  0.00    -0.269 OA
ATOM     13  H   UNL     1      -0.942  -5.691   0.103  0.00  0.00    +0.166 HD
ENDROOT
BRANCH  11  14
ATOM     14  C   UNL     1       3.047  -2.052   4.059  0.00  0.00    +0.077 A 
ATOM     15  C   UNL     1       3.714  -1.280   5.006  0.00  0.00    -0.025 A 
ATOM     16  C   UNL     1       4.513  -1.986   5.901  0.00  0.00    -0.036 A 
ATOM     17  C   UNL     1       4.567  -3.346   5.769  0.00  0.00    +0.049 A 
ATOM     18  S   UNL     1       3.564  -3.701   4.475  0.00  0.00    -0.092 S 
ATOM     19  C   UNL     1       5.314  -1.298   7.004  0.00  0.00    +0.036 C 
ATOM     20  C   UNL     1       5.434   0.190   6.673  0.00  0.00    +0.005 C 
ATOM     21  C   UNL     1       4.040   0.756   6.389  0.00  0.00    +0.005 C 
ATOM     22  C   UNL     1       3.557   0.235   5.034  0.00  0.00    +0.037 C 
ENDBRANCH  11  14
BRANCH   1  23
ATOM     23  C   UNL     1       0.652  -0.684   0.967  0.00  0.00    +0.328 C 
ATOM     24  O   UNL     1       1.682  -0.776   0.341  0.00  0.00    -0.249 OA
BRANCH  23  26
ATOM     25  C   UNL     1       0.598   1.593   0.338  0.00  0.00    +0.280 C 
ATOM     26  O   UNL     1       0.009   0.492   1.033  0.00  0.00    -0.467 OA
ENDBRANCH  23  26
ENDBRANCH   1  23
TORSDOF 3
