REMARK  Name = ZINC09354434
REMARK  7 active torsions:
REMARK  status: ('A' for Active; 'I' for Inactive)
REMARK    1  A    between atoms: C_4  and  C_7
REMARK    2  A    between atoms: C_7  and  C_9
REMARK    3  A    between atoms: C_11  and  C_23
REMARK    4  A    between atoms: C_14  and  O_22
REMARK    5  A    between atoms: C_16  and  C_17
REMARK    6  A    between atoms: C_26  and  C_28
REMARK    7  A    between atoms: C_33  and  N_34
REMARK                            x       y       z     vdW  Elec       q    Type
REMARK                         _______ _______ _______ _____ _____    ______ ____
ROOT
ATOM      1  C   UNL     1       3.295  -0.753  -0.218  0.00  0.00    +0.152 C 
ATOM      2  C   UNL     1       4.407  -1.687  -0.720  0.00  0.00    +0.156 C 
ATOM      3  N   UNL     1       3.903  -3.065  -0.613  0.00  0.00    -0.290 N 
ATOM      4  C   UNL     1       3.202  -3.427   0.511  0.00  0.00    +0.256 C 
ATOM      5  N   UNL     1       2.764  -2.560   1.360  0.00  0.00    -0.306 N 
ATOM      6  C   UNL     1       2.970  -1.122   1.231  0.00  0.00    +0.284 C 
ATOM      7  O   UNL     1       4.053  -0.724   2.073  0.00  0.00    -0.194 OA
ATOM      8  H   UNL     1       4.063  -3.706  -1.324  0.00  0.00    +0.151 HD
ATOM      9  H   UNL     1       2.268  -2.883   2.128  0.00  0.00    +0.167 HD
ENDROOT
BRANCH   2  10
ATOM     10  C   UNL     1       5.638  -1.523   0.134  0.00  0.00    +0.127 A 
ATOM     11  C   UNL     1       5.964  -2.283   1.197  0.00  0.00    +0.047 A 
ATOM     12  C   UNL     1       7.185  -1.790   1.699  0.00  0.00    +0.050 A 
ATOM     13  C   UNL     1       7.540  -0.744   0.906  0.00  0.00    +0.137 A 
ATOM     14  O   UNL     1       6.595  -0.597  -0.043  0.00  0.00    -0.458 OA
BRANCH  13  15
ATOM     15  C   UNL     1       8.755   0.085   1.055  0.00  0.00    +0.047 A 
ATOM     16  C   UNL     1       9.020   0.729   2.265  0.00  0.00    +0.014 A 
ATOM     17  C   UNL     1      10.155   1.501   2.398  0.00  0.00    +0.001 A 
ATOM     18  C   UNL     1      11.030   1.638   1.335  0.00  0.00    +0.002 A 
ATOM     19  C   UNL     1      10.774   1.002   0.133  0.00  0.00    +0.033 A 
ATOM     20  C   UNL     1       9.645   0.222  -0.011  0.00  0.00    +0.137 A 
BRANCH  20  21
ATOM     21  N   UNL     1       9.376  -0.463  -1.295  0.00  0.00    +0.057 N 
ATOM     22  O   UNL     1      10.082  -0.250  -2.253  0.00  0.00    -0.126 OA
ATOM     23  O   UNL     1       8.450  -1.235  -1.386  0.00  0.00    -0.126 OA
ENDBRANCH  20  21
ENDBRANCH  13  15
ENDBRANCH   2  10
BRANCH   6  24
ATOM     24  C   UNL     1       1.699  -0.388   1.665  0.00  0.00    +0.441 C 
ATOM     25  F   UNL     1       0.657  -0.699   0.784  0.00  0.00    -0.166 F 
ATOM     26  F   UNL     1       1.349  -0.787   2.959  0.00  0.00    -0.166 F 
ATOM     27  F   UNL     1       1.928   0.992   1.648  0.00  0.00    -0.166 F 
ENDBRANCH   6  24
BRANCH   1  28
ATOM     28  C   UNL     1       3.766   0.677  -0.284  0.00  0.00    +0.173 C 
ATOM     29  O   UNL     1       4.290   1.188   0.682  0.00  0.00    -0.292 OA
BRANCH  28  33
ATOM     30  C   UNL     1       3.259   2.915  -3.852  0.00  0.00    +0.000 A 
ATOM     31  C   UNL     1       3.799   3.520  -2.731  0.00  0.00    +0.001 A 
ATOM     32  C   UNL     1       3.967   2.800  -1.567  0.00  0.00    +0.011 A 
ATOM     33  C   UNL     1       3.590   1.454  -1.522  0.00  0.00    +0.018 A 
ATOM     34  C   UNL     1       3.045   0.849  -2.659  0.00  0.00    +0.011 A 
ATOM     35  C   UNL     1       2.884   1.583  -3.815  0.00  0.00    +0.001 A 
ENDBRANCH  28  33
ENDBRANCH   1  28
BRANCH   4  36
ATOM     36  O   UNL     1       2.962  -4.737   0.735  0.00  0.00    -0.483 OA
ATOM     37  H   UNL     1       2.463  -4.912   1.545  0.00  0.00    +0.295 HD
ENDBRANCH   4  36
TORSDOF 7
