REMARK  Name = ZINC36645995
REMARK  8 active torsions:
REMARK  status: ('A' for Active; 'I' for Inactive)
REMARK    1  A    between atoms: C_1  and  O_2
REMARK    2  A    between atoms: O_2  and  C_3
REMARK    3  A    between atoms: C_5  and  C_13
REMARK    4  A    between atoms: C_7  and  N_10
REMARK    5  A    between atoms: C_8  and  O_9
REMARK    6  A    between atoms: C_14  and  C_15
REMARK    7  A    between atoms: C_14  and  C_17
REMARK    8  A    between atoms: C_19  and  C_22
REMARK                            x       y       z     vdW  Elec       q    Type
REMARK                         _______ _______ _______ _____ _____    ______ ____
ROOT
ATOM      1  C   UNL     1       2.365   0.290  -4.165  0.00  0.00    +0.029 C 
ATOM      2  C   UNL     1       3.081  -0.339  -5.204  0.00  0.00    +0.084 C 
ENDROOT
BRANCH   1   5
ATOM      3  C   UNL     1       0.750  -0.897  -1.075  0.00  0.00    +0.164 A 
ATOM      4  C   UNL     1       1.517  -0.147  -1.918  0.00  0.00    +0.057 A 
ATOM      5  C   UNL     1       1.579  -0.476  -3.290  0.00  0.00    -0.018 A 
ATOM      6  C   UNL     1       0.845  -1.583  -3.779  0.00  0.00    +0.044 A 
ATOM      7  C   UNL     1       0.084  -2.323  -2.926  0.00  0.00    +0.172 A 
ATOM      8  C   UNL     1       0.030  -1.997  -1.569  0.00  0.00    +0.189 A 
BRANCH   7   9
ATOM      9  N   UNL     1      -0.684  -3.480  -3.438  0.00  0.00    +0.060 N 
ATOM     10  O   UNL     1      -0.630  -3.793  -4.716  0.00  0.00    -0.126 OA
ATOM     11  O   UNL     1      -1.420  -4.197  -2.615  0.00  0.00    -0.126 OA
ENDBRANCH   7   9
BRANCH   3  13
ATOM     12  C   UNL     1       1.445   0.548   0.680  0.00  0.00    +0.277 C 
ATOM     13  O   UNL     1       0.687  -0.583   0.246  0.00  0.00    -0.491 OA
ENDBRANCH   3  13
BRANCH   8  14
ATOM     14  O   UNL     1      -0.725  -2.741  -0.727  0.00  0.00    -0.502 OA
ATOM     15  H   UNL     1      -1.637  -2.432  -0.640  0.00  0.00    +0.292 HD
ENDBRANCH   8  14
ENDBRANCH   1   5
BRANCH   2  16
ATOM     16  C   UNL     1       3.745   0.437  -6.169  0.00  0.00    +0.119 A 
ATOM     17  N   UNL     1       4.462   0.022  -7.220  0.00  0.00    -0.238 NA
ATOM     18  C   UNL     1       5.007   0.901  -8.009  0.00  0.00    +0.079 A 
ATOM     19  C   UNL     1       4.787   2.321  -7.676  0.00  0.00    +0.075 A 
ATOM     20  S   UNL     1       3.831   2.213  -6.294  0.00  0.00    -0.074 S 
BRANCH  18  21
ATOM     21  C   UNL     1       5.806   0.498  -9.178  0.00  0.00    +0.001 A 
ATOM     22  C   UNL     1       6.384   1.482 -10.004  0.00  0.00    +0.010 A 
ATOM     23  C   UNL     1       7.123   1.134 -11.085  0.00  0.00    +0.009 A 
ATOM     24  C   UNL     1       7.324  -0.227 -11.397  0.00  0.00    -0.018 A 
ATOM     25  C   UNL     1       8.086  -0.607 -12.511  0.00  0.00    +0.008 A 
ATOM     26  C   UNL     1       8.264  -1.931 -12.790  0.00  0.00    +0.001 A 
ATOM     27  C   UNL     1       7.699  -2.917 -11.985  0.00  0.00    +0.001 A 
ATOM     28  C   UNL     1       6.952  -2.586 -10.894  0.00  0.00    +0.008 A 
ATOM     29  C   UNL     1       6.748  -1.230 -10.575  0.00  0.00    -0.017 A 
ATOM     30  C   UNL     1       5.990  -0.856  -9.458  0.00  0.00    +0.018 A 
ENDBRANCH  18  21
ENDBRANCH   2  16
BRANCH   2  31
ATOM     31  C   UNL     1       3.131  -1.768  -5.277  0.00  0.00    +0.102 C 
ATOM     32  N   UNL     1       3.170  -2.902  -5.334  0.00  0.00    -0.191 NA
ENDBRANCH   2  31
TORSDOF 7
