REMARK  Name = ZINC35697761
REMARK  5 active torsions:
REMARK  status: ('A' for Active; 'I' for Inactive)
REMARK    1  A    between atoms: C_1  and  C_2
REMARK    2  A    between atoms: C_2  and  C_3
REMARK    3  A    between atoms: C_2  and  C_4
REMARK    4  A    between atoms: C_2  and  C_5
REMARK    5  A    between atoms: C_8  and  N_11
REMARK                            x       y       z     vdW  Elec       q    Type
REMARK                         _______ _______ _______ _____ _____    ______ ____
ROOT
ATOM      1  N   UNL     1       2.658  -1.833  -4.667  0.00  0.00    -0.256 N 
ATOM      2  C   UNL     1       3.811  -2.514  -4.541  0.00  0.00    +0.267 A 
ATOM      3  O   UNL     1       4.278  -2.735  -3.438  0.00  0.00    -0.267 OA
ATOM      4  C   UNL     1       4.505  -2.992  -5.756  0.00  0.00    +0.071 A 
ATOM      5  C   UNL     1       5.748  -3.740  -5.871  0.00  0.00    +0.023 A 
ATOM      6  C   UNL     1       6.151  -4.046  -7.114  0.00  0.00    +0.048 A 
ATOM      7  S   UNL     1       4.880  -3.342  -8.143  0.00  0.00    -0.079 S 
ATOM      8  C   UNL     1       3.888  -2.688  -6.970  0.00  0.00    +0.092 A 
ATOM      9  N   UNL     1       2.710  -1.988  -7.007  0.00  0.00    -0.329 N 
ATOM     10  C   UNL     1       2.116  -1.580  -5.870  0.00  0.00    +0.166 A 
ATOM     11  S   UNL     1       0.642  -0.714  -5.958  0.00  0.00    -0.012 S 
ATOM     12  H   UNL     1       2.298  -1.787  -7.862  0.00  0.00    +0.168 HD
ENDROOT
BRANCH   1  16
ATOM     13  C   UNL     1       0.708  -0.490  -1.238  0.00  0.00    -0.042 A 
ATOM     14  C   UNL     1       0.420  -1.742  -1.749  0.00  0.00    +0.006 A 
ATOM     15  C   UNL     1       1.065  -2.190  -2.886  0.00  0.00    +0.026 A 
ATOM     16  C   UNL     1       2.002  -1.382  -3.515  0.00  0.00    +0.052 A 
ATOM     17  C   UNL     1       2.289  -0.125  -2.999  0.00  0.00    +0.026 A 
ATOM     18  C   UNL     1       1.637   0.320  -1.865  0.00  0.00    +0.006 A 
BRANCH  13  20
ATOM     19  C   UNL     1      -0.776   1.273  -0.322  0.00  0.00    +0.015 C 
ATOM     20  C   UNL     1       0.003  -0.004   0.002  0.00  0.00    -0.013 C 
ATOM     21  C   UNL     1       1.034   0.291   1.093  0.00  0.00    +0.015 C 
ATOM     22  C   UNL     1      -0.966  -1.081   0.493  0.00  0.00    +0.015 C 
ENDBRANCH  13  20
ENDBRANCH   1  16
TORSDOF 2
