REMARK  Name = ZINC14241267
REMARK  6 active torsions:
REMARK  status: ('A' for Active; 'I' for Inactive)
REMARK    1  A    between atoms: C_1  and  N_2
REMARK    2  A    between atoms: N_2  and  C_3
REMARK    3  A    between atoms: C_7  and  N_10
REMARK    4  A    between atoms: C_13  and  C_20
REMARK    5  A    between atoms: C_23  and  O_26
REMARK    6  A    between atoms: O_26  and  C_27
REMARK                            x       y       z     vdW  Elec       q    Type
REMARK                         _______ _______ _______ _____ _____    ______ ____
ROOT
ATOM      1  N   UNL     1       0.710  -2.828  -4.777  0.00  0.00    -0.298 N 
ATOM      2  C   UNL     1       0.656  -4.210  -4.723  0.00  0.00    +0.135 A 
ATOM      3  C   UNL     1       0.422  -4.967  -5.902  0.00  0.00    +0.055 A 
ATOM      4  C   UNL     1       0.211  -4.514  -7.273  0.00  0.00    +0.002 A 
ATOM      5  C   UNL     1       0.006  -5.438  -8.240  0.00  0.00    +0.056 A 
ATOM      6  S   UNL     1       0.085  -6.986  -7.360  0.00  0.00    -0.076 S 
ATOM      7  C   UNL     1       0.388  -6.366  -5.727  0.00  0.00    +0.114 A 
ATOM      8  N   UNL     1       0.564  -6.915  -4.540  0.00  0.00    -0.228 NA
ATOM      9  C   UNL     1       0.777  -6.159  -3.481  0.00  0.00    +0.224 A 
ATOM     10  N   UNL     1       0.827  -4.843  -3.572  0.00  0.00    -0.220 NA
ATOM     11  H   UNL     1       0.666  -2.374  -5.633  0.00  0.00    +0.154 HD
ENDROOT
BRANCH   1  18
ATOM     12  C   UNL     1       1.697   1.338  -0.025  0.00  0.00    +0.130 C 
ATOM     13  N   UNL     1       1.101  -0.001  -0.055  0.00  0.00    -0.321 N 
ATOM     14  C   UNL     1       0.597  -0.605   1.181  0.00  0.00    +0.130 C 
ATOM     15  C   UNL     1       1.014  -0.698  -1.257  0.00  0.00    +0.121 A 
ATOM     16  C   UNL     1       1.593  -0.165  -2.404  0.00  0.00    +0.045 A 
ATOM     17  C   UNL     1       1.502  -0.864  -3.593  0.00  0.00    +0.028 A 
ATOM     18  C   UNL     1       0.828  -2.085  -3.595  0.00  0.00    +0.051 A 
ATOM     19  C   UNL     1       0.275  -2.554  -2.413  0.00  0.00    +0.136 A 
ATOM     20  N   UNL     1       0.387  -1.862  -1.295  0.00  0.00    -0.238 NA
ENDBRANCH   1  18
BRANCH   4  21
ATOM     21  C   UNL     1       0.221  -3.068  -7.599  0.00  0.00    -0.016 A 
ATOM     22  C   UNL     1      -0.691  -2.207  -6.989  0.00  0.00    +0.012 A 
ATOM     23  C   UNL     1      -0.679  -0.862  -7.295  0.00  0.00    +0.046 A 
ATOM     24  C   UNL     1       0.240  -0.365  -8.210  0.00  0.00    +0.120 A 
ATOM     25  C   UNL     1       1.149  -1.219  -8.819  0.00  0.00    +0.046 A 
ATOM     26  C   UNL     1       1.146  -2.564  -8.513  0.00  0.00    +0.012 A 
BRANCH  24  27
ATOM     27  O   UNL     1       0.248   0.960  -8.510  0.00  0.00    -0.495 OA
ATOM     28  C   UNL     1       1.220   1.404  -9.459  0.00  0.00    +0.277 C 
ENDBRANCH  24  27
ENDBRANCH   4  21
TORSDOF 3
