REMARK  Name = ZINC66891497
REMARK  8 active torsions:
REMARK  status: ('A' for Active; 'I' for Inactive)
REMARK    1  A    between atoms: C_1  and  C_2
REMARK    2  A    between atoms: C_3  and  C_7
REMARK    3  A    between atoms: N_9  and  C_10
REMARK    4  A    between atoms: N_13  and  C_16
REMARK    5  A    between atoms: C_16  and  C_18
REMARK    6  A    between atoms: C_16  and  C_19
REMARK    7  A    between atoms: N_21  and  C_22
REMARK    8  A    between atoms: C_28  and  C_30
REMARK                            x       y       z     vdW  Elec       q    Type
REMARK                         _______ _______ _______ _____ _____    ______ ____
ROOT
ATOM      1  C   UNL     1      -5.573   1.039  -0.221  0.00  0.00    +0.070 C 
ATOM      2  C   UNL     1      -6.088   1.178   1.214  0.00  0.00    +0.004 C 
ATOM      3  C   UNL     1      -7.548   0.722   1.273  0.00  0.00    -0.076 C 
ATOM      4  N   UNL     1      -7.644  -0.680   0.850  0.00  0.00    +0.387 N 
ATOM      5  C   UNL     1      -7.219  -0.809  -0.549  0.00  0.00    -0.076 C 
ATOM      6  C   UNL     1      -5.747  -0.412  -0.678  0.00  0.00    +0.004 C 
ATOM      7  H   UNL     1      -7.050  -1.248   1.435  0.00  0.00    -0.081 HD
ENDROOT
BRANCH   1  10
ATOM      8  C   UNL     1      -3.793   2.692  -0.410  0.00  0.00    +0.248 C 
ATOM      9  O   UNL     1      -4.644   3.556  -0.497  0.00  0.00    -0.270 OA
ATOM     10  N   UNL     1      -4.154   1.401  -0.269  0.00  0.00    -0.309 N 
ATOM     11  H   UNL     1      -3.475   0.712  -0.200  0.00  0.00    +0.149 HD
BRANCH   8  14
ATOM     12  C   UNL     1      -2.624   5.585  -0.729  0.00  0.00    +0.087 C 
ATOM     13  C   UNL     1      -1.838   4.307  -0.596  0.00  0.00    +0.114 A 
ATOM     14  C   UNL     1      -2.365   3.056  -0.459  0.00  0.00    +0.077 A 
ATOM     15  C   UNL     1      -1.213   2.148  -0.368  0.00  0.00    +0.054 A 
ATOM     16  C   UNL     1      -0.123   2.925  -0.459  0.00  0.00    +0.196 A 
ATOM     17  O   UNL     1      -0.505   4.204  -0.599  0.00  0.00    -0.467 OA
ENDBRANCH   8  14
ENDBRANCH   1  10
BRANCH   4  18
ATOM     18  C   UNL     1      -9.035  -1.135   0.982  0.00  0.00    +0.016 C 
ATOM     19  C   UNL     1      -9.147  -2.579   0.487  0.00  0.00    -0.004 C 
BRANCH  18  20
ATOM     20  C   UNL     1      -9.451  -1.066   2.428  0.00  0.00    +0.199 C 
ATOM     21  O   UNL     1      -8.618  -1.163   3.304  0.00  0.00    -0.278 OA
ATOM     22  N   UNL     1     -10.749  -0.895   2.748  0.00  0.00    -0.314 N 
ATOM     23  H   UNL     1     -11.415  -0.817   2.047  0.00  0.00    +0.149 HD
BRANCH  22  24
ATOM     24  C   UNL     1     -11.154  -0.827   4.154  0.00  0.00    +0.076 C 
ATOM     25  C   UNL     1     -11.359  -2.244   4.695  0.00  0.00    +0.022 C 
ATOM     26  C   UNL     1     -12.449  -2.946   3.884  0.00  0.00    +0.002 C 
ATOM     27  C   UNL     1     -13.757  -2.162   4.001  0.00  0.00    +0.000 C 
ATOM     28  C   UNL     1     -13.553  -0.746   3.460  0.00  0.00    +0.005 C 
ATOM     29  C   UNL     1     -12.462  -0.043   4.271  0.00  0.00    +0.006 C 
ATOM     30  C   UNL     1     -12.258   1.374   3.731  0.00  0.00    +0.009 C 
ENDBRANCH  22  24
ENDBRANCH  18  20
ENDBRANCH   4  18
TORSDOF 5
