REMARK  Name = ZINC09236220
REMARK  7 active torsions:
REMARK  status: ('A' for Active; 'I' for Inactive)
REMARK    1  A    between atoms: C_1  and  C_2
REMARK    2  A    between atoms: C_2  and  C_3
REMARK    3  A    between atoms: C_3  and  C_5
REMARK    4  A    between atoms: C_3  and  N_6
REMARK    5  A    between atoms: C_10  and  C_11
REMARK    6  A    between atoms: N_27  and  C_34
REMARK    7  A    between atoms: N_30  and  C_33
REMARK                            x       y       z     vdW  Elec       q    Type
REMARK                         _______ _______ _______ _____ _____    ______ ____
ROOT
ATOM      1  C   UNL     1       1.389  -0.740   0.292  0.00  0.00    -0.024 A 
ATOM      2  C   UNL     1       2.603  -0.262   0.809  0.00  0.00    +0.010 A 
ATOM      3  C   UNL     1       2.746   1.068   1.069  0.00  0.00    +0.024 A 
ATOM      4  C   UNL     1       1.695   1.958   0.831  0.00  0.00    +0.033 A 
ATOM      5  C   UNL     1       0.475   1.485   0.340  0.00  0.00    -0.024 A 
ATOM      6  C   UNL     1       0.331   0.151   0.066  0.00  0.00    +0.013 A 
ATOM      7  C   UNL     1      -0.715   2.384   0.120  0.00  0.00    +0.064 C 
ATOM      8  C   UNL     1      -0.343   3.862   0.293  0.00  0.00    +0.146 C 
ATOM      9  C   UNL     1       0.611   3.944   1.482  0.00  0.00    +0.098 C 
ATOM     10  N   UNL     1       1.873   3.295   1.052  0.00  0.00    -0.325 N 
ATOM     11  C   UNL     1       2.891   3.735   2.001  0.00  0.00    +0.105 C 
ATOM     12  C   UNL     1       2.445   5.138   2.481  0.00  0.00    +0.021 C 
ATOM     13  C   UNL     1       1.075   5.380   1.790  0.00  0.00    +0.025 C 
ATOM     14  C   UNL     1       0.340   4.358  -0.948  0.00  0.00    +0.240 C 
ATOM     15  O   UNL     1       1.360   3.816  -1.316  0.00  0.00    -0.274 OA
ATOM     16  N   UNL     1      -0.147   5.385  -1.661  0.00  0.00    -0.228 N 
ATOM     17  C   UNL     1      -1.270   6.027  -1.305  0.00  0.00    +0.317 C 
ATOM     18  O   UNL     1      -1.664   6.952  -1.986  0.00  0.00    -0.252 OA
ATOM     19  N   UNL     1      -1.967   5.674  -0.214  0.00  0.00    -0.228 N 
ATOM     20  C   UNL     1      -1.583   4.662   0.576  0.00  0.00    +0.240 C 
ATOM     21  O   UNL     1      -2.254   4.384   1.547  0.00  0.00    -0.274 OA
ATOM     22  C   UNL     1      -3.184   6.417   0.122  0.00  0.00    +0.143 C 
ATOM     23  C   UNL     1       0.568   5.817  -2.865  0.00  0.00    +0.143 C 
ENDROOT
BRANCH   1  28
ATOM     24  N   UNL     1       3.203  -4.900  -1.509  0.00  0.00    -0.219 N 
ATOM     25  C   UNL     1       2.205  -4.309  -0.821  0.00  0.00    +0.259 C 
ATOM     26  O   UNL     1       1.314  -4.969  -0.320  0.00  0.00    -0.269 OA
ATOM     27  C   UNL     1       2.220  -2.838  -0.696  0.00  0.00    +0.100 C 
ATOM     28  C   UNL     1       1.228  -2.161  -0.011  0.00  0.00    +0.026 C 
ATOM     29  C   UNL     1       3.344  -2.123  -1.331  0.00  0.00    +0.257 C 
ATOM     30  O   UNL     1       3.429  -0.911  -1.268  0.00  0.00    -0.270 OA
ATOM     31  N   UNL     1       4.275  -2.850  -1.983  0.00  0.00    -0.236 N 
ATOM     32  C   UNL     1       4.193  -4.186  -2.061  0.00  0.00    +0.316 C 
ATOM     33  O   UNL     1       5.065  -4.780  -2.664  0.00  0.00    -0.252 OA
ATOM     34  H   UNL     1       5.020  -2.396  -2.406  0.00  0.00    +0.159 HD
BRANCH  24  35
ATOM     35  C   UNL     1       3.207  -6.358  -1.652  0.00  0.00    +0.083 C 
ATOM     36  C   UNL     1       3.160  -6.725  -3.137  0.00  0.00    +0.028 C 
BRANCH  35  38
ATOM     37  C   UNL     1       4.469  -6.669   0.482  0.00  0.00    +0.006 C 
ATOM     38  C   UNL     1       4.482  -6.928  -1.026  0.00  0.00    +0.019 C 
ENDBRANCH  35  38
ENDBRANCH  24  35
ENDBRANCH   1  28
TORSDOF 3
