REMARK  Name = ZINC03376469
REMARK  10 active torsions:
REMARK  status: ('A' for Active; 'I' for Inactive)
REMARK    1  A    between atoms: C_1  and  C_2
REMARK    2  A    between atoms: C_2  and  C_4
REMARK    3  A    between atoms: C_2  and  N_52
REMARK    4  A    between atoms: C_7  and  S_16
REMARK    5  A    between atoms: N_8  and  C_9
REMARK    6  A    between atoms: S_16  and  C_17
REMARK    7  A    between atoms: C_17  and  C_19
REMARK    8  A    between atoms: C_17  and  C_20
REMARK    9  A    between atoms: C_30  and  N_52
REMARK   10  A    between atoms: C_31  and  N_52
REMARK                            x       y       z     vdW  Elec       q    Type
REMARK                         _______ _______ _______ _____ _____    ______ ____
ROOT
ATOM      1  C   UNL     1       8.136   7.424  -1.530  0.00  0.00    +0.125 A 
ATOM      2  N   UNL     1       8.474   6.263  -1.045  0.00  0.00    -0.135 NA
ATOM      3  N   UNL     1       7.424   5.570  -0.783  0.00  0.00    -0.122 NA
ATOM      4  C   UNL     1       6.348   6.252  -1.099  0.00  0.00    +0.197 A 
ATOM      5  N   UNL     1       6.768   7.460  -1.583  0.00  0.00    -0.275 N 
ENDROOT
BRANCH   5   6
ATOM      6  C   UNL     1       5.965   8.516  -2.038  0.00  0.00    +0.050 A 
ATOM      7  C   UNL     1       6.015   8.904  -3.370  0.00  0.00    +0.028 A 
ATOM      8  C   UNL     1       5.220   9.941  -3.817  0.00  0.00    +0.022 A 
ATOM      9  C   UNL     1       4.381  10.600  -2.937  0.00  0.00    +0.041 A 
ATOM     10  C   UNL     1       4.333  10.219  -1.607  0.00  0.00    +0.022 A 
ATOM     11  C   UNL     1       5.122   9.179  -1.157  0.00  0.00    +0.028 A 
ATOM     12 CL   UNL     1       3.387  11.907  -3.500  0.00  0.00    -0.084 Cl
ENDBRANCH   5   6
BRANCH   1  14
ATOM     13  C   UNL     1       9.649   9.211  -0.715  0.00  0.00    -0.005 C 
ATOM     14  C   UNL     1       9.076   8.523  -1.955  0.00  0.00    -0.003 C 
BRANCH  14  17
ATOM     15  C   UNL     1      11.043   9.006  -3.281  0.00  0.00    -0.096 C 
ATOM     16  C   UNL     1      10.941   6.979  -1.960  0.00  0.00    -0.096 C 
ATOM     17  N   UNL     1      10.160   7.936  -2.771  0.00  0.00    +0.382 N 
ATOM     18  H   UNL     1       9.746   7.438  -3.567  0.00  0.00    -0.082 HD
ENDBRANCH  14  17
ENDBRANCH   1  14
BRANCH   4  19
ATOM     19  S   UNL     1       4.678   5.715  -0.925  0.00  0.00    -0.073 S 
BRANCH  19  20
ATOM     20  C   UNL     1       4.950   4.062  -0.240  0.00  0.00    +0.137 C 
ATOM     21  C   UNL     1       5.595   4.182   1.142  0.00  0.00    +0.029 C 
BRANCH  20  22
ATOM     22  C   UNL     1       3.629   3.346  -0.117  0.00  0.00    +0.231 C 
ATOM     23  O   UNL     1       2.595   3.980  -0.104  0.00  0.00    -0.274 OA
ATOM     24  N   UNL     1       3.597   2.002  -0.022  0.00  0.00    -0.269 N 
ATOM     25  C   UNL     1       2.374   1.332  -0.016  0.00  0.00    +0.125 A 
ATOM     26  C   UNL     1       2.350  -0.058  -0.025  0.00  0.00    +0.045 A 
ATOM     27  C   UNL     1       1.130  -0.710  -0.018  0.00  0.00    +0.025 A 
ATOM     28  C   UNL     1      -0.030   0.054  -0.002  0.00  0.00    +0.059 A 
ATOM     29  C   UNL     1       0.069   1.433   0.006  0.00  0.00    +0.132 A 
ATOM     30  N   UNL     1       1.247   2.026  -0.001  0.00  0.00    -0.239 NA
ATOM     31 CL   UNL     1      -1.587  -0.714   0.007  0.00  0.00    -0.082 Cl
ATOM     32  H   UNL     1       4.425   1.501   0.041  0.00  0.00    +0.156 HD
ENDBRANCH  20  22
ENDBRANCH  19  20
ENDBRANCH   4  19
TORSDOF 6
