REMARK  Name = ZINC04729570
REMARK  5 active torsions:
REMARK  status: ('A' for Active; 'I' for Inactive)
REMARK    1  A    between atoms: C_1  and  C_2
REMARK    2  A    between atoms: C_5  and  C_8
REMARK    3  A    between atoms: C_10  and  C_24
REMARK    4  A    between atoms: C_13  and  C_15
REMARK    5  A    between atoms: C_29  and  O_30
REMARK                            x       y       z     vdW  Elec       q    Type
REMARK                         _______ _______ _______ _____ _____    ______ ____
ROOT
ATOM      1  C   UNL     1      -1.996   3.229   0.032  0.00  0.00    +0.081 C 
ATOM      2  C   UNL     1      -0.753   1.593  -1.233  0.00  0.00    -0.028 C 
ATOM      3  C   UNL     1      -0.013   1.086   0.008  0.00  0.00    +0.044 C 
ATOM      4  C   UNL     1      -0.716   1.571   1.245  0.00  0.00    +0.040 C 
ATOM      5  N   UNL     1      -1.580   2.516   1.233  0.00  0.00    -0.299 NA
ATOM      6  N   UNL     1      -1.023   3.033  -1.054  0.00  0.00    +0.401 N 
ATOM      7  H   UNL     1      -0.148   3.517  -0.819  0.00  0.00    -0.081 HD
ATOM      8  H   UNL     1      -1.404   3.419  -1.926  0.00  0.00    -0.081 HD
ENDROOT
BRANCH   4   9
ATOM      9  C   UNL     1      -0.397   0.927   2.533  0.00  0.00    -0.001 A 
ATOM     10  C   UNL     1       0.540  -0.108   2.585  0.00  0.00    +0.013 A 
ATOM     11  C   UNL     1       0.837  -0.708   3.789  0.00  0.00    +0.050 A 
ATOM     12  C   UNL     1       0.208  -0.288   4.954  0.00  0.00    +0.166 A 
ATOM     13  C   UNL     1      -0.729   0.745   4.908  0.00  0.00    +0.167 A 
ATOM     14  C   UNL     1      -1.027   1.355   3.704  0.00  0.00    +0.059 A 
ATOM     15  O   UNL     1      -1.195   0.966   6.172  0.00  0.00    -0.453 OA
ATOM     16  C   UNL     1      -0.841  -0.210   6.923  0.00  0.00    +0.466 C 
ATOM     17  O   UNL     1       0.326  -0.711   6.245  0.00  0.00    -0.453 OA
ENDBRANCH   4   9
BRANCH   1  22
ATOM     18  C   UNL     1      -7.161   1.261  -1.655  0.00  0.00    +0.044 C 
ATOM     19  C   UNL     1      -5.814   1.774  -1.215  0.00  0.00    -0.050 A 
ATOM     20  C   UNL     1      -5.465   1.742   0.122  0.00  0.00    +0.003 A 
ATOM     21  C   UNL     1      -4.229   2.212   0.525  0.00  0.00    +0.004 A 
ATOM     22  C   UNL     1      -3.343   2.716  -0.408  0.00  0.00    -0.040 A 
ATOM     23  C   UNL     1      -3.694   2.753  -1.745  0.00  0.00    +0.004 A 
ATOM     24  C   UNL     1      -4.928   2.278  -2.149  0.00  0.00    +0.003 A 
ENDBRANCH   1  22
BRANCH   2  25
ATOM     25  C   UNL     1       0.103   1.387  -2.456  0.00  0.00    -0.019 A 
ATOM     26  C   UNL     1       0.901   2.414  -2.922  0.00  0.00    +0.005 A 
ATOM     27  C   UNL     1       1.687   2.226  -4.043  0.00  0.00    +0.000 A 
ATOM     28  C   UNL     1       1.677   1.010  -4.702  0.00  0.00    +0.004 A 
ATOM     29  C   UNL     1       0.881  -0.020  -4.240  0.00  0.00    +0.045 A 
ATOM     30  C   UNL     1       0.095   0.165  -3.111  0.00  0.00    +0.118 A 
BRANCH  30  31
ATOM     31  O   UNL     1      -0.686  -0.848  -2.652  0.00  0.00    -0.507 OA
ATOM     32  H   UNL     1      -1.575  -0.863  -3.031  0.00  0.00    +0.292 HD
ENDBRANCH  30  31
ENDBRANCH   2  25
TORSDOF 4
