REMARK  Name = ZINC36156739
REMARK  12 active torsions:
REMARK  status: ('A' for Active; 'I' for Inactive)
REMARK    1  A    between atoms: C_1  and  C_2
REMARK    2  A    between atoms: C_2  and  C_3
REMARK    3  A    between atoms: C_3  and  C_4
REMARK    4  A    between atoms: C_4  and  O_6
REMARK    5  A    between atoms: O_6  and  C_7
REMARK    6  A    between atoms: C_7  and  C_8
REMARK    7  A    between atoms: C_8  and  C_10
REMARK    8  A    between atoms: C_8  and  O_34
REMARK    9  A    between atoms: C_10  and  N_11
REMARK   10  A    between atoms: N_11  and  C_12
REMARK   11  A    between atoms: N_11  and  C_28
REMARK   12  A    between atoms: C_12  and  C_13
REMARK                            x       y       z     vdW  Elec       q    Type
REMARK                         _______ _______ _______ _____ _____    ______ ____
ROOT
ATOM      1  N   UNL     1       2.711  -6.708  -4.555  0.00  0.00    +0.388 N 
ATOM      2  H   UNL     1       3.538  -6.351  -5.010  0.00  0.00    -0.081 HD
ENDROOT
BRANCH   1   3
ATOM      3  C   UNL     1       1.526  -6.358  -5.349  0.00  0.00    -0.068 C 
ATOM      4  C   UNL     1       0.265  -6.818  -4.614  0.00  0.00    -0.015 C 
ATOM      5  C   UNL     1      -0.969  -6.453  -5.441  0.00  0.00    -0.002 C 
ATOM      6  C   UNL     1      -0.893  -7.145  -6.804  0.00  0.00    -0.000 C 
ATOM      7  C   UNL     1       0.368  -6.685  -7.539  0.00  0.00    -0.002 C 
ATOM      8  C   UNL     1       1.602  -7.050  -6.712  0.00  0.00    -0.015 C 
ENDBRANCH   1   3
BRANCH   1   9
ATOM      9  C   UNL     1       2.595  -6.117  -3.215  0.00  0.00    -0.043 C 
BRANCH   9  10
ATOM     10  C   UNL     1       2.688  -4.593  -3.321  0.00  0.00    +0.136 C 
BRANCH  10  11
ATOM     11  O   UNL     1       1.522  -4.089  -3.975  0.00  0.00    -0.390 OA
ATOM     12  H   UNL     1       0.704  -4.220  -3.477  0.00  0.00    +0.210 HD
ENDBRANCH  10  11
BRANCH  10  13
ATOM     13  C   UNL     1       2.787  -3.990  -1.918  0.00  0.00    +0.261 C 
BRANCH  13  14
ATOM     14  O   UNL     1       2.991  -2.579  -2.019  0.00  0.00    -0.462 OA
BRANCH  14  15
ATOM     15  C   UNL     1       3.099  -1.895  -0.870  0.00  0.00    +0.307 C 
ATOM     16  O   UNL     1       3.024  -2.475   0.188  0.00  0.00    -0.251 OA
BRANCH  15  17
ATOM     17  C   UNL     1       3.316  -0.404  -0.897  0.00  0.00    +0.120 C 
BRANCH  17  19
ATOM     18  C   UNL     1       3.623   1.639   0.507  0.00  0.00    +0.004 C 
ATOM     19  C   UNL     1       3.404   0.126   0.535  0.00  0.00    +0.008 C 
ENDBRANCH  17  19
ENDBRANCH  15  17
ENDBRANCH  14  15
ENDBRANCH  13  14
ENDBRANCH  10  13
ENDBRANCH   9  10
ENDBRANCH   1   9
BRANCH   1  20
ATOM     20  C   UNL     1       2.808  -8.169  -4.438  0.00  0.00    -0.003 C 
BRANCH  20  21
ATOM     21  C   UNL     1       3.477  -8.728  -5.668  0.00  0.00    +0.094 A 
ATOM     22  N   UNL     1       3.540 -10.073  -5.840  0.00  0.00    -0.312 N 
ATOM     23  H   UNL     1       3.152 -10.657  -5.168  0.00  0.00    +0.170 HD
ATOM     24  C   UNL     1       4.128 -10.614  -6.923  0.00  0.00    +0.260 A 
ATOM     25  O   UNL     1       4.175 -11.824  -7.063  0.00  0.00    -0.267 OA
ATOM     26  C   UNL     1       4.697  -9.744  -7.909  0.00  0.00    +0.075 A 
ATOM     27  C   UNL     1       5.380 -10.102  -9.152  0.00  0.00    -0.023 A 
ATOM     28  C   UNL     1       5.830  -9.086  -9.918  0.00  0.00    -0.004 A 
ATOM     29  S   UNL     1       5.377  -7.614  -9.040  0.00  0.00    -0.073 S 
ATOM     30  C   UNL     1       4.584  -8.370  -7.644  0.00  0.00    +0.116 A 
ATOM     31  N   UNL     1       3.982  -7.909  -6.551  0.00  0.00    -0.229 NA
ATOM     32  C   UNL     1       6.556  -9.187 -11.224  0.00  0.00    +0.043 C 
ATOM     33  C   UNL     1       7.048 -10.632 -11.395  0.00  0.00    +0.005 C 
ATOM     34  C   UNL     1       5.891 -11.584 -11.079  0.00  0.00    +0.005 C 
ATOM     35  C   UNL     1       5.585 -11.552  -9.582  0.00  0.00    +0.037 C 
ENDBRANCH  20  21
ENDBRANCH   1  20
TORSDOF 11
