REMARK  Name = ZINC27449946
REMARK  11 active torsions:
REMARK  status: ('A' for Active; 'I' for Inactive)
REMARK    1  A    between atoms: C_1  and  C_2
REMARK    2  A    between atoms: C_2  and  C_3
REMARK    3  A    between atoms: C_2  and  C_4
REMARK    4  A    between atoms: C_4  and  N_5
REMARK    5  A    between atoms: C_6  and  N_31
REMARK    6  A    between atoms: C_7  and  N_14
REMARK    7  A    between atoms: N_14  and  C_15
REMARK    8  A    between atoms: C_15  and  C_16
REMARK    9  A    between atoms: C_16  and  C_17
REMARK   10  A    between atoms: C_16  and  C_18
REMARK   11  A    between atoms: C_19  and  C_21
REMARK                            x       y       z     vdW  Elec       q    Type
REMARK                         _______ _______ _______ _____ _____    ______ ____
ROOT
ATOM      1  N   UNL     1      -0.308  -3.297   0.393  0.00  0.00    -0.280 N 
ATOM      2  C   UNL     1      -0.331  -4.061  -0.750  0.00  0.00    +0.127 A 
ATOM      3  C   UNL     1      -1.358  -3.889  -1.656  0.00  0.00    +0.140 A 
ATOM      4  C   UNL     1      -2.354  -2.934  -1.379  0.00  0.00    +0.277 A 
ATOM      5  O   UNL     1      -3.273  -2.762  -2.162  0.00  0.00    -0.266 OA
ATOM      6  N   UNL     1      -2.286  -2.211  -0.244  0.00  0.00    -0.273 N 
ATOM      7  H   UNL     1      -2.972  -1.553  -0.053  0.00  0.00    +0.173 HD
ATOM      8  C   UNL     1      -1.280  -2.396   0.629  0.00  0.00    +0.331 A 
ATOM      9  O   UNL     1      -1.245  -1.734   1.648  0.00  0.00    -0.246 OA
ENDROOT
BRANCH   3  10
ATOM     10  N   UNL     1      -1.408  -4.657  -2.838  0.00  0.00    -0.264 N 
ATOM     11  C   UNL     1      -1.355  -4.048  -4.041  0.00  0.00    +0.223 C 
ATOM     12  O   UNL     1      -1.352  -2.837  -4.108  0.00  0.00    -0.275 OA
BRANCH  11  13
ATOM     13  C   UNL     1      -1.297  -4.873  -5.301  0.00  0.00    +0.079 C 
ATOM     14  C   UNL     1      -1.731  -4.026  -6.519  0.00  0.00    +0.016 C 
ATOM     15  C   UNL     1      -0.482  -4.009  -7.453  0.00  0.00    -0.010 C 
ATOM     16  C   UNL     1       0.546  -3.100  -6.712  0.00  0.00    +0.004 C 
ATOM     17  C   UNL     1       0.987  -3.929  -5.484  0.00  0.00    +0.004 C 
ATOM     18  C   UNL     1       0.173  -5.290  -5.611  0.00  0.00    +0.001 C 
ATOM     19  C   UNL     1       0.107  -5.436  -7.174  0.00  0.00    +0.008 C 
ENDBRANCH  11  13
BRANCH  10  20
ATOM     20  C   UNL     1      -1.519  -6.116  -2.760  0.00  0.00    +0.117 C 
BRANCH  20  21
ATOM     21  C   UNL     1      -2.989  -6.523  -2.880  0.00  0.00    +0.001 C 
ATOM     22  C   UNL     1      -3.092  -8.047  -2.955  0.00  0.00    +0.009 C 
ATOM     23  C   UNL     1      -3.760  -6.019  -1.658  0.00  0.00    +0.009 C 
ENDBRANCH  20  21
ENDBRANCH  10  20
ENDBRANCH   3  10
BRANCH   2  24
ATOM     24  N   UNL     1       0.659  -4.984  -0.989  0.00  0.00    -0.343 N 
ATOM     25  H   UNL     1       1.414  -5.053  -0.384  0.00  0.00    +0.144 HD
ATOM     26  H   UNL     1       0.603  -5.567  -1.762  0.00  0.00    +0.144 HD
ENDBRANCH   2  24
BRANCH   1  27
ATOM     27  C   UNL     1       0.776  -3.469   1.363  0.00  0.00    +0.131 C 
BRANCH  27  29
ATOM     28  C   UNL     1       1.562  -4.808   3.320  0.00  0.00    +0.009 C 
ATOM     29  C   UNL     1       0.383  -4.539   2.383  0.00  0.00    +0.003 C 
ATOM     30  C   UNL     1      -0.816  -4.050   3.199  0.00  0.00    +0.009 C 
ENDBRANCH  27  29
ENDBRANCH   1  27
TORSDOF 7
