REMARK  Name = ZINC05487739
REMARK  10 active torsions:
REMARK  status: ('A' for Active; 'I' for Inactive)
REMARK    1  A    between atoms: C_1  and  C_2
REMARK    2  A    between atoms: C_5  and  S_8
REMARK    3  A    between atoms: S_8  and  O_11
REMARK    4  A    between atoms: O_11  and  C_12
REMARK    5  A    between atoms: C_21  and  N_27
REMARK    6  A    between atoms: N_27  and  C_28
REMARK    7  A    between atoms: C_28  and  C_29
REMARK    8  A    between atoms: C_29  and  N_56
REMARK    9  A    between atoms: C_30  and  N_56
REMARK   10  A    between atoms: C_31  and  N_56
REMARK                            x       y       z     vdW  Elec       q    Type
REMARK                         _______ _______ _______ _____ _____    ______ ____
ROOT
ATOM      1  C   UNL     1       1.186   2.082   0.231  0.00  0.00    +0.158 A 
ATOM      2  C   UNL     1      -0.011   1.372   0.248  0.00  0.00    +0.050 A 
ATOM      3  C   UNL     1       0.006  -0.008   0.202  0.00  0.00    +0.019 A 
ATOM      4  C   UNL     1       1.216  -0.668   0.139  0.00  0.00    +0.024 A 
ATOM      5  C   UNL     1       2.443   0.027   0.121  0.00  0.00    +0.040 A 
ATOM      6  C   UNL     1       2.399   1.431   0.169  0.00  0.00    +0.061 A 
ATOM      7  C   UNL     1       3.727  -0.657   0.054  0.00  0.00    +0.197 A 
ATOM      8  O   UNL     1       4.707   0.067   0.044  0.00  0.00    -0.287 OA
ATOM      9  C   UNL     1       4.004  -2.082  -0.003  0.00  0.00    +0.057 A 
ATOM     10  C   UNL     1       5.340  -2.540  -0.064  0.00  0.00    +0.039 A 
ATOM     11  C   UNL     1       5.601  -3.897  -0.119  0.00  0.00    +0.024 A 
ATOM     12  C   UNL     1       4.574  -4.825  -0.115  0.00  0.00    +0.003 A 
ATOM     13  C   UNL     1       3.257  -4.402  -0.056  0.00  0.00    +0.016 A 
ATOM     14  C   UNL     1       2.980  -3.053  -0.001  0.00  0.00    +0.025 A 
ATOM     15  S   UNL     1       1.316  -2.439   0.076  0.00  0.00    -0.088 S 
ENDROOT
BRANCH  10  16
ATOM     16  N   UNL     1       6.388  -1.628  -0.069  0.00  0.00    -0.345 N 
ATOM     17  H   UNL     1       6.205  -0.678  -0.135  0.00  0.00    +0.146 HD
BRANCH  16  18
ATOM     18  C   UNL     1       7.771  -2.102   0.026  0.00  0.00    +0.083 C 
BRANCH  18  19
ATOM     19  C   UNL     1       8.723  -0.905  -0.000  0.00  0.00    -0.061 C 
BRANCH  19  22
ATOM     20  C   UNL     1      11.059  -0.289  -0.164  0.00  0.00    -0.097 C 
ATOM     21  C   UNL     1      10.366  -2.001   1.401  0.00  0.00    -0.097 C 
ATOM     22  N   UNL     1      10.114  -1.400   0.075  0.00  0.00    +0.377 N 
ATOM     23  H   UNL     1      10.252  -2.117  -0.648  0.00  0.00    -0.083 HD
ENDBRANCH  19  22
ENDBRANCH  18  19
ENDBRANCH  16  18
ENDBRANCH  10  16
BRANCH   1  24
ATOM     24  O   UNL     1       1.159   3.441   0.278  0.00  0.00    -0.342 OA
BRANCH  24  25
ATOM     25  S   UNL     1       1.193   4.013   1.687  0.00  0.00    +0.151 S 
ATOM     26  O   UNL     1       0.949   5.408   1.565  0.00  0.00    -0.131 OA
ATOM     27  O   UNL     1       0.383   3.166   2.490  0.00  0.00    -0.131 OA
BRANCH  25  32
ATOM     28  C   UNL     1       6.844   3.422   3.716  0.00  0.00    +0.044 C 
ATOM     29  C   UNL     1       5.433   3.570   3.210  0.00  0.00    -0.050 A 
ATOM     30  C   UNL     1       5.058   4.715   2.533  0.00  0.00    +0.005 A 
ATOM     31  C   UNL     1       3.763   4.851   2.068  0.00  0.00    +0.031 A 
ATOM     32  C   UNL     1       2.843   3.841   2.280  0.00  0.00    +0.128 A 
ATOM     33  C   UNL     1       3.217   2.697   2.961  0.00  0.00    +0.031 A 
ATOM     34  C   UNL     1       4.513   2.560   3.422  0.00  0.00    +0.005 A 
ENDBRANCH  25  32
ENDBRANCH  24  25
ENDBRANCH   1  24
TORSDOF 7
