REMARK  Name = ZINC36586858
REMARK  14 active torsions:
REMARK  status: ('A' for Active; 'I' for Inactive)
REMARK    1  A    between atoms: C_1  and  C_2
REMARK    2  A    between atoms: C_5  and  S_8
REMARK    3  A    between atoms: S_8  and  C_11
REMARK    4  A    between atoms: C_11  and  N_12
REMARK    5  A    between atoms: C_13  and  C_15
REMARK    6  A    between atoms: C_15  and  C_17
REMARK    7  A    between atoms: C_15  and  N_23
REMARK    8  A    between atoms: N_23  and  C_34
REMARK    9  A    between atoms: C_24  and  C_26
REMARK   10  A    between atoms: C_30  and  O_33
REMARK   11  A    between atoms: C_31  and  O_32
REMARK   12  A    between atoms: C_34  and  C_35
REMARK   13  A    between atoms: C_34  and  C_36
REMARK   14  A    between atoms: C_34  and  C_37
REMARK                            x       y       z     vdW  Elec       q    Type
REMARK                         _______ _______ _______ _____ _____    ______ ____
ROOT
ATOM      1  C   UNL     1       2.153  -6.684   4.661  0.00  0.00    +0.166 C 
ENDROOT
BRANCH   1   2
ATOM      2  C   UNL     1       2.023  -5.161   4.721  0.00  0.00    +0.019 C 
ATOM      3  C   UNL     1       2.551  -4.657   6.066  0.00  0.00    +0.006 C 
ATOM      4  C   UNL     1       2.421  -3.133   6.126  0.00  0.00    +0.000 C 
ATOM      5  C   UNL     1       0.950  -2.741   5.975  0.00  0.00    +0.000 C 
ATOM      6  C   UNL     1       0.422  -3.245   4.631  0.00  0.00    +0.000 C 
ATOM      7  C   UNL     1       0.552  -4.768   4.571  0.00  0.00    +0.006 C 
ENDBRANCH   1   2
BRANCH   1   9
ATOM      8  N   UNL     1       0.636  -7.055   2.743  0.00  0.00    -0.295 N 
ATOM      9  C   UNL     1       1.878  -7.157   3.257  0.00  0.00    +0.235 C 
ATOM     10  O   UNL     1       2.773  -7.630   2.590  0.00  0.00    -0.274 OA
ATOM     11  H   UNL     1      -0.087  -6.705   3.287  0.00  0.00    +0.150 HD
BRANCH   8  12
ATOM     12  C   UNL     1       0.379  -7.471   1.362  0.00  0.00    +0.278 C 
BRANCH  12  13
ATOM     13  S   UNL     1      -0.226  -9.182   1.349  0.00  0.00    +0.013 S 
ATOM     14  O   UNL     1       0.595  -9.997   2.175  0.00  0.00    -0.168 OA
ATOM     15  O   UNL     1      -0.540  -9.579   0.022  0.00  0.00    -0.168 OA
BRANCH  13  20
ATOM     16  C   UNL     1      -5.543  -8.973   4.193  0.00  0.00    +0.044 C 
ATOM     17  C   UNL     1      -4.215  -9.025   3.483  0.00  0.00    -0.050 A 
ATOM     18  C   UNL     1      -4.156  -8.846   2.114  0.00  0.00    +0.005 A 
ATOM     19  C   UNL     1      -2.938  -8.893   1.462  0.00  0.00    +0.027 A 
ATOM     20  C   UNL     1      -1.778  -9.120   2.180  0.00  0.00    +0.090 A 
ATOM     21  C   UNL     1      -1.837  -9.298   3.549  0.00  0.00    +0.027 A 
ATOM     22  C   UNL     1      -3.055  -9.246   4.202  0.00  0.00    +0.005 A 
ENDBRANCH  13  20
ENDBRANCH  12  13
ENDBRANCH   8  12
ENDBRANCH   1   9
BRANCH   1  23
ATOM     23  N   UNL     1       3.510  -7.074   5.051  0.00  0.00    -0.281 N 
ATOM     24  C   UNL     1       3.716  -7.738   6.206  0.00  0.00    +0.251 C 
ATOM     25  O   UNL     1       2.798  -7.895   6.988  0.00  0.00    -0.270 OA
BRANCH  24  26
ATOM     26  C   UNL     1       5.054  -8.274   6.521  0.00  0.00    +0.082 A 
ATOM     27  C   UNL     1       6.061  -8.263   5.551  0.00  0.00    +0.017 A 
ATOM     28  C   UNL     1       7.309  -8.764   5.849  0.00  0.00    +0.005 A 
ATOM     29  C   UNL     1       7.574  -9.280   7.107  0.00  0.00    +0.049 A 
ATOM     30  C   UNL     1       6.587  -9.298   8.078  0.00  0.00    +0.159 A 
ATOM     31  C   UNL     1       5.323  -8.790   7.794  0.00  0.00    +0.171 A 
BRANCH  31  32
ATOM     32  O   UNL     1       4.354  -8.801   8.745  0.00  0.00    -0.503 OA
ATOM     33  H   UNL     1       3.817  -9.604   8.749  0.00  0.00    +0.292 HD
ENDBRANCH  31  32
BRANCH  30  34
ATOM     34  O   UNL     1       6.855  -9.806   9.310  0.00  0.00    -0.503 OA
ATOM     35  H   UNL     1       7.188  -9.153   9.941  0.00  0.00    +0.292 HD
ENDBRANCH  30  34
ENDBRANCH  24  26
BRANCH  23  36
ATOM     36  C   UNL     1       4.644  -6.743   4.184  0.00  0.00    +0.030 C 
ATOM     37  C   UNL     1       4.266  -5.573   3.275  0.00  0.00    +0.031 C 
ATOM     38  C   UNL     1       5.847  -6.352   5.046  0.00  0.00    +0.031 C 
ATOM     39  C   UNL     1       5.004  -7.959   3.329  0.00  0.00    +0.031 C 
ENDBRANCH  23  36
ENDBRANCH   1  23
TORSDOF 10
