REMARK  Name = ZINC46747966
REMARK  6 active torsions:
REMARK  status: ('A' for Active; 'I' for Inactive)
REMARK    1  A    between atoms: C_3  and  N_21
REMARK    2  A    between atoms: C_6  and  N_7
REMARK    3  A    between atoms: N_7  and  C_8
REMARK    4  A    between atoms: C_8  and  C_9
REMARK    5  A    between atoms: C_9  and  N_10
REMARK    6  A    between atoms: C_11  and  C_13
REMARK                            x       y       z     vdW  Elec       q    Type
REMARK                         _______ _______ _______ _____ _____    ______ ____
ROOT
ATOM      1  C   UNL     1      -2.610  -2.717   0.013  0.00  0.00    +0.123 C 
ENDROOT
BRANCH   1   2
ATOM      2  N   UNL     1      -2.588  -4.181   0.005  0.00  0.00    -0.310 N 
ATOM      3  C   UNL     1      -3.745  -4.873   0.013  0.00  0.00    +0.245 C 
ATOM      4  O   UNL     1      -4.807  -4.281   0.027  0.00  0.00    -0.270 OA
ATOM      5  H   UNL     1      -1.741  -4.654  -0.006  0.00  0.00    +0.149 HD
BRANCH   3   6
ATOM      6  C   UNL     1      -3.723  -6.351   0.005  0.00  0.00    +0.051 A 
ATOM      7  C   UNL     1      -2.506  -7.034  -0.005  0.00  0.00    +0.034 A 
ATOM      8  C   UNL     1      -2.492  -8.414  -0.013  0.00  0.00    +0.042 A 
ATOM      9  C   UNL     1      -3.683  -9.121  -0.011  0.00  0.00    +0.021 A 
ATOM     10  C   UNL     1      -4.893  -8.450  -0.001  0.00  0.00    +0.016 A 
ATOM     11  C   UNL     1      -4.920  -7.070   0.013  0.00  0.00    +0.026 A 
ATOM     12  I   UNL     1      -6.753  -6.056   0.037  0.00  0.00    -0.043 I 
ATOM     13 CL   UNL     1      -0.980  -9.265  -0.025  0.00  0.00    -0.084 Cl
ENDBRANCH   3   6
ENDBRANCH   1   2
BRANCH   1  14
ATOM     14  C   UNL     1      -1.175  -2.185   0.002  0.00  0.00    +0.120 C 
BRANCH  14  15
ATOM     15  N   UNL     1      -1.197  -0.720   0.010  0.00  0.00    -0.342 N 
ATOM     16  H   UNL     1      -2.044  -0.248   0.021  0.00  0.00    +0.146 HD
BRANCH  15  22
ATOM     17  C   UNL     1      -0.017   1.385   0.010  0.00  0.00    +0.025 A 
ATOM     18  C   UNL     1       1.171   2.090   0.002  0.00  0.00    +0.034 A 
ATOM     19  C   UNL     1       2.377   1.415  -0.013  0.00  0.00    +0.126 A 
ATOM     20  C   UNL     1       2.400   0.032  -0.022  0.00  0.00    +0.034 A 
ATOM     21  C   UNL     1       1.216  -0.679  -0.014  0.00  0.00    +0.025 A 
ATOM     22  C   UNL     1       0.002  -0.004   0.002  0.00  0.00    +0.027 A 
BRANCH  19  23
ATOM     23  N   UNL     1       3.648   2.174  -0.022  0.00  0.00    +0.056 N 
ATOM     24  O   UNL     1       3.630   3.383  -0.015  0.00  0.00    -0.126 OA
ATOM     25  O   UNL     1       4.704   1.585  -0.036  0.00  0.00    -0.126 OA
ENDBRANCH  19  23
ENDBRANCH  15  22
ENDBRANCH  14  15
ENDBRANCH   1  14
TORSDOF 6
