REMARK  Name = ZINC22644727
REMARK  7 active torsions:
REMARK  status: ('A' for Active; 'I' for Inactive)
REMARK    1  A    between atoms: C_1  and  C_2
REMARK    2  A    between atoms: C_2  and  C_4
REMARK    3  A    between atoms: C_2  and  S_16
REMARK    4  A    between atoms: N_6  and  C_7
REMARK    5  A    between atoms: C_12  and  C_13
REMARK    6  A    between atoms: C_13  and  C_15
REMARK    7  A    between atoms: S_16  and  C_17
REMARK                            x       y       z     vdW  Elec       q    Type
REMARK                         _______ _______ _______ _____ _____    ______ ____
ROOT
ATOM      1  S   UNL     1      -0.919   3.247   1.156  0.00  0.00    -0.073 S 
ENDROOT
BRANCH   1   2
ATOM      2  C   UNL     1      -1.871   3.693  -0.257  0.00  0.00    +0.192 A 
ATOM      3  N   UNL     1      -2.362   2.739  -1.040  0.00  0.00    -0.207 NA
ATOM      4  C   UNL     1      -3.083   3.012  -2.114  0.00  0.00    +0.129 A 
ATOM      5  C   UNL     1      -3.347   4.371  -2.447  0.00  0.00    +0.051 A 
ATOM      6  C   UNL     1      -4.113   4.904  -3.576  0.00  0.00    -0.025 A 
ATOM      7  C   UNL     1      -4.215   6.245  -3.667  0.00  0.00    -0.004 A 
ATOM      8  S   UNL     1      -3.312   6.873  -2.276  0.00  0.00    -0.073 S 
ATOM      9  C   UNL     1      -2.797   5.329  -1.573  0.00  0.00    +0.115 A 
ATOM     10  N   UNL     1      -2.090   4.975  -0.516  0.00  0.00    -0.214 NA
ATOM     11  C   UNL     1      -4.936   7.031  -4.719  0.00  0.00    +0.043 C 
ATOM     12  C   UNL     1      -5.239   6.098  -5.900  0.00  0.00    +0.005 C 
ATOM     13  C   UNL     1      -5.843   4.800  -5.357  0.00  0.00    +0.005 C 
ATOM     14  C   UNL     1      -4.773   4.000  -4.614  0.00  0.00    +0.037 C 
ATOM     15  N   UNL     1      -3.577   1.990  -2.904  0.00  0.00    -0.343 N 
ATOM     16  H   UNL     1      -4.177   2.224  -3.795  0.00  0.00    +0.144 HD
ATOM     17  H   UNL     1      -3.370   0.942  -2.640  0.00  0.00    +0.144 HD
ENDBRANCH   1   2
BRANCH   1  19
ATOM     18  C   UNL     1      -0.222   1.019  -0.263  0.00  0.00    +0.029 C 
ATOM     19  C   UNL     1      -0.961   1.444   1.008  0.00  0.00    +0.137 C 
BRANCH  19  20
ATOM     20  C   UNL     1      -0.293   0.825   2.208  0.00  0.00    +0.230 C 
ATOM     21  O   UNL     1       0.470   1.482   2.884  0.00  0.00    -0.274 OA
ATOM     22  N   UNL     1      -0.544  -0.459   2.532  0.00  0.00    -0.284 N 
ATOM     23  H   UNL     1      -1.305  -1.028   1.977  0.00  0.00    +0.155 HD
BRANCH  22  24
ATOM     24  C   UNL     1       0.158  -1.066   3.569  0.00  0.00    +0.044 A 
ATOM     25  C   UNL     1       1.419  -0.603   3.922  0.00  0.00    +0.024 A 
ATOM     26  C   UNL     1       2.112  -1.202   4.954  0.00  0.00    +0.002 A 
ATOM     27  C   UNL     1       1.564  -2.276   5.639  0.00  0.00    +0.001 A 
ATOM     28  C   UNL     1       0.318  -2.754   5.301  0.00  0.00    +0.013 A 
ATOM     29  C   UNL     1      -0.401  -2.154   4.260  0.00  0.00    +0.038 A 
BRANCH  29  30
ATOM     30  C   UNL     1      -1.730  -2.659   3.893  0.00  0.00    +0.162 C 
ATOM     31  O   UNL     1      -2.310  -2.197   2.933  0.00  0.00    -0.292 OA
ATOM     32  C   UNL     1      -2.373  -3.750   4.709  0.00  0.00    +0.091 C 
ENDBRANCH  29  30
ENDBRANCH  22  24
ENDBRANCH  19  20
ENDBRANCH   1  19
TORSDOF 5
