REMARK  Name = ZINC36064518
REMARK  14 active torsions:
REMARK  status: ('A' for Active; 'I' for Inactive)
REMARK    1  A    between atoms: C_1  and  C_2
REMARK    2  A    between atoms: C_2  and  C_3
REMARK    3  A    between atoms: C_4  and  C_34
REMARK    4  A    between atoms: C_5  and  C_24
REMARK    5  A    between atoms: C_8  and  C_13
REMARK    6  A    between atoms: C_14  and  N_16
REMARK    7  A    between atoms: N_16  and  C_17
REMARK    8  A    between atoms: C_17  and  C_18
REMARK    9  A    between atoms: C_27  and  O_32
REMARK   10  A    between atoms: C_28  and  O_30
REMARK   11  A    between atoms: O_30  and  C_31
REMARK   12  A    between atoms: O_32  and  C_33
REMARK   13  A    between atoms: C_34  and  O_36
REMARK   14  A    between atoms: O_36  and  C_37
REMARK                            x       y       z     vdW  Elec       q    Type
REMARK                         _______ _______ _______ _____ _____    ______ ____
ROOT
ATOM      1  C   UNL     1       0.794  -0.835  -1.480  0.00  0.00    +0.056 C 
ATOM      2  C   UNL     1       2.175  -0.863  -1.442  0.00  0.00    +0.083 C 
ATOM      3  C   UNL     1       2.914  -0.964  -2.758  0.00  0.00    +0.150 C 
ATOM      4  N   UNL     1       2.090  -1.026  -3.994  0.00  0.00    -0.267 N 
ATOM      5  C   UNL     1       2.547  -1.120  -5.294  0.00  0.00    +0.048 C 
ATOM      6  C   UNL     1       1.626  -1.163  -6.281  0.00  0.00    +0.072 C 
ATOM      7  S   UNL     1       0.100  -1.071  -5.365  0.00  0.00    -0.060 S 
ATOM      8  C   UNL     1       0.736  -0.984  -3.814  0.00  0.00    +0.166 C 
ATOM      9  N   UNL     1       0.153  -0.901  -2.636  0.00  0.00    -0.229 NA
ENDROOT
BRANCH   3  10
ATOM     10  C   UNL     1       3.828   0.230  -2.869  0.00  0.00    -0.018 A 
ATOM     11  C   UNL     1       3.297   1.486  -3.095  0.00  0.00    +0.009 A 
ATOM     12  C   UNL     1       4.131   2.584  -3.197  0.00  0.00    +0.050 A 
ATOM     13  C   UNL     1       5.502   2.426  -3.074  0.00  0.00    +0.162 A 
ATOM     14  C   UNL     1       6.036   1.162  -2.846  0.00  0.00    +0.162 A 
ATOM     15  C   UNL     1       5.194   0.066  -2.740  0.00  0.00    +0.055 A 
BRANCH  14  16
ATOM     16  O   UNL     1       7.381   1.002  -2.724  0.00  0.00    -0.491 OA
ATOM     17  C   UNL     1       7.867  -0.336  -2.596  0.00  0.00    +0.277 C 
ENDBRANCH  14  16
BRANCH  13  18
ATOM     18  O   UNL     1       6.324   3.505  -3.175  0.00  0.00    -0.491 OA
ATOM     19  C   UNL     1       5.705   4.772  -3.410  0.00  0.00    +0.277 C 
ENDBRANCH  13  18
ENDBRANCH   3  10
BRANCH   5  20
ATOM     20  C   UNL     1       3.986  -1.170  -5.593  0.00  0.00    +0.091 C 
ATOM     21  C   UNL     1       4.404  -1.443  -6.843  0.00  0.00    +0.239 C 
ATOM     22  O   UNL     1       3.506  -1.540  -7.853  0.00  0.00    -0.271 OA
BRANCH  21  23
ATOM     23  N   UNL     1       5.753  -1.625  -7.097  0.00  0.00    -0.308 N 
ATOM     24  H   UNL     1       6.389  -1.631  -6.364  0.00  0.00    +0.149 HD
BRANCH  23  25
ATOM     25  C   UNL     1       6.221  -1.810  -8.473  0.00  0.00    +0.141 C 
BRANCH  25  26
ATOM     26  C   UNL     1       7.699  -2.105  -8.466  0.00  0.00    -0.012 A 
ATOM     27  C   UNL     1       8.621  -1.072  -8.535  0.00  0.00    +0.008 A 
ATOM     28  C   UNL     1       9.970  -1.390  -8.525  0.00  0.00    +0.020 A 
ATOM     29  C   UNL     1      10.349  -2.717  -8.449  0.00  0.00    +0.111 A 
ATOM     30  N   UNL     1       9.444  -3.674  -8.385  0.00  0.00    -0.263 NA
ATOM     31  C   UNL     1       8.152  -3.408  -8.386  0.00  0.00    +0.115 A 
ENDBRANCH  25  26
ENDBRANCH  23  25
ENDBRANCH  21  23
ENDBRANCH   5  20
BRANCH   1  33
ATOM     32  C   UNL     1      -0.114   0.733   0.212  0.00  0.00    +0.010 C 
ATOM     33  C   UNL     1       0.012  -0.736  -0.196  0.00  0.00    +0.053 C 
ENDBRANCH   1  33
BRANCH   2  34
ATOM     34  C   UNL     1       2.867  -0.799  -0.227  0.00  0.00    +0.339 C 
ATOM     35  O   UNL     1       2.258  -0.607   0.812  0.00  0.00    -0.245 OA
BRANCH  34  36
ATOM     36  O   UNL     1       4.209  -0.950  -0.204  0.00  0.00    -0.465 OA
ATOM     37  C   UNL     1       4.850  -0.874   1.071  0.00  0.00    +0.280 C 
ENDBRANCH  34  36
ENDBRANCH   2  34
TORSDOF 10
