REMARK  Name = ZINC15106494
REMARK  10 active torsions:
REMARK  status: ('A' for Active; 'I' for Inactive)
REMARK    1  A    between atoms: C_1  and  C_2
REMARK    2  A    between atoms: C_2  and  C_3
REMARK    3  A    between atoms: C_2  and  C_4
REMARK    4  A    between atoms: C_2  and  C_5
REMARK    5  A    between atoms: C_14  and  C_20
REMARK    6  A    between atoms: C_23  and  O_35
REMARK    7  A    between atoms: C_24  and  O_26
REMARK    8  A    between atoms: O_26  and  C_27
REMARK    9  A    between atoms: C_27  and  C_28
REMARK   10  A    between atoms: O_35  and  C_36
REMARK                            x       y       z     vdW  Elec       q    Type
REMARK                         _______ _______ _______ _____ _____    ______ ____
ROOT
ATOM      1  C   UNL     1      -2.334   3.965  -4.833  0.00  0.00    -0.000 C 
ATOM      2  C   UNL     1      -0.977   3.896  -4.128  0.00  0.00    +0.009 C 
ATOM      3  C   UNL     1      -1.176   3.663  -2.630  0.00  0.00    +0.036 C 
ATOM      4  C   UNL     1      -2.072   2.442  -2.437  0.00  0.00    -0.032 A 
ATOM      5  C   UNL     1      -2.847   1.993  -3.459  0.00  0.00    -0.005 A 
ATOM      6  S   UNL     1      -3.689   0.588  -2.775  0.00  0.00    -0.078 S 
ATOM      7  C   UNL     1      -2.973   0.659  -1.159  0.00  0.00    +0.076 A 
ATOM      8  C   UNL     1      -2.136   1.741  -1.223  0.00  0.00    -0.008 A 
ATOM      9  C   UNL     1      -1.333   2.112   0.020  0.00  0.00    +0.060 C 
ATOM     10  C   UNL     1      -2.134   1.711   1.257  0.00  0.00    +0.109 C 
ATOM     11  C   UNL     1      -2.697   0.323   1.138  0.00  0.00    +0.218 C 
ATOM     12  O   UNL     1      -2.738  -0.391   2.118  0.00  0.00    -0.275 OA
ATOM     13  N   UNL     1      -3.159  -0.143  -0.049  0.00  0.00    -0.280 N 
ATOM     14  C   UNL     1      -2.958   2.561  -4.837  0.00  0.00    +0.046 C 
ATOM     15  H   UNL     1      -3.603  -1.003  -0.115  0.00  0.00    +0.155 HD
ENDROOT
BRANCH   9  16
ATOM     16  C   UNL     1      -0.017   1.378   0.010  0.00  0.00    -0.036 A 
ATOM     17  C   UNL     1       0.002  -0.004   0.002  0.00  0.00    +0.008 A 
ATOM     18  C   UNL     1       1.207  -0.682  -0.013  0.00  0.00    +0.050 A 
ATOM     19  C   UNL     1       2.399   0.024  -0.020  0.00  0.00    +0.162 A 
ATOM     20  C   UNL     1       2.380   1.415  -0.013  0.00  0.00    +0.163 A 
ATOM     21  C   UNL     1       1.169   2.089   0.002  0.00  0.00    +0.053 A 
BRANCH  19  22
ATOM     22  O   UNL     1       3.585  -0.641  -0.035  0.00  0.00    -0.491 OA
ATOM     23  C   UNL     1       3.528  -2.069  -0.042  0.00  0.00    +0.277 C 
ENDBRANCH  19  22
BRANCH  20  24
ATOM     24  O   UNL     1       3.548   2.113  -0.020  0.00  0.00    -0.484 OA
BRANCH  24  25
ATOM     25  C   UNL     1       3.452   3.539  -0.012  0.00  0.00    +0.267 C 
BRANCH  25  26
ATOM     26  C   UNL     1       4.835   4.135  -0.021  0.00  0.00    +0.025 A 
ATOM     27  C   UNL     1       5.944   3.310  -0.030  0.00  0.00    +0.010 A 
ATOM     28  C   UNL     1       7.213   3.857  -0.044  0.00  0.00    +0.001 A 
ATOM     29  C   UNL     1       7.376   5.230  -0.039  0.00  0.00    +0.003 A 
ATOM     30  C   UNL     1       6.269   6.057  -0.025  0.00  0.00    +0.039 A 
ATOM     31  C   UNL     1       4.997   5.510  -0.016  0.00  0.00    +0.130 A 
ATOM     32  F   UNL     1       3.914   6.318  -0.002  0.00  0.00    -0.205 F 
ENDBRANCH  25  26
ENDBRANCH  24  25
ENDBRANCH  20  24
ENDBRANCH   9  16
BRANCH   1  34
ATOM     33  C   UNL     1      -3.502   4.496  -6.977  0.00  0.00    +0.011 C 
ATOM     34  C   UNL     1      -2.145   4.447  -6.273  0.00  0.00    -0.035 C 
ATOM     35  C   UNL     1      -1.524   5.845  -6.265  0.00  0.00    +0.011 C 
ATOM     36  C   UNL     1      -1.219   3.481  -7.016  0.00  0.00    +0.011 C 
ENDBRANCH   1  34
TORSDOF 6
