REMARK  Name = ZINC36370275
REMARK  8 active torsions:
REMARK  status: ('A' for Active; 'I' for Inactive)
REMARK    1  A    between atoms: C_1  and  C_2
REMARK    2  A    between atoms: C_2  and  C_4
REMARK    3  A    between atoms: C_2  and  N_23
REMARK    4  A    between atoms: C_4  and  C_6
REMARK    5  A    between atoms: C_4  and  N_11
REMARK    6  A    between atoms: N_14  and  C_17
REMARK    7  A    between atoms: N_23  and  S_24
REMARK    8  A    between atoms: S_24  and  C_27
REMARK                            x       y       z     vdW  Elec       q    Type
REMARK                         _______ _______ _______ _____ _____    ______ ____
ROOT
ATOM      1  C   UNL     1      -1.423  -0.676  -0.050  0.00  0.00    +0.112 C 
ENDROOT
BRANCH   1   2
ATOM      2  N   UNL     1      -2.073  -0.263  -1.301  0.00  0.00    -0.290 NA
ATOM      3  C   UNL     1      -2.025   1.196  -1.462  0.00  0.00    +0.104 C 
ATOM      4  C   UNL     1      -2.546   1.570  -2.854  0.00  0.00    +0.120 C 
ATOM      5  N   UNL     1      -3.877   0.969  -3.031  0.00  0.00    -0.327 N 
ATOM      6  C   UNL     1      -4.034  -0.467  -2.754  0.00  0.00    +0.120 C 
ATOM      7  C   UNL     1      -3.454  -0.761  -1.367  0.00  0.00    +0.104 C 
BRANCH   5   8
ATOM      8  C   UNL     1      -4.962   1.740  -3.452  0.00  0.00    +0.030 A 
ATOM      9  C   UNL     1      -4.811   3.107  -3.646  0.00  0.00    +0.023 A 
ATOM     10  C   UNL     1      -5.886   3.868  -4.062  0.00  0.00    +0.002 A 
ATOM     11  C   UNL     1      -7.113   3.269  -4.286  0.00  0.00    +0.000 A 
ATOM     12  C   UNL     1      -7.267   1.908  -4.094  0.00  0.00    +0.002 A 
ATOM     13  C   UNL     1      -6.194   1.141  -3.683  0.00  0.00    +0.023 A 
ENDBRANCH   5   8
ENDBRANCH   1   2
BRANCH   1  14
ATOM     14  C   UNL     1      -1.421  -2.180   0.042  0.00  0.00    +0.008 A 
ATOM     15  C   UNL     1      -1.645  -2.970   1.121  0.00  0.00    +0.013 A 
ATOM     16  C   UNL     1      -1.592  -4.343   0.969  0.00  0.00    +0.008 A 
ATOM     17  C   UNL     1      -1.317  -4.859  -0.254  0.00  0.00    +0.045 A 
ATOM     18  S   UNL     1      -1.130  -3.385  -1.243  0.00  0.00    -0.100 S 
ENDBRANCH   1  14
BRANCH   1  20
ATOM     19  C   UNL     1       0.688  -0.574   1.283  0.00  0.00    +0.027 C 
ATOM     20  C   UNL     1       0.017  -0.161  -0.029  0.00  0.00    +0.095 C 
BRANCH  20  21
ATOM     21  N   UNL     1       0.756  -0.734  -1.157  0.00  0.00    -0.185 NA
ATOM     22  H   UNL     1       0.567  -1.638  -1.452  0.00  0.00    +0.148 HD
BRANCH  21  23
ATOM     23  S   UNL     1       1.917   0.162  -1.927  0.00  0.00    +0.059 S 
ATOM     24  O   UNL     1       2.463  -0.668  -2.943  0.00  0.00    -0.153 OA
ATOM     25  O   UNL     1       1.333   1.427  -2.208  0.00  0.00    -0.153 OA
BRANCH  23  26
ATOM     26  C   UNL     1       3.209   0.451  -0.764  0.00  0.00    +0.105 A 
ATOM     27  C   UNL     1       3.170   1.568   0.049  0.00  0.00    +0.029 A 
ATOM     28  C   UNL     1       4.183   1.795   0.961  0.00  0.00    +0.017 A 
ATOM     29  C   UNL     1       5.236   0.904   1.060  0.00  0.00    +0.018 A 
ATOM     30  C   UNL     1       5.275  -0.214   0.246  0.00  0.00    +0.017 A 
ATOM     31  C   UNL     1       4.259  -0.443  -0.662  0.00  0.00    +0.029 A 
ATOM     32 BR   UNL     1       6.623   1.214   2.308  0.00  0.00    -0.050 Br
ENDBRANCH  23  26
ENDBRANCH  21  23
ENDBRANCH  20  21
ENDBRANCH   1  20
TORSDOF 7
