REMARK  Name = ZINC16012574
REMARK  4 active torsions:
REMARK  status: ('A' for Active; 'I' for Inactive)
REMARK    1  A    between atoms: C_1  and  C_2
REMARK    2  A    between atoms: C_2  and  C_3
REMARK    3  A    between atoms: C_2  and  C_4
REMARK    4  A    between atoms: N_12  and  C_15
REMARK                            x       y       z     vdW  Elec       q    Type
REMARK                         _______ _______ _______ _____ _____    ______ ____
ROOT
ATOM      1  C   UNL     1      -1.343  -0.540  -0.002  0.00  0.00    +0.070 C 
ATOM      2  C   UNL     1      -1.402  -2.075   0.145  0.00  0.00    +0.107 C 
ATOM      3  C   UNL     1      -2.622  -2.341   1.071  0.00  0.00    +0.123 C 
ATOM      4  C   UNL     1      -1.994  -2.939   2.311  0.00  0.00    +0.233 C 
ATOM      5  O   UNL     1      -2.599  -3.303   3.296  0.00  0.00    -0.274 OA
ATOM      6  N   UNL     1      -0.667  -3.004   2.150  0.00  0.00    -0.210 N 
ATOM      7  C   UNL     1      -0.218  -2.545   0.959  0.00  0.00    +0.232 C 
ATOM      8  O   UNL     1       0.939  -2.510   0.598  0.00  0.00    -0.274 OA
ATOM      9  C   UNL     1      -3.180  -0.946   1.382  0.00  0.00    +0.136 C 
ATOM     10  N   UNL     1      -2.046  -0.011   1.197  0.00  0.00    -0.295 NA
ATOM     11  C   UNL     1      -4.347  -0.612   0.496  0.00  0.00    +0.003 A 
ATOM     12  C   UNL     1      -4.503  -0.511  -0.868  0.00  0.00    +0.008 A 
ATOM     13  C   UNL     1      -5.735  -0.176  -1.401  0.00  0.00    +0.000 A 
ATOM     14  C   UNL     1      -6.808   0.059  -0.560  0.00  0.00    +0.002 A 
ATOM     15  C   UNL     1      -6.656  -0.040   0.807  0.00  0.00    +0.023 A 
ATOM     16  C   UNL     1      -5.419  -0.377   1.352  0.00  0.00    +0.039 A 
ATOM     17  N   UNL     1      -5.020  -0.535   2.681  0.00  0.00    -0.283 N 
ATOM     18  C   UNL     1      -3.719  -0.869   2.785  0.00  0.00    +0.243 C 
ATOM     19  O   UNL     1      -3.101  -1.068   3.809  0.00  0.00    -0.273 OA
ATOM     20  H   UNL     1      -1.436  -0.004   2.001  0.00  0.00    +0.124 HD
ATOM     21  H   UNL     1      -5.611  -0.418   3.441  0.00  0.00    +0.155 HD
ENDROOT
BRANCH   6  22
ATOM     22  C   UNL     1       0.192  -3.513   3.134  0.00  0.00    +0.045 A 
ATOM     23  C   UNL     1       0.148  -4.861   3.466  0.00  0.00    +0.025 A 
ATOM     24  C   UNL     1       0.995  -5.361   4.435  0.00  0.00    +0.023 A 
ATOM     25  C   UNL     1       1.887  -4.520   5.077  0.00  0.00    +0.059 A 
ATOM     26  C   UNL     1       1.933  -3.176   4.748  0.00  0.00    +0.061 A 
ATOM     27  C   UNL     1       1.091  -2.672   3.775  0.00  0.00    +0.045 A 
ATOM     28 CL   UNL     1       3.054  -2.124   5.555  0.00  0.00    -0.082 Cl
ATOM     29 CL   UNL     1       2.950  -5.152   6.295  0.00  0.00    -0.082 Cl
ENDBRANCH   6  22
BRANCH   1  31
ATOM     30  C   UNL     1       0.776  -0.504  -1.325  0.00  0.00    +0.009 C 
ATOM     31  C   UNL     1       0.111  -0.063  -0.020  0.00  0.00    +0.001 C 
ATOM     32  C   UNL     1       0.148   1.464   0.081  0.00  0.00    +0.009 C 
ENDBRANCH   1  31
TORSDOF 2
