REMARK  Name = ZINC42182944
REMARK  15 active torsions:
REMARK  status: ('A' for Active; 'I' for Inactive)
REMARK    1  A    between atoms: C_1  and  C_2
REMARK    2  A    between atoms: C_2  and  C_4
REMARK    3  A    between atoms: C_2  and  N_16
REMARK    4  A    between atoms: C_7  and  O_12
REMARK    5  A    between atoms: C_8  and  O_10
REMARK    6  A    between atoms: O_10  and  C_11
REMARK    7  A    between atoms: O_12  and  C_13
REMARK    8  A    between atoms: C_13  and  C_14
REMARK    9  A    between atoms: C_13  and  C_15
REMARK   10  A    between atoms: N_16  and  C_17
REMARK   11  A    between atoms: C_17  and  C_19
REMARK   12  A    between atoms: C_17  and  C_20
REMARK   13  A    between atoms: N_25  and  C_26
REMARK   14  A    between atoms: C_26  and  C_27
REMARK   15  A    between atoms: C_26  and  C_28
REMARK                            x       y       z     vdW  Elec       q    Type
REMARK                         _______ _______ _______ _____ _____    ______ ____
ROOT
ATOM      1  N   UNL     1       0.153   0.598   1.129  0.00  0.00    +0.391 N 
ATOM      2  H   UNL     1       1.089   0.975   1.136  0.00  0.00    -0.084 HD
ATOM      3  H   UNL     1      -0.398   1.050   1.843  0.00  0.00    -0.084 HD
ENDROOT
BRANCH   1   5
ATOM      4  C   UNL     1      -0.640   2.339  -0.400  0.00  0.00    -0.009 C 
ATOM      5  C   UNL     1      -0.460   0.835  -0.185  0.00  0.00    -0.043 C 
BRANCH   5   6
ATOM      6  C   UNL     1       0.432   0.277  -1.264  0.00  0.00    -0.058 A 
ATOM      7  C   UNL     1       1.804   0.415  -1.164  0.00  0.00    +0.006 A 
ATOM      8  C   UNL     1       2.627  -0.095  -2.151  0.00  0.00    +0.049 A 
ATOM      9  C   UNL     1       2.077  -0.747  -3.243  0.00  0.00    +0.162 A 
ATOM     10  C   UNL     1       0.696  -0.887  -3.342  0.00  0.00    +0.162 A 
ATOM     11  C   UNL     1      -0.123  -0.378  -2.348  0.00  0.00    +0.051 A 
BRANCH  10  12
ATOM     12  O   UNL     1       0.151  -1.527  -4.412  0.00  0.00    -0.491 OA
ATOM     13  C   UNL     1      -1.273  -1.634  -4.448  0.00  0.00    +0.277 C 
ENDBRANCH  10  12
BRANCH   9  14
ATOM     14  O   UNL     1       2.885  -1.250  -4.215  0.00  0.00    -0.486 OA
BRANCH  14  15
ATOM     15  C   UNL     1       4.294  -1.176  -3.989  0.00  0.00    +0.167 C 
ATOM     16  C   UNL     1       4.997  -2.275  -4.788  0.00  0.00    +0.051 C 
ATOM     17  C   UNL     1       4.812   0.192  -4.439  0.00  0.00    +0.051 C 
ENDBRANCH  14  15
ENDBRANCH   9  14
ENDBRANCH   5   6
ENDBRANCH   1   5
BRANCH   1  18
ATOM     18  C   UNL     1       0.205  -0.847   1.391  0.00  0.00    +0.014 C 
ATOM     19  C   UNL     1      -1.218  -1.392   1.523  0.00  0.00    -0.004 C 
BRANCH  18  20
ATOM     20  C   UNL     1       0.960  -1.097   2.671  0.00  0.00    +0.206 C 
ATOM     21  O   UNL     1       1.410  -0.165   3.303  0.00  0.00    -0.277 OA
ATOM     22  N   UNL     1       1.134  -2.358   3.115  0.00  0.00    -0.242 N 
ATOM     23  C   UNL     1       1.809  -2.583   4.260  0.00  0.00    +0.306 C 
ATOM     24  O   UNL     1       2.260  -1.648   4.892  0.00  0.00    -0.252 OA
ATOM     25  N   UNL     1       1.984  -3.844   4.703  0.00  0.00    -0.297 N 
ATOM     26  H   UNL     1       0.774  -3.104   2.610  0.00  0.00    +0.159 HD
ATOM     27  H   UNL     1       1.623  -4.589   4.198  0.00  0.00    +0.151 HD
BRANCH  25  28
ATOM     28  C   UNL     1       2.717  -4.088   5.947  0.00  0.00    +0.068 C 
ATOM     29  C   UNL     1       2.269  -5.420   6.550  0.00  0.00    +0.027 C 
ATOM     30  C   UNL     1       4.218  -4.140   5.653  0.00  0.00    +0.027 C 
ENDBRANCH  25  28
ENDBRANCH  18  20
ENDBRANCH   1  18
TORSDOF 8
