REMARK  Name = ZINC22362051
REMARK  8 active torsions:
REMARK  status: ('A' for Active; 'I' for Inactive)
REMARK    1  A    between atoms: C_1  and  C_2
REMARK    2  A    between atoms: C_2  and  C_35
REMARK    3  A    between atoms: C_4  and  N_13
REMARK    4  A    between atoms: C_14  and  C_16
REMARK    5  A    between atoms: C_16  and  N_17
REMARK    6  A    between atoms: N_17  and  C_18
REMARK    7  A    between atoms: N_17  and  S_25
REMARK    8  A    between atoms: S_25  and  C_28
REMARK                            x       y       z     vdW  Elec       q    Type
REMARK                         _______ _______ _______ _____ _____    ______ ____
ROOT
ATOM      1  N   UNL     1       1.016   4.327   1.591  0.00  0.00    -0.194 N 
ENDROOT
BRANCH   1   2
ATOM      2  C   UNL     1       2.163   4.647   2.320  0.00  0.00    +0.053 A 
ATOM      3  C   UNL     1       2.065   5.426   3.466  0.00  0.00    +0.025 A 
ATOM      4  C   UNL     1       3.201   5.741   4.186  0.00  0.00    +0.003 A 
ATOM      5  C   UNL     1       4.436   5.280   3.767  0.00  0.00    +0.020 A 
ATOM      6  C   UNL     1       4.538   4.503   2.627  0.00  0.00    +0.043 A 
ATOM      7  C   UNL     1       3.404   4.181   1.905  0.00  0.00    +0.044 A 
ATOM      8 CL   UNL     1       6.091   3.928   2.105  0.00  0.00    -0.083 Cl
ENDBRANCH   1   2
BRANCH   1   9
ATOM      9  S   UNL     1       0.877   4.810   0.013  0.00  0.00    +0.075 S 
ATOM     10  O   UNL     1       1.693   5.964  -0.132  0.00  0.00    -0.150 OA
ATOM     11  O   UNL     1      -0.511   4.815  -0.289  0.00  0.00    -0.150 OA
BRANCH   9  12
ATOM     12  C   UNL     1       1.604   3.551  -0.983  0.00  0.00    +0.109 A 
ATOM     13  C   UNL     1       0.857   2.450  -1.360  0.00  0.00    +0.030 A 
ATOM     14  C   UNL     1       1.426   1.462  -2.141  0.00  0.00    +0.022 A 
ATOM     15  C   UNL     1       2.744   1.575  -2.546  0.00  0.00    +0.041 A 
ATOM     16  C   UNL     1       3.491   2.677  -2.169  0.00  0.00    +0.022 A 
ATOM     17  C   UNL     1       2.921   3.664  -1.387  0.00  0.00    +0.030 A 
ATOM     18 CL   UNL     1       3.460   0.335  -3.527  0.00  0.00    -0.084 Cl
ENDBRANCH   9  12
ENDBRANCH   1   9
BRANCH   1  19
ATOM     19  C   UNL     1      -0.064   3.565   2.222  0.00  0.00    +0.227 C 
BRANCH  19  21
ATOM     20  N   UNL     1      -0.626   1.192   2.637  0.00  0.00    -0.307 N 
ATOM     21  C   UNL     1       0.235   2.092   2.121  0.00  0.00    +0.233 C 
ATOM     22  O   UNL     1       1.251   1.715   1.576  0.00  0.00    -0.274 OA
ATOM     23  H   UNL     1      -1.548   1.534   3.131  0.00  0.00    +0.149 HD
BRANCH  20  27
ATOM     24  C   UNL     1      -2.583  -3.349   2.745  0.00  0.00    +0.055 C 
ATOM     25  C   UNL     1      -1.302  -2.514   2.791  0.00  0.00    +0.107 C 
ATOM     26  C   UNL     1      -1.645  -1.031   2.600  0.00  0.00    +0.074 C 
ATOM     27  C   UNL     1      -0.336  -0.240   2.539  0.00  0.00    +0.110 C 
ATOM     28  C   UNL     1       0.558  -0.650   3.682  0.00  0.00    +0.015 A 
ATOM     29  C   UNL     1       1.609   0.180   4.037  0.00  0.00    +0.009 A 
ATOM     30  C   UNL     1       2.450  -0.165   5.076  0.00  0.00    +0.001 A 
ATOM     31  C   UNL     1       2.245  -1.345   5.768  0.00  0.00    +0.004 A 
ATOM     32  C   UNL     1       1.200  -2.175   5.419  0.00  0.00    +0.046 A 
ATOM     33  C   UNL     1       0.349  -1.830   4.374  0.00  0.00    +0.126 A 
ATOM     34  O   UNL     1      -0.672  -2.671   4.063  0.00  0.00    -0.486 OA
ATOM     35  C   UNL     1      -0.349  -2.970   1.684  0.00  0.00    +0.055 C 
ENDBRANCH  20  27
ENDBRANCH  19  21
ENDBRANCH   1  19
TORSDOF 6
