REMARK  Name = ZINC08424462
REMARK  9 active torsions:
REMARK  status: ('A' for Active; 'I' for Inactive)
REMARK    1  A    between atoms: C_1  and  C_2
REMARK    2  A    between atoms: C_2  and  O_3
REMARK    3  A    between atoms: O_3  and  C_4
REMARK    4  A    between atoms: C_4  and  C_6
REMARK    5  A    between atoms: C_7  and  C_35
REMARK    6  A    between atoms: C_14  and  C_15
REMARK    7  A    between atoms: C_21  and  C_23
REMARK    8  A    between atoms: C_32  and  O_33
REMARK    9  A    between atoms: O_33  and  C_34
REMARK                            x       y       z     vdW  Elec       q    Type
REMARK                         _______ _______ _______ _____ _____    ______ ____
ROOT
ATOM      1  C   UNL     1      -1.629  -6.125   0.378  0.00  0.00    +0.085 C 
ATOM      2  C   UNL     1      -0.542  -6.951   0.438  0.00  0.00    +0.053 C 
ATOM      3  N   UNL     1       0.688  -6.453   0.390  0.00  0.00    -0.228 NA
ATOM      4  C   UNL     1       0.972  -5.180   0.285  0.00  0.00    +0.178 A 
ATOM      5  N   UNL     1       0.028  -4.180   0.210  0.00  0.00    -0.275 N 
ATOM      6  C   UNL     1       0.453  -2.916   0.104  0.00  0.00    +0.268 A 
ATOM      7  O   UNL     1      -0.348  -2.001   0.036  0.00  0.00    -0.266 OA
ATOM      8  C   UNL     1       1.849  -2.651   0.073  0.00  0.00    +0.081 A 
ATOM      9  C   UNL     1       2.501  -1.458  -0.030  0.00  0.00    +0.035 C 
ATOM     10  S   UNL     1       2.520  -4.303   0.195  0.00  0.00    -0.046 S 
ATOM     11  C   UNL     1      -1.389  -4.637   0.257  0.00  0.00    +0.166 C 
ATOM     12  C   UNL     1      -0.740  -8.440   0.560  0.00  0.00    +0.066 C 
ENDROOT
BRANCH  11  13
ATOM     13  C   UNL     1      -2.072  -4.159  -0.998  0.00  0.00    +0.029 A 
ATOM     14  C   UNL     1      -3.349  -3.577  -0.929  0.00  0.00    -0.009 A 
ATOM     15  C   UNL     1      -4.011  -3.416   0.300  0.00  0.00    +0.009 A 
ATOM     16  C   UNL     1      -5.245  -2.843   0.331  0.00  0.00    +0.001 A 
ATOM     17  C   UNL     1      -5.862  -2.406  -0.840  0.00  0.00    +0.001 A 
ATOM     18  C   UNL     1      -5.249  -2.541  -2.048  0.00  0.00    +0.008 A 
ATOM     19  C   UNL     1      -3.974  -3.128  -2.119  0.00  0.00    -0.017 A 
ATOM     20  C   UNL     1      -3.311  -3.283  -3.349  0.00  0.00    +0.012 A 
ATOM     21  C   UNL     1      -2.078  -3.855  -3.383  0.00  0.00    +0.046 A 
ATOM     22  C   UNL     1      -1.456  -4.293  -2.209  0.00  0.00    +0.126 A 
BRANCH  22  23
ATOM     23  O   UNL     1      -0.223  -4.861  -2.275  0.00  0.00    -0.495 OA
ATOM     24  C   UNL     1       0.370  -4.974  -3.570  0.00  0.00    +0.277 C 
ENDBRANCH  22  23
ENDBRANCH  11  13
BRANCH   9  25
ATOM     25  C   UNL     1       1.775  -0.276  -0.300  0.00  0.00    +0.013 A 
ATOM     26  C   UNL     1       2.011   1.021   0.145  0.00  0.00    +0.015 A 
ATOM     27  C   UNL     1       1.138   1.992  -0.275  0.00  0.00    +0.008 A 
ATOM     28  C   UNL     1       0.104   1.650  -1.089  0.00  0.00    +0.046 A 
ATOM     29  S   UNL     1       0.314  -0.058  -1.301  0.00  0.00    -0.097 S 
ENDBRANCH   9  25
BRANCH   1  30
ATOM     30  C   UNL     1      -2.933  -6.643   0.428  0.00  0.00    +0.339 C 
ATOM     31  O   UNL     1      -3.107  -7.845   0.525  0.00  0.00    -0.245 OA
BRANCH  30  32
ATOM     32  O   UNL     1      -3.994  -5.809   0.367  0.00  0.00    -0.462 OA
BRANCH  32  34
ATOM     33  C   UNL     1      -6.359  -5.313   0.341  0.00  0.00    +0.048 C 
ATOM     34  C   UNL     1      -5.292  -6.406   0.423  0.00  0.00    +0.229 C 
ENDBRANCH  32  34
ENDBRANCH  30  32
ENDBRANCH   1  30
TORSDOF 6
