REMARK  Name = ZINC37139536
REMARK  9 active torsions:
REMARK  status: ('A' for Active; 'I' for Inactive)
REMARK    1  A    between atoms: C_1  and  C_2
REMARK    2  A    between atoms: C_2  and  C_4
REMARK    3  A    between atoms: C_2  and  N_12
REMARK    4  A    between atoms: C_7  and  O_11
REMARK    5  A    between atoms: C_9  and  O_10
REMARK    6  A    between atoms: N_12  and  C_13
REMARK    7  A    between atoms: C_18  and  N_19
REMARK    8  A    between atoms: N_19  and  C_20
REMARK    9  A    between atoms: N_19  and  C_21
REMARK                            x       y       z     vdW  Elec       q    Type
REMARK                         _______ _______ _______ _____ _____    ______ ____
ROOT
ATOM      1  C   UNL     1      -0.019   1.526   0.010  0.00  0.00    +0.033 C 
ATOM      2  C   UNL     1       0.002  -0.004   0.002  0.00  0.00    +0.101 C 
ENDROOT
BRANCH   2   3
ATOM      3  C   UNL     1       0.707  -0.490  -1.238  0.00  0.00    +0.014 A 
ATOM      4  C   UNL     1      -0.023  -0.817  -2.365  0.00  0.00    +0.012 A 
ATOM      5  C   UNL     1       0.621  -1.263  -3.503  0.00  0.00    +0.046 A 
ATOM      6  C   UNL     1       2.003  -1.383  -3.517  0.00  0.00    +0.120 A 
ATOM      7  C   UNL     1       2.738  -1.056  -2.388  0.00  0.00    +0.091 A 
ATOM      8  C   UNL     1       2.090  -0.604  -1.249  0.00  0.00    +0.125 A 
BRANCH   8   9
ATOM      9  O   UNL     1       2.809  -0.276  -0.143  0.00  0.00    -0.506 OA
ATOM     10  H   UNL     1       2.950  -1.014   0.466  0.00  0.00    +0.292 HD
ENDBRANCH   8   9
BRANCH   6  11
ATOM     11  O   UNL     1       2.636  -1.823  -4.637  0.00  0.00    -0.507 OA
ATOM     12  H   UNL     1       2.889  -1.117  -5.248  0.00  0.00    +0.292 HD
ENDBRANCH   6  11
ENDBRANCH   2   3
BRANCH   2  13
ATOM     13  N   UNL     1      -1.372  -0.511   0.012  0.00  0.00    -0.336 N 
ATOM     14  H   UNL     1      -1.810  -0.743  -0.822  0.00  0.00    +0.147 HD
BRANCH  13  15
ATOM     15  C   UNL     1      -2.054  -0.661   1.226  0.00  0.00    +0.050 A 
ATOM     16  C   UNL     1      -1.432  -0.324   2.419  0.00  0.00    +0.040 A 
ATOM     17  C   UNL     1      -2.108  -0.473   3.617  0.00  0.00    +0.020 A 
ATOM     18  C   UNL     1      -3.404  -0.958   3.629  0.00  0.00    +0.017 A 
ATOM     19  C   UNL     1      -4.030  -1.295   2.444  0.00  0.00    +0.026 A 
ATOM     20  C   UNL     1      -3.363  -1.143   1.238  0.00  0.00    +0.050 A 
ATOM     21 BR   UNL     1      -1.258  -0.013   5.242  0.00  0.00    -0.050 Br
BRANCH  20  22
ATOM     22  N   UNL     1      -3.998  -1.480   0.036  0.00  0.00    -0.335 N 
ATOM     23  C   UNL     1      -4.769  -0.469  -0.692  0.00  0.00    +0.129 C 
ATOM     24  C   UNL     1      -3.892  -2.842  -0.492  0.00  0.00    +0.129 C 
ENDBRANCH  20  22
ENDBRANCH  13  15
ENDBRANCH   2  13
TORSDOF 6
