REMARK  Name = ZINC20079885
REMARK  10 active torsions:
REMARK  status: ('A' for Active; 'I' for Inactive)
REMARK    1  A    between atoms: C_1  and  C_2
REMARK    2  A    between atoms: C_5  and  C_42
REMARK    3  A    between atoms: C_6  and  N_8
REMARK    4  A    between atoms: N_11  and  C_14
REMARK    5  A    between atoms: C_14  and  C_16
REMARK    6  A    between atoms: C_14  and  C_30
REMARK    7  A    between atoms: C_20  and  C_29
REMARK    8  A    between atoms: C_21  and  C_28
REMARK    9  A    between atoms: N_34  and  C_35
REMARK   10  A    between atoms: C_35  and  C_36
REMARK                            x       y       z     vdW  Elec       q    Type
REMARK                         _______ _______ _______ _____ _____    ______ ____
ROOT
ATOM      1  C   UNL     1      -8.158   2.692   1.162  0.00  0.00    +0.162 C 
ENDROOT
BRANCH   1   2
ATOM      2  C   UNL     1      -8.854   1.446   0.678  0.00  0.00    +0.042 A 
ATOM      3  C   UNL     1      -9.621   1.492  -0.439  0.00  0.00    +0.021 A 
ATOM      4  C   UNL     1     -10.284   0.265  -0.883  0.00  0.00    -0.001 A 
ATOM      5  C   UNL     1     -11.088   0.250  -2.028  0.00  0.00    +0.013 A 
ATOM      6  C   UNL     1     -11.693  -0.912  -2.416  0.00  0.00    -0.047 A 
ATOM      7  C   UNL     1     -11.517  -2.078  -1.684  0.00  0.00    -0.046 A 
ATOM      8  C   UNL     1     -10.729  -2.087  -0.553  0.00  0.00    +0.030 A 
ATOM      9  C   UNL     1     -10.103  -0.916  -0.139  0.00  0.00    +0.049 A 
ATOM     10  N   UNL     1      -9.309  -0.896   0.988  0.00  0.00    -0.322 N 
ATOM     11  H   UNL     1      -9.167  -1.815   1.577  0.00  0.00    +0.169 HD
ATOM     12  C   UNL     1      -8.700   0.235   1.385  0.00  0.00    +0.254 A 
ATOM     13  O   UNL     1      -8.002   0.214   2.384  0.00  0.00    -0.268 OA
ATOM     14  C   UNL     1     -12.194  -3.348  -2.131  0.00  0.00    +0.044 C 
ATOM     15  C   UNL     1     -12.560  -0.927  -3.648  0.00  0.00    +0.044 C 
ENDBRANCH   1   2
BRANCH   1  19
ATOM     16  N   UNL     1      -3.949   2.811   0.819  0.00  0.00    -0.327 N 
ATOM     17  C   UNL     1      -4.549   3.245   2.088  0.00  0.00    +0.120 C 
ATOM     18  C   UNL     1      -6.021   3.594   1.860  0.00  0.00    +0.104 C 
ATOM     19  N   UNL     1      -6.723   2.420   1.324  0.00  0.00    -0.286 NA
ATOM     20  C   UNL     1      -6.123   1.986   0.054  0.00  0.00    +0.104 C 
ATOM     21  C   UNL     1      -4.651   1.637   0.282  0.00  0.00    +0.120 C 
BRANCH  16  27
ATOM     22  C   UNL     1      -0.350   0.162   2.864  0.00  0.00    +0.044 C 
ATOM     23  C   UNL     1      -0.811   1.274   1.958  0.00  0.00    -0.049 A 
ATOM     24  C   UNL     1       0.117   2.040   1.276  0.00  0.00    +0.004 A 
ATOM     25  C   UNL     1      -0.302   3.061   0.444  0.00  0.00    +0.005 A 
ATOM     26  C   UNL     1      -1.650   3.320   0.290  0.00  0.00    -0.029 A 
ATOM     27  C   UNL     1      -2.585   2.553   0.972  0.00  0.00    +0.033 A 
ATOM     28  C   UNL     1      -2.161   1.524   1.804  0.00  0.00    +0.026 A 
ATOM     29  C   UNL     1      -2.105   4.433  -0.618  0.00  0.00    +0.045 C 
ENDBRANCH  16  27
ENDBRANCH   1  19
BRANCH   1  30
ATOM     30  C   UNL     1      -8.742   3.111   2.487  0.00  0.00    +0.173 A 
ATOM     31  N   UNL     1      -8.534   2.542   3.649  0.00  0.00    -0.111 NA
ATOM     32  N   UNL     1      -9.206   3.192   4.536  0.00  0.00    -0.023 NA
ATOM     33  N   UNL     1      -9.843   4.155   3.969  0.00  0.00    -0.044 NA
ATOM     34  N   UNL     1      -9.583   4.139   2.705  0.00  0.00    -0.225 N 
BRANCH  34  35
ATOM     35  C   UNL     1     -10.104   5.066   1.697  0.00  0.00    +0.179 C 
BRANCH  35  36
ATOM     36  C   UNL     1     -11.412   4.514   1.125  0.00  0.00    +0.140 C 
ATOM     37  C   UNL     1     -11.909   5.425  -0.018  0.00  0.00    +0.035 C 
ATOM     38  C   UNL     1     -13.444   5.440   0.216  0.00  0.00    +0.031 C 
ATOM     39  C   UNL     1     -13.506   5.367   1.763  0.00  0.00    +0.160 C 
ATOM     40  O   UNL     1     -12.421   4.505   2.142  0.00  0.00    -0.375 OA
ENDBRANCH  35  36
ENDBRANCH  34  35
ENDBRANCH   1  30
TORSDOF 6
