REMARK  Name = ZINC64636600
REMARK  11 active torsions:
REMARK  status: ('A' for Active; 'I' for Inactive)
REMARK    1  A    between atoms: C_1  and  C_2
REMARK    2  A    between atoms: C_2  and  O_3
REMARK    3  A    between atoms: O_3  and  C_4
REMARK    4  A    between atoms: C_7  and  C_10
REMARK    5  A    between atoms: C_10  and  N_11
REMARK    6  A    between atoms: N_14  and  C_21
REMARK    7  A    between atoms: C_16  and  C_18
REMARK    8  A    between atoms: C_18  and  C_19
REMARK    9  A    between atoms: C_19  and  O_20
REMARK   10  A    between atoms: C_21  and  C_22
REMARK   11  A    between atoms: C_24  and  C_32
REMARK                            x       y       z     vdW  Elec       q    Type
REMARK                         _______ _______ _______ _____ _____    ______ ____
ROOT
ATOM      1  N   UNL     1       2.456  -6.539   0.987  0.00  0.00    +0.386 N 
ATOM      2  C   UNL     1       3.603  -5.877   1.624  0.00  0.00    -0.062 C 
ATOM      3  C   UNL     1       4.903  -6.468   1.074  0.00  0.00    +0.066 C 
ATOM      4  N   UNL     1       4.935  -7.912   1.347  0.00  0.00    -0.303 NA
ATOM      5  C   UNL     1       3.779  -8.585   0.737  0.00  0.00    +0.069 C 
ATOM      6  C   UNL     1       2.488  -7.976   1.289  0.00  0.00    -0.052 C 
ATOM      7  H   UNL     1       2.502  -6.404  -0.012  0.00  0.00    -0.081 HD
ENDROOT
BRANCH   1   8
ATOM      8  C   UNL     1       1.209  -5.958   1.502  0.00  0.00    -0.043 C 
BRANCH   8  12
ATOM      9  C   UNL     1       0.938  -1.867   0.299  0.00  0.00    +0.121 A 
ATOM     10  C   UNL     1       0.413  -2.865  -0.509  0.00  0.00    +0.046 A 
ATOM     11  C   UNL     1       0.502  -4.187  -0.118  0.00  0.00    +0.005 A 
ATOM     12  C   UNL     1       1.113  -4.516   1.078  0.00  0.00    -0.064 A 
ATOM     13  C   UNL     1       1.637  -3.523   1.885  0.00  0.00    +0.005 A 
ATOM     14  C   UNL     1       1.556  -2.200   1.496  0.00  0.00    +0.046 A 
BRANCH   9  15
ATOM     15  O   UNL     1       0.852  -0.566  -0.084  0.00  0.00    -0.492 OA
BRANCH  15  17
ATOM     16  C   UNL     1       0.202   1.211  -1.588  0.00  0.00    +0.048 C 
ATOM     17  C   UNL     1       0.202  -0.297  -1.328  0.00  0.00    +0.225 C 
ENDBRANCH  15  17
ENDBRANCH   9  15
ENDBRANCH   8  12
ENDBRANCH   1   8
BRANCH   6  18
ATOM     18  C   UNL     1       1.283  -8.660   0.641  0.00  0.00    +0.014 C 
BRANCH  18  19
ATOM     19  C   UNL     1       1.276 -10.143   1.018  0.00  0.00    +0.154 C 
BRANCH  19  20
ATOM     20  O   UNL     1       0.210 -10.803   0.332  0.00  0.00    -0.395 OA
ATOM     21  H   UNL     1       0.145 -11.749   0.523  0.00  0.00    +0.209 HD
ENDBRANCH  19  20
ENDBRANCH  18  19
ENDBRANCH   6  18
BRANCH   4  22
ATOM     22  C   UNL     1       6.195  -8.507   0.884  0.00  0.00    +0.113 C 
BRANCH  22  23
ATOM     23  C   UNL     1       7.356  -7.954   1.713  0.00  0.00    +0.120 C 
ATOM     24  C   UNL     1       8.641  -8.664   1.351  0.00  0.00    -0.040 C 
ATOM     25  C   UNL     1       9.070  -9.265   2.484  0.00  0.00    -0.001 A 
ATOM     26  C   UNL     1      10.241 -10.096   2.787  0.00  0.00    +0.010 A 
ATOM     27  C   UNL     1      10.405 -10.565   4.045  0.00  0.00    +0.001 A 
ATOM     28  C   UNL     1       9.487 -10.278   5.064  0.00  0.00    +0.002 A 
ATOM     29  C   UNL     1       8.387  -9.522   4.863  0.00  0.00    +0.026 A 
ATOM     30  C   UNL     1       8.115  -8.976   3.578  0.00  0.00    +0.043 A 
ATOM     31  N   UNL     1       7.133  -8.225   3.138  0.00  0.00    -0.376 N 
ATOM     32  C   UNL     1       9.308  -8.696  -0.000  0.00  0.00    +0.042 C 
ATOM     33  H   UNL     1       6.386  -7.902   3.665  0.00  0.00    +0.160 HD
ENDBRANCH  22  23
ENDBRANCH   4  22
TORSDOF 9
