REMARK  Name = ZINC08777794
REMARK  3 active torsions:
REMARK  status: ('A' for Active; 'I' for Inactive)
REMARK    1  A    between atoms: C_10  and  C_15
REMARK    2  A    between atoms: C_10  and  O_19
REMARK    3  A    between atoms: C_22  and  C_25
REMARK                            x       y       z     vdW  Elec       q    Type
REMARK                         _______ _______ _______ _____ _____    ______ ____
ROOT
ATOM      1  C   UNL     1      -0.986  -2.152  -0.350  0.00  0.00    +0.001 A 
ATOM      2  C   UNL     1       0.193  -2.751   0.062  0.00  0.00    +0.004 A 
ATOM      3  C   UNL     1       1.282  -1.989   0.441  0.00  0.00    +0.046 A 
ATOM      4  C   UNL     1       1.208  -0.604   0.414  0.00  0.00    +0.129 A 
ATOM      5  C   UNL     1       0.002  -0.004   0.002  0.00  0.00    +0.040 A 
ATOM      6  C   UNL     1      -1.085  -0.773  -0.381  0.00  0.00    +0.013 A 
ATOM      7  C   UNL     1      -0.018   1.470   0.010  0.00  0.00    +0.081 C 
ATOM      8  N   UNL     1      -0.966   2.318   0.049  0.00  0.00    -0.179 NA
ATOM      9  N   UNL     1      -0.541   3.637   0.226  0.00  0.00    -0.160 N 
ATOM     10  C   UNL     1       0.930   3.648   0.346  0.00  0.00    +0.262 C 
ATOM     11  C   UNL     1       1.321   2.212   0.001  0.00  0.00    +0.138 C 
ATOM     12  C   UNL     1       2.161   1.530   1.081  0.00  0.00    +0.243 C 
ATOM     13  O   UNL     1       2.284   0.141   0.761  0.00  0.00    -0.490 OA
ATOM     14  C   UNL     1      -1.364   4.749   0.280  0.00  0.00    +0.184 A 
ATOM     15  N   UNL     1      -2.679   4.822   0.181  0.00  0.00    -0.222 NA
ATOM     16  C   UNL     1      -3.311   5.984   0.256  0.00  0.00    +0.098 A 
ATOM     17  C   UNL     1      -2.587   7.130   0.438  0.00  0.00    +0.078 A 
ATOM     18  S   UNL     1      -0.928   6.468   0.508  0.00  0.00    -0.058 S 
ENDROOT
BRANCH  16  19
ATOM     19  C   UNL     1      -4.787   6.041   0.143  0.00  0.00    +0.090 A 
ATOM     20  C   UNL     1      -5.513   4.865  -0.048  0.00  0.00    +0.030 A 
ATOM     21  C   UNL     1      -6.890   4.934  -0.145  0.00  0.00    +0.004 A 
ATOM     22  C   UNL     1      -7.500   6.179  -0.060  0.00  0.00    +0.020 A 
ATOM     23  C   UNL     1      -6.720   7.305   0.124  0.00  0.00    +0.111 A 
ATOM     24  N   UNL     1      -5.409   7.212   0.219  0.00  0.00    -0.253 NA
ENDBRANCH  16  19
BRANCH  10  25
ATOM     25  C   UNL     1       1.549   4.630  -0.651  0.00  0.00    +0.438 C 
ATOM     26  F   UNL     1       1.094   4.334  -1.940  0.00  0.00    -0.166 F 
ATOM     27  F   UNL     1       1.176   5.936  -0.313  0.00  0.00    -0.166 F 
ATOM     28  F   UNL     1       2.943   4.519  -0.611  0.00  0.00    -0.166 F 
ENDBRANCH  10  25
BRANCH  10  29
ATOM     29  O   UNL     1       1.325   3.972   1.681  0.00  0.00    -0.363 OA
ATOM     30  H   UNL     1       1.100   4.873   1.950  0.00  0.00    +0.212 HD
ENDBRANCH  10  29
TORSDOF 3
