REMARK  Name = ZINC05021589
REMARK  5 active torsions:
REMARK  status: ('A' for Active; 'I' for Inactive)
REMARK    1  A    between atoms: C_7  and  C_23
REMARK    2  A    between atoms: C_12  and  C_13
REMARK    3  A    between atoms: C_23  and  O_25
REMARK    4  A    between atoms: O_25  and  C_26
REMARK    5  A    between atoms: C_26  and  C_27
REMARK                            x       y       z     vdW  Elec       q    Type
REMARK                         _______ _______ _______ _____ _____    ______ ____
ROOT
ATOM      1  C   UNL     1      -1.358   1.335   5.980  0.00  0.00    +0.001 A 
ATOM      2  C   UNL     1      -2.027   2.555   5.915  0.00  0.00    +0.002 A 
ATOM      3  C   UNL     1      -2.249   3.173   4.723  0.00  0.00    +0.028 A 
ATOM      4  C   UNL     1      -1.798   2.573   3.532  0.00  0.00    +0.072 A 
ATOM      5  C   UNL     1      -1.115   1.332   3.604  0.00  0.00    +0.015 A 
ATOM      6  C   UNL     1      -0.905   0.726   4.847  0.00  0.00    +0.011 A 
ATOM      7  C   UNL     1      -0.644   0.718   2.363  0.00  0.00    +0.073 A 
ATOM      8  C   UNL     1      -0.897   1.392   1.174  0.00  0.00    -0.007 A 
ATOM      9  C   UNL     1      -1.589   2.615   1.212  0.00  0.00    +0.072 A 
ATOM     10  N   UNL     1      -2.002   3.151   2.349  0.00  0.00    -0.247 NA
ATOM     11  C   UNL     1      -1.869   3.331  -0.052  0.00  0.00    -0.021 C 
ATOM     12  C   UNL     1      -2.723   4.369  -0.089  0.00  0.00    +0.013 C 
ATOM     13  C   UNL     1      -1.163   2.854  -1.303  0.00  0.00    +0.037 C 
ATOM     14  C   UNL     1      -1.213   1.321  -1.305  0.00  0.00    +0.009 C 
ATOM     15  C   UNL     1      -0.417   0.789  -0.116  0.00  0.00    +0.038 C 
ENDROOT
BRANCH  12  16
ATOM     16  C   UNL     1      -2.855   5.170  -1.317  0.00  0.00    -0.025 A 
ATOM     17  C   UNL     1      -1.748   5.372  -2.147  0.00  0.00    +0.011 A 
ATOM     18  C   UNL     1      -1.880   6.119  -3.298  0.00  0.00    +0.039 A 
ATOM     19  C   UNL     1      -3.105   6.679  -3.628  0.00  0.00    +0.123 A 
ATOM     20  C   UNL     1      -4.205   6.487  -2.807  0.00  0.00    +0.039 A 
ATOM     21  C   UNL     1      -4.088   5.737  -1.656  0.00  0.00    +0.011 A 
ATOM     22  F   UNL     1      -3.226   7.415  -4.755  0.00  0.00    -0.205 F 
ENDBRANCH  12  16
BRANCH   7  23
ATOM     23  C   UNL     1       0.075  -0.573   2.373  0.00  0.00    +0.341 C 
ATOM     24  O   UNL     1      -0.545  -1.614   2.281  0.00  0.00    -0.245 OA
BRANCH  23  25
ATOM     25  O   UNL     1       1.417  -0.596   2.483  0.00  0.00    -0.452 OA
BRANCH  25  26
ATOM     26  C   UNL     1       2.056  -1.900   2.486  0.00  0.00    +0.327 C 
BRANCH  26  27
ATOM     27  C   UNL     1       3.548  -1.728   2.616  0.00  0.00    +0.248 C 
ATOM     28  O   UNL     1       4.025  -0.617   2.698  0.00  0.00    -0.272 OA
ATOM     29  N   UNL     1       4.351  -2.810   2.641  0.00  0.00    -0.327 N 
ATOM     30  H   UNL     1       3.969  -3.700   2.575  0.00  0.00    +0.145 HD
ATOM     31  H   UNL     1       5.311  -2.700   2.724  0.00  0.00    +0.145 HD
ENDBRANCH  26  27
ENDBRANCH  25  26
ENDBRANCH  23  25
ENDBRANCH   7  23
TORSDOF 5
