REMARK  Name = ZINC36824851
REMARK  8 active torsions:
REMARK  status: ('A' for Active; 'I' for Inactive)
REMARK    1  A    between atoms: C_1  and  C_2
REMARK    2  A    between atoms: C_5  and  C_8
REMARK    3  A    between atoms: C_11  and  S_14
REMARK    4  A    between atoms: N_12  and  N_13
REMARK    5  A    between atoms: S_14  and  C_15
REMARK    6  A    between atoms: C_15  and  C_17
REMARK    7  A    between atoms: C_15  and  C_18
REMARK    8  A    between atoms: N_20  and  C_21
REMARK                            x       y       z     vdW  Elec       q    Type
REMARK                         _______ _______ _______ _____ _____    ______ ____
ROOT
ATOM      1  C   UNL     1       0.003  -4.258  -0.025  0.00  0.00    +0.182 A 
ATOM      2  N   UNL     1      -0.256  -5.038  -1.048  0.00  0.00    -0.127 NA
ATOM      3  N   UNL     1      -0.135  -6.270  -0.702  0.00  0.00    -0.121 NA
ATOM      4  C   UNL     1       0.209  -6.351   0.565  0.00  0.00    +0.209 A 
ATOM      5  N   UNL     1       0.314  -5.074   1.038  0.00  0.00    -0.224 N 
ENDROOT
BRANCH   1  10
ATOM      6  C   UNL     1      -0.117   1.496   0.003  0.00  0.00    +0.044 C 
ATOM      7  C   UNL     1      -0.085  -0.011  -0.005  0.00  0.00    -0.050 A 
ATOM      8  C   UNL     1      -0.079  -0.694  -1.208  0.00  0.00    +0.004 A 
ATOM      9  C   UNL     1      -0.051  -2.073  -1.222  0.00  0.00    +0.012 A 
ATOM     10  C   UNL     1      -0.027  -2.780  -0.018  0.00  0.00    +0.021 A 
ATOM     11  C   UNL     1      -0.033  -2.084   1.192  0.00  0.00    +0.012 A 
ATOM     12  C   UNL     1      -0.056  -0.705   1.192  0.00  0.00    +0.004 A 
ENDBRANCH   1  10
BRANCH   5  13
ATOM     13  N   UNL     1       0.655  -4.688   2.303  0.00  0.00    -0.295 N 
ATOM     14  H   UNL     1      -0.163  -4.606   2.888  0.00  0.00    +0.163 HD
ATOM     15  H   UNL     1       1.326  -5.324   2.707  0.00  0.00    +0.163 HD
ENDBRANCH   5  13
BRANCH   4  16
ATOM     16  S   UNL     1       0.489  -7.831   1.479  0.00  0.00    -0.072 S 
BRANCH  16  17
ATOM     17  C   UNL     1       0.193  -9.154   0.274  0.00  0.00    +0.137 C 
ATOM     18  C   UNL     1      -1.277  -9.137  -0.151  0.00  0.00    +0.029 C 
BRANCH  17  19
ATOM     19  C   UNL     1       0.519 -10.486   0.899  0.00  0.00    +0.230 C 
ATOM     20  O   UNL     1       0.470 -10.618   2.104  0.00  0.00    -0.274 OA
ATOM     21  N   UNL     1       0.867 -11.529   0.120  0.00  0.00    -0.283 N 
ATOM     22  H   UNL     1       0.843 -11.442  -0.846  0.00  0.00    +0.155 HD
BRANCH  21  23
ATOM     23  C   UNL     1       1.261 -12.739   0.705  0.00  0.00    +0.052 A 
ATOM     24  C   UNL     1       0.674 -13.163   1.889  0.00  0.00    +0.026 A 
ATOM     25  C   UNL     1       1.064 -14.356   2.464  0.00  0.00    +0.022 A 
ATOM     26  C   UNL     1       2.040 -15.130   1.861  0.00  0.00    +0.042 A 
ATOM     27  C   UNL     1       2.628 -14.711   0.681  0.00  0.00    +0.041 A 
ATOM     28  C   UNL     1       2.236 -13.520   0.098  0.00  0.00    +0.064 A 
ATOM     29 CL   UNL     1       2.968 -12.998  -1.387  0.00  0.00    -0.082 Cl
ATOM     30 CL   UNL     1       2.529 -16.629   2.588  0.00  0.00    -0.083 Cl
ENDBRANCH  21  23
ENDBRANCH  17  19
ENDBRANCH  16  17
ENDBRANCH   4  16
TORSDOF 6
