REMARK  Name = ZINC32819125
REMARK  10 active torsions:
REMARK  status: ('A' for Active; 'I' for Inactive)
REMARK    1  A    between atoms: C_1  and  C_2
REMARK    2  A    between atoms: C_2  and  N_3
REMARK    3  A    between atoms: N_14  and  N_15
REMARK    4  A    between atoms: C_16  and  C_18
REMARK    5  A    between atoms: C_18  and  C_20
REMARK    6  A    between atoms: C_18  and  N_23
REMARK    7  A    between atoms: C_20  and  C_21
REMARK    8  A    between atoms: C_20  and  C_22
REMARK    9  A    between atoms: N_23  and  S_24
REMARK   10  A    between atoms: S_24  and  C_27
REMARK                            x       y       z     vdW  Elec       q    Type
REMARK                         _______ _______ _______ _____ _____    ______ ____
ROOT
ATOM      1  N   UNL     1      -3.592  -2.421   0.170  0.00  0.00    -0.233 N 
ATOM      2  C   UNL     1      -4.862  -2.831  -0.024  0.00  0.00    +0.248 C 
ATOM      3  O   UNL     1      -5.085  -3.972  -0.369  0.00  0.00    -0.273 OA
ATOM      4  H   UNL     1      -3.385  -1.367   0.407  0.00  0.00    +0.173 HD
ENDROOT
BRANCH   1  16
ATOM      5  N   UNL     1      -0.242  -3.840   0.163  0.00  0.00    -0.280 N 
ATOM      6  C   UNL     1       1.047  -3.475   0.350  0.00  0.00    +0.263 A 
ATOM      7  O   UNL     1       1.952  -4.285   0.261  0.00  0.00    -0.267 OA
ATOM      8  C   UNL     1       1.315  -2.065   0.666  0.00  0.00    +0.065 A 
ATOM      9  C   UNL     1       2.609  -1.591   0.878  0.00  0.00    +0.015 A 
ATOM     10  C   UNL     1       2.802  -0.268   1.170  0.00  0.00    +0.001 A 
ATOM     11  C   UNL     1       1.724   0.604   1.258  0.00  0.00    +0.002 A 
ATOM     12  C   UNL     1       0.446   0.165   1.056  0.00  0.00    +0.028 A 
ATOM     13  C   UNL     1       0.217  -1.181   0.755  0.00  0.00    +0.080 A 
ATOM     14  N   UNL     1      -1.033  -1.659   0.548  0.00  0.00    -0.214 NA
ATOM     15  C   UNL     1      -1.245  -2.921   0.268  0.00  0.00    +0.216 A 
ATOM     16  N   UNL     1      -2.538  -3.337   0.070  0.00  0.00    -0.234 N 
ATOM     17  H   UNL     1      -2.745  -4.391  -0.167  0.00  0.00    +0.173 HD
BRANCH   5  19
ATOM     18  C   UNL     1      -0.798  -6.011   1.142  0.00  0.00    +0.027 C 
ATOM     19  C   UNL     1      -0.564  -5.233  -0.155  0.00  0.00    +0.125 C 
ENDBRANCH   5  19
ENDBRANCH   1  16
BRANCH   2  20
ATOM     20  C   UNL     1      -6.004  -1.871   0.188  0.00  0.00    +0.166 C 
BRANCH  20  21
ATOM     21  C   UNL     1      -6.184  -1.008  -1.063  0.00  0.00    +0.010 C 
ATOM     22  C   UNL     1      -4.960  -0.108  -1.243  0.00  0.00    +0.009 C 
ATOM     23  C   UNL     1      -6.336  -1.913  -2.288  0.00  0.00    +0.009 C 
ENDBRANCH  20  21
BRANCH  20  24
ATOM     24  N   UNL     1      -7.234  -2.624   0.442  0.00  0.00    -0.178 NA
ATOM     25  H   UNL     1      -7.485  -3.495  -0.182  0.00  0.00    +0.149 HD
BRANCH  24  26
ATOM     26  S   UNL     1      -8.366  -2.031   1.496  0.00  0.00    +0.062 S 
ATOM     27  O   UNL     1      -9.438  -2.963   1.507  0.00  0.00    -0.153 OA
ATOM     28  O   UNL     1      -7.666  -1.660   2.676  0.00  0.00    -0.153 OA
BRANCH  26  29
ATOM     29  C   UNL     1      -8.999  -0.542   0.797  0.00  0.00    +0.140 A 
ATOM     30  C   UNL     1     -10.323  -0.470   0.407  0.00  0.00    +0.031 A 
ATOM     31  C   UNL     1     -10.821   0.699  -0.136  0.00  0.00    +0.002 A 
ATOM     32  C   UNL     1      -9.993   1.794  -0.301  0.00  0.00    +0.003 A 
ATOM     33  C   UNL     1      -8.667   1.722   0.082  0.00  0.00    +0.040 A 
ATOM     34  C   UNL     1      -8.168   0.553   0.632  0.00  0.00    +0.150 A 
ATOM     35  F   UNL     1      -6.872   0.482   1.007  0.00  0.00    -0.203 F 
ENDBRANCH  26  29
ENDBRANCH  24  26
ENDBRANCH  20  24
ENDBRANCH   2  20
TORSDOF 7
