REMARK  Name = ZINC35743108
REMARK  10 active torsions:
REMARK  status: ('A' for Active; 'I' for Inactive)
REMARK    1  A    between atoms: C_4  and  C_7
REMARK    2  A    between atoms: C_7  and  C_8
REMARK    3  A    between atoms: C_8  and  C_10
REMARK    4  A    between atoms: C_8  and  O_35
REMARK    5  A    between atoms: C_10  and  N_11
REMARK    6  A    between atoms: N_11  and  C_12
REMARK    7  A    between atoms: N_11  and  C_20
REMARK    8  A    between atoms: C_12  and  C_13
REMARK    9  A    between atoms: C_20  and  C_21
REMARK   10  A    between atoms: C_24  and  C_27
REMARK                            x       y       z     vdW  Elec       q    Type
REMARK                         _______ _______ _______ _____ _____    ______ ____
ROOT
ATOM      1  N   UNL     1       5.645  -2.187   2.974  0.00  0.00    +0.387 N 
ATOM      2  H   UNL     1       4.819  -2.545   3.429  0.00  0.00    -0.081 HD
ENDROOT
BRANCH   1   3
ATOM      3  C   UNL     1       5.392  -2.059   1.532  0.00  0.00    -0.046 C 
BRANCH   3   4
ATOM      4  C   UNL     1       4.899  -3.398   0.980  0.00  0.00    +0.102 C 
BRANCH   4   5
ATOM      5  O   UNL     1       3.688  -3.769   1.641  0.00  0.00    -0.393 OA
ATOM      6  H   UNL     1       2.947  -3.172   1.469  0.00  0.00    +0.210 HD
ENDBRANCH   4   5
BRANCH   4   7
ATOM      7  C   UNL     1       4.641  -3.265  -0.523  0.00  0.00    +0.064 C 
BRANCH   7  11
ATOM      8  C   UNL     1       3.602  -7.083  -2.133  0.00  0.00    +0.000 A 
ATOM      9  C   UNL     1       2.614  -6.244  -1.653  0.00  0.00    +0.000 A 
ATOM     10  C   UNL     1       2.950  -5.008  -1.131  0.00  0.00    +0.004 A 
ATOM     11  C   UNL     1       4.274  -4.613  -1.090  0.00  0.00    -0.045 A 
ATOM     12  C   UNL     1       5.262  -5.453  -1.569  0.00  0.00    +0.004 A 
ATOM     13  C   UNL     1       4.926  -6.688  -2.091  0.00  0.00    +0.000 A 
ENDBRANCH   7  11
ENDBRANCH   4   7
ENDBRANCH   3   4
ENDBRANCH   1   3
BRANCH   1  14
ATOM     14  C   UNL     1       5.980  -0.870   3.531  0.00  0.00    -0.040 C 
BRANCH  14  15
ATOM     15  C   UNL     1       4.785   0.041   3.422  0.00  0.00    -0.029 A 
ATOM     16  C   UNL     1       4.742   1.012   2.440  0.00  0.00    +0.004 A 
ATOM     17  C   UNL     1       3.646   1.847   2.340  0.00  0.00    +0.000 A 
ATOM     18  C   UNL     1       2.590   1.713   3.222  0.00  0.00    +0.003 A 
ATOM     19  C   UNL     1       2.630   0.742   4.205  0.00  0.00    +0.038 A 
ATOM     20  C   UNL     1       3.725  -0.099   4.303  0.00  0.00    +0.125 A 
ATOM     21  F   UNL     1       3.763  -1.052   5.260  0.00  0.00    -0.205 F 
ENDBRANCH  14  15
ENDBRANCH   1  14
BRANCH   1  22
ATOM     22  C   UNL     1       6.765  -3.112   3.193  0.00  0.00    -0.030 C 
BRANCH  22  23
ATOM     23  C   UNL     1       6.949  -3.343   4.695  0.00  0.00    +0.194 C 
ATOM     24  C   UNL     1       8.152  -4.276   4.968  0.00  0.00    +0.104 C 
ATOM     25  C   UNL     1       7.662  -5.112   6.136  0.00  0.00    +0.091 C 
ATOM     26  N   UNL     1       6.383  -4.968   6.227  0.00  0.00    -0.089 NA
ATOM     27  O   UNL     1       5.854  -4.108   5.237  0.00  0.00    -0.392 OA
BRANCH  25  28
ATOM     28  C   UNL     1       8.504  -5.947   7.015  0.00  0.00    +0.001 A 
ATOM     29  C   UNL     1       9.884  -6.012   6.809  0.00  0.00    +0.011 A 
ATOM     30  C   UNL     1      10.666  -6.793   7.634  0.00  0.00    +0.022 A 
ATOM     31  C   UNL     1      10.085  -7.513   8.665  0.00  0.00    +0.059 A 
ATOM     32  C   UNL     1       8.717  -7.454   8.874  0.00  0.00    +0.060 A 
ATOM     33  C   UNL     1       7.925  -6.671   8.058  0.00  0.00    +0.031 A 
ATOM     34 CL   UNL     1       7.998  -8.360  10.169  0.00  0.00    -0.082 Cl
ATOM     35 CL   UNL     1      11.076  -8.495   9.698  0.00  0.00    -0.082 Cl
ENDBRANCH  25  28
ENDBRANCH  22  23
ENDBRANCH   1  22
TORSDOF 10
