REMARK  Name = ZINC16688261
REMARK  7 active torsions:
REMARK  status: ('A' for Active; 'I' for Inactive)
REMARK    1  A    between atoms: C_1  and  C_2
REMARK    2  A    between atoms: C_2  and  O_3
REMARK    3  A    between atoms: O_3  and  C_4
REMARK    4  A    between atoms: C_7  and  N_8
REMARK    5  A    between atoms: N_8  and  N_9
REMARK    6  A    between atoms: N_9  and  C_10
REMARK    7  A    between atoms: C_13  and  C_18
REMARK                            x       y       z     vdW  Elec       q    Type
REMARK                         _______ _______ _______ _____ _____    ______ ____
ROOT
ATOM      1  N   UNL     1      -0.598  -7.102  -1.254  0.00  0.00    -0.262 N 
ATOM      2  H   UNL     1      -1.059  -6.732  -2.024  0.00  0.00    +0.170 HD
ENDROOT
BRANCH   1   3
ATOM      3  C   UNL     1      -0.394  -8.483  -1.157  0.00  0.00    +0.121 A 
ATOM      4  C   UNL     1      -0.449  -9.110   0.082  0.00  0.00    +0.184 A 
ATOM      5  C   UNL     1      -0.247 -10.476   0.176  0.00  0.00    +0.175 A 
ATOM      6  C   UNL     1       0.011 -11.219  -0.964  0.00  0.00    +0.131 A 
ATOM      7  C   UNL     1       0.066 -10.598  -2.200  0.00  0.00    +0.175 A 
ATOM      8  C   UNL     1      -0.141  -9.232  -2.300  0.00  0.00    +0.184 A 
ATOM      9  F   UNL     1      -0.092  -8.627  -3.507  0.00  0.00    -0.200 F 
ATOM     10  F   UNL     1       0.318 -11.325  -3.311  0.00  0.00    -0.202 F 
ATOM     11  F   UNL     1      -0.301 -11.086   1.380  0.00  0.00    -0.202 F 
ATOM     12  F   UNL     1      -0.700  -8.385   1.195  0.00  0.00    -0.200 F 
BRANCH   6  13
ATOM     13  C   UNL     1       0.231 -12.706  -0.859  0.00  0.00    +0.423 C 
ATOM     14  F   UNL     1      -0.994 -13.369  -0.987  0.00  0.00    -0.166 F 
ATOM     15  F   UNL     1       1.095 -13.123  -1.878  0.00  0.00    -0.166 F 
ATOM     16  F   UNL     1       0.797 -13.007   0.384  0.00  0.00    -0.166 F 
ENDBRANCH   6  13
ENDBRANCH   1   3
BRANCH   1  17
ATOM     17  N   UNL     1      -0.136  -6.252  -0.241  0.00  0.00    -0.273 N 
ATOM     18  H   UNL     1       0.392  -6.611   0.490  0.00  0.00    +0.169 HD
BRANCH  17  22
ATOM     19  C   UNL     1       0.186  -1.891   1.676  0.00  0.00    +0.169 C 
ATOM     20  C   UNL     1      -0.264  -2.713   0.691  0.00  0.00    +0.059 C 
ATOM     21  C   UNL     1       0.038  -4.094   0.732  0.00  0.00    -0.005 C 
ATOM     22  C   UNL     1      -0.423  -4.942  -0.281  0.00  0.00    +0.095 C 
ATOM     23  C   UNL     1       0.807  -4.615   1.796  0.00  0.00    +0.033 C 
ATOM     24  C   UNL     1       1.254  -3.791   2.778  0.00  0.00    +0.092 C 
ATOM     25  C   UNL     1       0.959  -2.416   2.735  0.00  0.00    +0.238 C 
ATOM     26  O   UNL     1       1.368  -1.674   3.619  0.00  0.00    -0.282 OA
ATOM     27 CL   UNL     1       2.198  -4.434   4.086  0.00  0.00    -0.079 Cl
BRANCH  19  28
ATOM     28  O   UNL     1      -0.103  -0.562   1.638  0.00  0.00    -0.488 OA
BRANCH  28  30
ATOM     29  C   UNL     1      -1.109   1.408   0.666  0.00  0.00    +0.048 C 
ATOM     30  C   UNL     1      -0.889  -0.101   0.538  0.00  0.00    +0.226 C 
ENDBRANCH  28  30
ENDBRANCH  19  28
ENDBRANCH  17  22
ENDBRANCH   1  17
TORSDOF 6
