REMARK  Name = ZINC24140471
REMARK  12 active torsions:
REMARK  status: ('A' for Active; 'I' for Inactive)
REMARK    1  A    between atoms: C_1  and  O_2
REMARK    2  A    between atoms: O_2  and  C_3
REMARK    3  A    between atoms: C_6  and  O_34
REMARK    4  A    between atoms: C_7  and  C_9
REMARK    5  A    between atoms: C_15  and  C_17
REMARK    6  A    between atoms: C_17  and  S_18
REMARK    7  A    between atoms: S_18  and  C_19
REMARK    8  A    between atoms: C_22  and  C_25
REMARK    9  A    between atoms: N_23  and  N_24
REMARK   10  A    between atoms: C_25  and  O_26
REMARK   11  A    between atoms: O_26  and  C_27
REMARK   12  A    between atoms: O_34  and  C_35
REMARK                            x       y       z     vdW  Elec       q    Type
REMARK                         _______ _______ _______ _____ _____    ______ ____
ROOT
ATOM      1  C   UNL     1      -4.882   2.630   4.637  0.00  0.00    +0.173 C 
ENDROOT
BRANCH   1   7
ATOM      2  C   UNL     1      -2.225   5.335   3.845  0.00  0.00    +0.110 C 
ATOM      3  C   UNL     1      -1.178   5.770   4.893  0.00  0.00    +0.029 C 
ATOM      4  C   UNL     1      -1.838   5.357   6.235  0.00  0.00    +0.021 C 
ATOM      5  C   UNL     1      -2.567   4.051   5.835  0.00  0.00    +0.108 C 
ATOM      6  N   UNL     1      -3.063   4.298   4.465  0.00  0.00    -0.294 N 
ATOM      7  C   UNL     1      -4.108   3.679   3.881  0.00  0.00    +0.226 C 
ATOM      8  O   UNL     1      -4.425   3.966   2.746  0.00  0.00    -0.275 OA
BRANCH   2  13
ATOM      9  C   UNL     1      -0.787   2.893   1.346  0.00  0.00    +0.121 A 
ATOM     10  C   UNL     1      -0.253   3.750   0.396  0.00  0.00    +0.049 A 
ATOM     11  C   UNL     1      -0.366   5.117   0.558  0.00  0.00    +0.049 A 
ATOM     12  C   UNL     1      -1.003   5.633   1.677  0.00  0.00    +0.125 A 
ATOM     13  C   UNL     1      -1.532   4.775   2.630  0.00  0.00    +0.018 A 
ATOM     14  C   UNL     1      -1.425   3.408   2.465  0.00  0.00    +0.054 A 
BRANCH   9  16
ATOM     15  C   UNL     1      -0.013   1.086   0.008  0.00  0.00    +0.277 C 
ATOM     16  O   UNL     1      -0.682   1.547   1.184  0.00  0.00    -0.495 OA
ENDBRANCH   9  16
BRANCH  12  17
ATOM     17  O   UNL     1      -1.109   6.979   1.840  0.00  0.00    -0.495 OA
ATOM     18  C   UNL     1      -0.541   7.802   0.819  0.00  0.00    +0.277 C 
ENDBRANCH  12  17
ENDBRANCH   2  13
ENDBRANCH   1   7
BRANCH   1  19
ATOM     19  S   UNL     1      -6.213   1.991   3.591  0.00  0.00    -0.075 S 
BRANCH  19  20
ATOM     20  C   UNL     1      -6.932   0.819   4.692  0.00  0.00    +0.209 A 
ATOM     21  N   UNL     1      -6.538   0.554   5.917  0.00  0.00    -0.121 NA
ATOM     22  N   UNL     1      -7.289  -0.354   6.430  0.00  0.00    -0.128 NA
ATOM     23  C   UNL     1      -8.198  -0.720   5.572  0.00  0.00    +0.189 A 
ATOM     24  N   UNL     1      -8.007   0.017   4.436  0.00  0.00    -0.225 N 
BRANCH  24  25
ATOM     25  N   UNL     1      -8.738  -0.038   3.284  0.00  0.00    -0.295 N 
ATOM     26  H   UNL     1      -9.588  -0.733   3.205  0.00  0.00    +0.163 HD
ATOM     27  H   UNL     1      -8.478   0.611   2.435  0.00  0.00    +0.163 HD
ENDBRANCH  24  25
BRANCH  23  28
ATOM     28  C   UNL     1      -9.266  -1.760   5.792  0.00  0.00    +0.306 C 
BRANCH  28  29
ATOM     29  O   UNL     1     -10.433  -1.137   6.334  0.00  0.00    -0.481 OA
BRANCH  29  30
ATOM     30  C   UNL     1     -11.498  -1.941   6.594  0.00  0.00    +0.156 A 
ATOM     31  C   UNL     1     -11.424  -3.300   6.327  0.00  0.00    +0.048 A 
ATOM     32  C   UNL     1     -12.506  -4.116   6.596  0.00  0.00    +0.004 A 
ATOM     33  C   UNL     1     -13.666  -3.579   7.121  0.00  0.00    +0.003 A 
ATOM     34  C   UNL     1     -13.746  -2.224   7.384  0.00  0.00    +0.042 A 
ATOM     35  C   UNL     1     -12.664  -1.403   7.122  0.00  0.00    +0.165 A 
ATOM     36  F   UNL     1     -12.742  -0.078   7.378  0.00  0.00    -0.202 F 
ENDBRANCH  29  30
ENDBRANCH  28  29
ENDBRANCH  23  28
ENDBRANCH  19  20
ENDBRANCH   1  19
TORSDOF 10
