REMARK  Name = ZINC06886408
REMARK  6 active torsions:
REMARK  status: ('A' for Active; 'I' for Inactive)
REMARK    1  A    between atoms: C_1  and  C_2
REMARK    2  A    between atoms: C_6  and  N_8
REMARK    3  A    between atoms: C_12  and  C_13
REMARK    4  A    between atoms: C_16  and  O_20
REMARK    5  A    between atoms: O_20  and  C_21
REMARK    6  A    between atoms: C_21  and  C_22
REMARK                            x       y       z     vdW  Elec       q    Type
REMARK                         _______ _______ _______ _____ _____    ______ ____
ROOT
ATOM      1  N   UNL     1       4.780   4.312   0.192  0.00  0.00    -0.190 N 
ATOM      2  C   UNL     1       3.681   3.584   0.475  0.00  0.00    +0.263 C 
ATOM      3  O   UNL     1       3.764   2.396   0.721  0.00  0.00    -0.269 OA
ATOM      4  C   UNL     1       2.373   4.269   0.478  0.00  0.00    +0.100 C 
ATOM      5  C   UNL     1       1.203   3.590   0.759  0.00  0.00    +0.026 C 
ATOM      6  C   UNL     1       2.371   5.711   0.163  0.00  0.00    +0.257 C 
ATOM      7  O   UNL     1       1.333   6.345   0.141  0.00  0.00    -0.270 OA
ATOM      8  N   UNL     1       3.552   6.309  -0.096  0.00  0.00    -0.235 N 
ATOM      9  C   UNL     1       4.703   5.622  -0.081  0.00  0.00    +0.320 C 
ATOM     10  O   UNL     1       5.732   6.219  -0.327  0.00  0.00    -0.251 OA
ATOM     11  H   UNL     1       3.569   7.256  -0.302  0.00  0.00    +0.159 HD
ENDROOT
BRANCH   1  17
ATOM     12  C   UNL     1       8.963   3.172   2.514  0.00  0.00    +0.044 C 
ATOM     13  C   UNL     1       8.080   3.115   1.294  0.00  0.00    -0.049 A 
ATOM     14  C   UNL     1       8.506   2.443   0.163  0.00  0.00    +0.003 A 
ATOM     15  C   UNL     1       7.699   2.389  -0.958  0.00  0.00    +0.002 A 
ATOM     16  C   UNL     1       6.461   3.003  -0.950  0.00  0.00    +0.024 A 
ATOM     17  C   UNL     1       6.033   3.683   0.182  0.00  0.00    +0.046 A 
ATOM     18  C   UNL     1       6.846   3.736   1.307  0.00  0.00    +0.027 A 
ENDBRANCH   1  17
BRANCH   5  19
ATOM     19  C   UNL     1       1.257   2.236   1.310  0.00  0.00    -0.023 A 
ATOM     20  C   UNL     1       2.171   1.926   2.329  0.00  0.00    +0.011 A 
ATOM     21  C   UNL     1       2.219   0.662   2.841  0.00  0.00    +0.047 A 
ATOM     22  C   UNL     1       1.365  -0.324   2.358  0.00  0.00    +0.135 A 
ATOM     23  C   UNL     1       0.453  -0.029   1.347  0.00  0.00    +0.060 A 
ATOM     24  C   UNL     1       0.396   1.242   0.822  0.00  0.00    +0.027 A 
ATOM     25 BR   UNL     1      -0.705  -1.375   0.696  0.00  0.00    -0.046 Br
BRANCH  22  26
ATOM     26  O   UNL     1       1.419  -1.577   2.874  0.00  0.00    -0.487 OA
BRANCH  26  27
ATOM     27  C   UNL     1       2.376  -1.812   3.909  0.00  0.00    +0.256 C 
BRANCH  27  28
ATOM     28  C   UNL     1       2.291  -3.249   4.355  0.00  0.00    +0.006 C 
ATOM     29  C   UNL     1       3.387  -3.946   4.530  0.00  0.00    +0.007 C 
ENDBRANCH  27  28
ENDBRANCH  26  27
ENDBRANCH  22  26
ENDBRANCH   5  19
TORSDOF 5
