REMARK  Name = ZINC21228865
REMARK  8 active torsions:
REMARK  status: ('A' for Active; 'I' for Inactive)
REMARK    1  A    between atoms: C_1  and  O_2
REMARK    2  A    between atoms: O_2  and  C_3
REMARK    3  A    between atoms: C_5  and  C_13
REMARK    4  A    between atoms: C_7  and  O_11
REMARK    5  A    between atoms: C_8  and  O_9
REMARK    6  A    between atoms: O_9  and  C_10
REMARK    7  A    between atoms: O_11  and  C_12
REMARK    8  A    between atoms: C_18  and  C_28
REMARK                            x       y       z     vdW  Elec       q    Type
REMARK                         _______ _______ _______ _____ _____    ______ ____
ROOT
ATOM      1  C   UNL     1      -0.571  -3.187  -3.466  0.00  0.00    +0.032 C 
ATOM      2  C   UNL     1      -1.991  -2.631  -3.375  0.00  0.00    +0.059 C 
ATOM      3  C   UNL     1      -2.074  -1.597  -2.264  0.00  0.00    +0.017 C 
ATOM      4  C   UNL     1      -1.305  -1.711  -1.167  0.00  0.00    +0.038 C 
ATOM      5  C   UNL     1      -1.298  -0.767   0.010  0.00  0.00    +0.155 C 
ATOM      6  N   UNL     1      -2.388   0.186   0.026  0.00  0.00    -0.330 N 
ATOM      7  C   UNL     1      -2.503   1.159  -0.965  0.00  0.00    +0.049 A 
ATOM      8  C   UNL     1      -2.385   2.509  -0.672  0.00  0.00    +0.025 A 
ATOM      9  C   UNL     1      -2.460   3.436  -1.697  0.00  0.00    +0.002 A 
ATOM     10  C   UNL     1      -2.647   3.022  -3.003  0.00  0.00    +0.002 A 
ATOM     11  C   UNL     1      -2.783   1.675  -3.297  0.00  0.00    +0.025 A 
ATOM     12  C   UNL     1      -2.731   0.749  -2.270  0.00  0.00    +0.052 A 
ATOM     13  N   UNL     1      -2.974  -0.604  -2.477  0.00  0.00    -0.316 N 
ATOM     14  C   UNL     1      -0.398  -2.790  -1.042  0.00  0.00    +0.163 C 
ATOM     15  O   UNL     1       0.271  -2.879  -0.032  0.00  0.00    -0.292 OA
ATOM     16  C   UNL     1      -0.234  -3.826  -2.113  0.00  0.00    +0.088 C 
ATOM     17  H   UNL     1      -3.140   0.147   0.827  0.00  0.00    +0.147 HD
ATOM     18  H   UNL     1      -3.984  -0.845  -2.840  0.00  0.00    +0.152 HD
ENDROOT
BRANCH   1  21
ATOM     19  C   UNL     1       0.460  -5.019  -6.607  0.00  0.00    +0.165 A 
ATOM     20  C   UNL     1       0.389  -4.065  -5.603  0.00  0.00    +0.053 A 
ATOM     21  C   UNL     1      -0.497  -4.227  -4.554  0.00  0.00    -0.036 A 
ATOM     22  C   UNL     1      -1.312  -5.342  -4.499  0.00  0.00    +0.053 A 
ATOM     23  C   UNL     1      -1.251  -6.298  -5.501  0.00  0.00    +0.165 A 
ATOM     24  C   UNL     1      -0.362  -6.139  -6.557  0.00  0.00    +0.204 A 
BRANCH  19  26
ATOM     25  C   UNL     1       2.144  -3.684  -7.624  0.00  0.00    +0.277 C 
ATOM     26  O   UNL     1       1.331  -4.859  -7.638  0.00  0.00    -0.491 OA
ENDBRANCH  19  26
BRANCH  24  27
ATOM     27  O   UNL     1      -0.296  -7.078  -7.541  0.00  0.00    -0.488 OA
ATOM     28  C   UNL     1       0.629  -8.151  -7.353  0.00  0.00    +0.277 C 
ENDBRANCH  24  27
BRANCH  23  29
ATOM     29  O   UNL     1      -2.057  -7.392  -5.449  0.00  0.00    -0.491 OA
ATOM     30  C   UNL     1      -2.946  -7.490  -4.334  0.00  0.00    +0.277 C 
ENDBRANCH  23  29
ENDBRANCH   1  21
BRANCH   5  31
ATOM     31  C   UNL     1       0.002  -0.004   0.002  0.00  0.00    +0.066 A 
ATOM     32  C   UNL     1       0.780   0.032   1.144  0.00  0.00    +0.025 A 
ATOM     33  C   UNL     1       1.974   0.736   1.125  0.00  0.00    +0.003 A 
ATOM     34  C   UNL     1       2.342   1.381  -0.045  0.00  0.00    +0.020 A 
ATOM     35  C   UNL     1       1.513   1.300  -1.148  0.00  0.00    +0.111 A 
ATOM     36  N   UNL     1       0.384   0.621  -1.094  0.00  0.00    -0.258 NA
ENDBRANCH   5  31
TORSDOF 5
