REMARK  Name = ZINC06536899
REMARK  8 active torsions:
REMARK  status: ('A' for Active; 'I' for Inactive)
REMARK    1  A    between atoms: C_6  and  O_11
REMARK    2  A    between atoms: O_11  and  C_12
REMARK    3  A    between atoms: C_12  and  C_13
REMARK    4  A    between atoms: N_15  and  C_16
REMARK    5  A    between atoms: C_16  and  N_18
REMARK    6  A    between atoms: N_18  and  N_19
REMARK    7  A    between atoms: C_20  and  C_22
REMARK    8  A    between atoms: C_25  and  O_28
REMARK                            x       y       z     vdW  Elec       q    Type
REMARK                         _______ _______ _______ _____ _____    ______ ____
ROOT
ATOM      1  C   UNL     1       5.961  -4.830  -0.081  0.00  0.00    +0.256 C 
ATOM      2  O   UNL     1       5.981  -6.043  -0.087  0.00  0.00    -0.272 OA
ATOM      3  N   UNL     1       4.783  -4.176  -0.066  0.00  0.00    -0.264 N 
ATOM      4  H   UNL     1       4.766  -3.206  -0.061  0.00  0.00    +0.157 HD
ENDROOT
BRANCH   3   5
ATOM      5  C   UNL     1       3.627  -4.870  -0.058  0.00  0.00    +0.153 C 
ATOM      6  S   UNL     1       3.655  -6.581  -0.067  0.00  0.00    -0.017 S 
BRANCH   5   7
ATOM      7  N   UNL     1       2.449  -4.215  -0.043  0.00  0.00    -0.245 N 
ATOM      8  H   UNL     1       1.617  -4.714  -0.037  0.00  0.00    +0.172 HD
BRANCH   7   9
ATOM      9  N   UNL     1       2.425  -2.814  -0.036  0.00  0.00    -0.231 N 
ATOM     10  C   UNL     1       1.247  -2.160  -0.021  0.00  0.00    +0.260 C 
ATOM     11  O   UNL     1       0.204  -2.785  -0.014  0.00  0.00    -0.269 OA
ATOM     12  H   UNL     1       3.257  -2.315  -0.041  0.00  0.00    +0.173 HD
BRANCH  10  13
ATOM     13  C   UNL     1       1.223  -0.684  -0.013  0.00  0.00    +0.038 A 
ATOM     14  C   UNL     1       0.002  -0.004   0.002  0.00  0.00    +0.016 A 
ATOM     15  C   UNL     1      -0.017   1.373   0.010  0.00  0.00    +0.046 A 
ATOM     16  C   UNL     1       1.177   2.086   0.002  0.00  0.00    +0.117 A 
ATOM     17  C   UNL     1       2.393   1.413  -0.013  0.00  0.00    +0.046 A 
ATOM     18  C   UNL     1       2.420   0.036  -0.021  0.00  0.00    +0.016 A 
BRANCH  16  19
ATOM     19  O   UNL     1       1.154   3.443   0.009  0.00  0.00    -0.507 OA
ATOM     20  H   UNL     1       1.156   3.832   0.894  0.00  0.00    +0.292 HD
ENDBRANCH  16  19
ENDBRANCH  10  13
ENDBRANCH   7   9
ENDBRANCH   5   7
ENDBRANCH   3   5
BRANCH   1  21
ATOM     21  C   UNL     1       7.253  -4.055  -0.089  0.00  0.00    +0.324 C 
BRANCH  21  22
ATOM     22  O   UNL     1       8.355  -4.966  -0.105  0.00  0.00    -0.483 OA
BRANCH  22  28
ATOM     23  C   UNL     1      14.507  -3.544  -0.158  0.00  0.00    +0.001 A 
ATOM     24  C   UNL     1      14.361  -4.930  -0.164  0.00  0.00    +0.001 A 
ATOM     25  C   UNL     1      13.127  -5.504  -0.154  0.00  0.00    +0.008 A 
ATOM     26  C   UNL     1      11.981  -4.690  -0.139  0.00  0.00    -0.014 A 
ATOM     27  C   UNL     1      10.692  -5.247  -0.129  0.00  0.00    +0.054 A 
ATOM     28  C   UNL     1       9.601  -4.425  -0.114  0.00  0.00    +0.122 A 
ATOM     29  C   UNL     1       9.751  -3.035  -0.114  0.00  0.00    +0.046 A 
ATOM     30  C   UNL     1      10.985  -2.465  -0.118  0.00  0.00    +0.012 A 
ATOM     31  C   UNL     1      12.130  -3.281  -0.133  0.00  0.00    -0.018 A 
ATOM     32  C   UNL     1      13.421  -2.725  -0.144  0.00  0.00    +0.008 A 
ENDBRANCH  22  28
ENDBRANCH  21  22
ENDBRANCH   1  21
TORSDOF 8
