REMARK  Name = ZINC41019544
REMARK  11 active torsions:
REMARK  status: ('A' for Active; 'I' for Inactive)
REMARK    1  A    between atoms: C_1  and  C_2
REMARK    2  A    between atoms: C_2  and  C_3
REMARK    3  A    between atoms: C_3  and  C_4
REMARK    4  A    between atoms: C_4  and  S_5
REMARK    5  A    between atoms: S_5  and  C_6
REMARK    6  A    between atoms: C_11  and  C_27
REMARK    7  A    between atoms: C_13  and  C_17
REMARK    8  A    between atoms: C_14  and  C_16
REMARK    9  A    between atoms: N_19  and  C_20
REMARK   10  A    between atoms: C_24  and  C_26
REMARK   11  A    between atoms: C_31  and  O_33
REMARK                            x       y       z     vdW  Elec       q    Type
REMARK                         _______ _______ _______ _____ _____    ______ ____
ROOT
ATOM      1  C   UNL     1       1.384  -4.390   2.540  0.00  0.00    +0.210 A 
ATOM      2  N   UNL     1       0.866  -5.118   1.539  0.00  0.00    -0.187 NA
ATOM      3  C   UNL     1       1.063  -6.386   1.775  0.00  0.00    +0.219 A 
ATOM      4  N   UNL     1       1.727  -6.498   2.952  0.00  0.00    -0.220 N 
ATOM      5  N   UNL     1       1.924  -5.201   3.424  0.00  0.00    -0.141 NA
ATOM      6  C   UNL     1       2.129  -7.775   3.535  0.00  0.00    +0.177 C 
ATOM      7  C   UNL     1       1.445  -8.898   2.802  0.00  0.00    +0.060 C 
ATOM      8  C   UNL     1       0.798  -8.727   1.640  0.00  0.00    +0.018 C 
ATOM      9  N   UNL     1       0.701  -7.500   1.031  0.00  0.00    -0.287 N 
ATOM     10  C   UNL     1       0.157  -9.921   0.981  0.00  0.00    +0.061 C 
ATOM     11  H   UNL     1       0.390  -7.416   0.116  0.00  0.00    +0.155 HD
ENDROOT
BRANCH   6  12
ATOM     12  C   UNL     1       3.623  -7.934   3.415  0.00  0.00    -0.015 A 
ATOM     13  C   UNL     1       4.221  -7.927   2.168  0.00  0.00    +0.006 A 
ATOM     14  C   UNL     1       5.591  -8.072   2.055  0.00  0.00    +0.004 A 
ATOM     15  C   UNL     1       6.367  -8.225   3.188  0.00  0.00    +0.045 A 
ATOM     16  C   UNL     1       5.769  -8.232   4.440  0.00  0.00    +0.117 A 
ATOM     17  C   UNL     1       4.395  -8.080   4.552  0.00  0.00    +0.051 A 
BRANCH  16  18
ATOM     18  O   UNL     1       6.530  -8.382   5.557  0.00  0.00    -0.507 OA
ATOM     19  H   UNL     1       6.848  -7.549   5.931  0.00  0.00    +0.292 HD
ENDBRANCH  16  18
ENDBRANCH   6  12
BRANCH   7  20
ATOM     20  C   UNL     1       1.487 -10.195   3.366  0.00  0.00    +0.248 C 
ATOM     21  O   UNL     1       0.785 -10.466   4.324  0.00  0.00    -0.270 OA
ATOM     22  N   UNL     1       2.304 -11.131   2.844  0.00  0.00    -0.282 N 
ATOM     23  H   UNL     1       2.910 -10.898   2.123  0.00  0.00    +0.155 HD
BRANCH  22  24
ATOM     24  C   UNL     1       2.278 -12.438   3.340  0.00  0.00    +0.034 A 
ATOM     25  C   UNL     1       2.483 -13.512   2.483  0.00  0.00    +0.023 A 
ATOM     26  C   UNL     1       2.456 -14.802   2.977  0.00  0.00    +0.002 A 
ATOM     27  C   UNL     1       2.225 -15.025   4.322  0.00  0.00    +0.003 A 
ATOM     28  C   UNL     1       2.021 -13.958   5.177  0.00  0.00    -0.049 A 
ATOM     29  C   UNL     1       2.052 -12.665   4.691  0.00  0.00    +0.026 A 
ATOM     30  C   UNL     1       1.770 -14.205   6.643  0.00  0.00    +0.044 C 
ENDBRANCH  22  24
ENDBRANCH   7  20
BRANCH   1  31
ATOM     31  S   UNL     1       1.352  -2.632   2.650  0.00  0.00    -0.084 S 
BRANCH  31  32
ATOM     32  C   UNL     1       0.479  -2.115   1.146  0.00  0.00    +0.077 C 
BRANCH  32  33
ATOM     33  C   UNL     1       0.380  -0.588   1.114  0.00  0.00    +0.011 C 
BRANCH  33  35
ATOM     34  C   UNL     1      -0.456   1.375  -0.186  0.00  0.00    +0.004 C 
ATOM     35  C   UNL     1      -0.356  -0.151  -0.154  0.00  0.00    -0.003 C 
ENDBRANCH  33  35
ENDBRANCH  32  33
ENDBRANCH  31  32
ENDBRANCH   1  31
TORSDOF 8
