REMARK  Name = ZINC55132014
REMARK  7 active torsions:
REMARK  status: ('A' for Active; 'I' for Inactive)
REMARK    1  A    between atoms: C_1  and  C_2
REMARK    2  A    between atoms: C_2  and  C_3
REMARK    3  A    between atoms: C_3  and  C_5
REMARK    4  A    between atoms: C_3  and  N_6
REMARK    5  A    between atoms: C_12  and  C_14
REMARK    6  A    between atoms: C_19  and  C_24
REMARK    7  A    between atoms: C_21  and  N_23
REMARK                            x       y       z     vdW  Elec       q    Type
REMARK                         _______ _______ _______ _____ _____    ______ ____
ROOT
ATOM      1  N   UNL     1       2.000   0.159   1.661  0.00  0.00    -0.297 NA
ATOM      2  C   UNL     1       2.402   1.562   1.501  0.00  0.00    +0.103 C 
ATOM      3  C   UNL     1       3.850   1.621   1.002  0.00  0.00    +0.123 C 
ATOM      4  N   UNL     1       4.691   0.833   1.916  0.00  0.00    -0.299 N 
ATOM      5  C   UNL     1       4.275  -0.541   2.234  0.00  0.00    +0.123 C 
ATOM      6  C   UNL     1       2.811  -0.515   2.684  0.00  0.00    +0.103 C 
ATOM      7  C   UNL     1       5.814   1.357   2.447  0.00  0.00    +0.217 C 
ATOM      8  O   UNL     1       6.197   2.452   2.095  0.00  0.00    -0.275 OA
ENDROOT
BRANCH   7   9
ATOM      9  C   UNL     1       6.592   0.581   3.478  0.00  0.00    +0.061 C 
ATOM     10  C   UNL     1       7.385  -0.531   2.789  0.00  0.00    +0.011 C 
ATOM     11  C   UNL     1       8.175  -1.319   3.836  0.00  0.00    +0.001 C 
ATOM     12  C   UNL     1       9.140  -0.379   4.560  0.00  0.00    +0.002 C 
ATOM     13  C   UNL     1       8.348   0.734   5.249  0.00  0.00    -0.028 C 
ATOM     14  C   UNL     1       7.558   1.522   4.202  0.00  0.00    -0.060 C 
ATOM     15  C   UNL     1       7.380   0.118   6.262  0.00  0.00    +0.006 C 
BRANCH  14  16
ATOM     16  N   UNL     1       6.797   2.590   4.864  0.00  0.00    +0.381 N 
ATOM     17  H   UNL     1       6.158   2.183   5.532  0.00  0.00    -0.090 HD
ATOM     18  H   UNL     1       7.433   3.210   5.342  0.00  0.00    -0.090 HD
ATOM     19  H   UNL     1       6.276   3.109   4.174  0.00  0.00    -0.090 HD
ENDBRANCH  14  16
ENDBRANCH   7   9
BRANCH   1  20
ATOM     20  C   UNL     1       0.568   0.054   1.972  0.00  0.00    +0.053 C 
ATOM     21  C   UNL     1       0.324   0.510   3.412  0.00  0.00    +0.024 C 
BRANCH  20  23
ATOM     22  C   UNL     1       0.289  -1.830   0.356  0.00  0.00    +0.005 C 
ATOM     23  C   UNL     1       0.116  -1.399   1.813  0.00  0.00    +0.015 C 
ENDBRANCH  20  23
ENDBRANCH   1  20
TORSDOF 4
