REMARK  Name = ZINC04177861
REMARK  6 active torsions:
REMARK  status: ('A' for Active; 'I' for Inactive)
REMARK    1  A    between atoms: C_1  and  O_2
REMARK    2  A    between atoms: O_2  and  C_3
REMARK    3  A    between atoms: C_6  and  C_10
REMARK    4  A    between atoms: N_14  and  C_22
REMARK    5  A    between atoms: C_22  and  C_23
REMARK    6  A    between atoms: C_28  and  C_31
REMARK                            x       y       z     vdW  Elec       q    Type
REMARK                         _______ _______ _______ _____ _____    ______ ____
ROOT
ATOM      1  C   UNL     1      -9.393   2.535   0.137  0.00  0.00    +0.059 C 
ATOM      2  C   UNL     1      -8.461   2.927   1.035  0.00  0.00    +0.191 C 
ATOM      3  C   UNL     1      -7.335   2.047   1.411  0.00  0.00    +0.287 C 
ATOM      4  O   UNL     1      -7.421   0.837   1.317  0.00  0.00    -0.266 OA
ATOM      5  N   UNL     1      -6.204   2.639   1.863  0.00  0.00    -0.253 N 
ATOM      6  C   UNL     1      -6.158   4.037   1.944  0.00  0.00    +0.080 A 
ATOM      7  C   UNL     1      -4.942   4.681   2.131  0.00  0.00    +0.027 A 
ATOM      8  C   UNL     1      -4.898   6.061   2.204  0.00  0.00    +0.002 A 
ATOM      9  C   UNL     1      -6.059   6.802   2.086  0.00  0.00    +0.004 A 
ATOM     10  C   UNL     1      -7.273   6.167   1.895  0.00  0.00    +0.048 A 
ATOM     11  C   UNL     1      -7.326   4.785   1.822  0.00  0.00    +0.150 A 
ATOM     12  O   UNL     1      -8.519   4.155   1.636  0.00  0.00    -0.449 OA
ENDROOT
BRANCH   1  16
ATOM     13  C   UNL     1     -13.031   4.689  -0.220  0.00  0.00    +0.134 A 
ATOM     14  C   UNL     1     -12.144   4.992   0.807  0.00  0.00    +0.047 A 
ATOM     15  C   UNL     1     -10.964   4.292   0.930  0.00  0.00    +0.012 A 
ATOM     16  C   UNL     1     -10.653   3.282   0.013  0.00  0.00    -0.020 A 
ATOM     17  C   UNL     1     -11.549   2.981  -1.019  0.00  0.00    +0.027 A 
ATOM     18  C   UNL     1     -12.729   3.683  -1.131  0.00  0.00    +0.060 A 
ATOM     19 BR   UNL     1     -13.941   3.279  -2.525  0.00  0.00    -0.047 Br
BRANCH  13  21
ATOM     20  C   UNL     1     -14.442   6.399   0.636  0.00  0.00    +0.277 C 
ATOM     21  O   UNL     1     -14.195   5.378  -0.333  0.00  0.00    -0.494 OA
ENDBRANCH  13  21
ENDBRANCH   1  16
BRANCH   5  22
ATOM     22  C   UNL     1      -5.051   1.831   2.268  0.00  0.00    +0.210 C 
BRANCH  22  23
ATOM     23  C   UNL     1      -4.152   1.607   1.079  0.00  0.00    +0.233 C 
ATOM     24  O   UNL     1      -4.446   2.077  -0.000  0.00  0.00    -0.274 OA
ATOM     25  N   UNL     1      -3.022   0.885   1.214  0.00  0.00    -0.300 N 
ATOM     26  C   UNL     1      -2.136   0.659   0.064  0.00  0.00    +0.108 C 
ATOM     27  C   UNL     1      -0.717   1.098   0.441  0.00  0.00    +0.032 C 
ATOM     28  C   UNL     1      -0.286   0.375   1.718  0.00  0.00    +0.078 C 
ATOM     29  C   UNL     1      -1.229   0.753   2.863  0.00  0.00    +0.032 C 
ATOM     30  C   UNL     1      -2.653   0.310   2.514  0.00  0.00    +0.108 C 
BRANCH  28  31
ATOM     31  C   UNL     1       1.122   0.779   2.073  0.00  0.00    +0.214 C 
ATOM     32  O   UNL     1       1.721   1.568   1.373  0.00  0.00    -0.276 OA
ATOM     33  N   UNL     1       1.715   0.264   3.168  0.00  0.00    -0.329 N 
ATOM     34  H   UNL     1       1.236  -0.367   3.728  0.00  0.00    +0.145 HD
ATOM     35  H   UNL     1       2.622   0.524   3.396  0.00  0.00    +0.145 HD
ENDBRANCH  28  31
ENDBRANCH  22  23
ENDBRANCH   5  22
TORSDOF 5
