REMARK  Name = ZINC61270602
REMARK  6 active torsions:
REMARK  status: ('A' for Active; 'I' for Inactive)
REMARK    1  A    between atoms: C_1  and  C_2
REMARK    2  A    between atoms: C_2  and  C_3
REMARK    3  A    between atoms: C_3  and  C_5
REMARK    4  A    between atoms: C_3  and  N_12
REMARK    5  A    between atoms: C_13  and  C_15
REMARK    6  A    between atoms: C_15  and  N_16
REMARK                            x       y       z     vdW  Elec       q    Type
REMARK                         _______ _______ _______ _____ _____    ______ ____
ROOT
ATOM      1  N   UNL     1      -2.082  -0.162   1.273  0.00  0.00    -0.310 N 
ATOM      2  C   UNL     1      -2.664   1.047   1.400  0.00  0.00    +0.197 C 
ATOM      3  O   UNL     1      -2.651   1.827   0.471  0.00  0.00    -0.278 OA
ATOM      4  H   UNL     1      -2.092  -0.785   2.016  0.00  0.00    +0.149 HD
ENDROOT
BRANCH   1   5
ATOM      5  C   UNL     1      -1.433  -0.534   0.013  0.00  0.00    +0.103 C 
BRANCH   5   6
ATOM      6  C   UNL     1      -1.416  -2.035  -0.119  0.00  0.00    -0.027 A 
ATOM      7  C   UNL     1      -1.159  -2.823   0.987  0.00  0.00    +0.006 A 
ATOM      8  C   UNL     1      -1.143  -4.200   0.867  0.00  0.00    +0.015 A 
ATOM      9  C   UNL     1      -1.385  -4.789  -0.361  0.00  0.00    +0.018 A 
ATOM     10  C   UNL     1      -1.642  -4.000  -1.468  0.00  0.00    +0.015 A 
ATOM     11  C   UNL     1      -1.663  -2.623  -1.345  0.00  0.00    +0.006 A 
ATOM     12 BR   UNL     1      -1.363  -6.673  -0.527  0.00  0.00    -0.050 Br
ENDBRANCH   5   6
BRANCH   5  14
ATOM     13  C   UNL     1      -0.019   1.526   0.010  0.00  0.00    +0.006 C 
ATOM     14  C   UNL     1       0.002  -0.004   0.002  0.00  0.00    +0.024 C 
ENDBRANCH   5  14
ENDBRANCH   1   5
BRANCH   2  15
ATOM     15  C   UNL     1      -3.330   1.430   2.696  0.00  0.00    +0.019 C 
BRANCH  15  16
ATOM     16  N   UNL     1      -3.884   2.785   2.581  0.00  0.00    +0.386 N 
ATOM     17  C   UNL     1      -4.359   3.223   3.911  0.00  0.00    -0.077 C 
ATOM     18  C   UNL     1      -4.428   4.729   3.931  0.00  0.00    -0.003 C 
ATOM     19  C   UNL     1      -5.828   5.246   3.557  0.00  0.00    +0.079 C 
ATOM     20  N   UNL     1      -6.426   4.487   2.435  0.00  0.00    -0.318 NA
ATOM     21  C   UNL     1      -5.487   4.181   1.378  0.00  0.00    +0.062 C 
ATOM     22  C   UNL     1      -4.902   2.777   1.621  0.00  0.00    -0.063 C 
ATOM     23  H   UNL     1      -6.882   3.650   2.766  0.00  0.00    +0.122 HD
ATOM     24  H   UNL     1      -3.154   3.410   2.275  0.00  0.00    -0.081 HD
ENDBRANCH  15  16
ENDBRANCH   2  15
TORSDOF 5
