REMARK  Name = ZINC01228094
REMARK  6 active torsions:
REMARK  status: ('A' for Active; 'I' for Inactive)
REMARK    1  A    between atoms: C_1  and  C_2
REMARK    2  A    between atoms: C_5  and  O_8
REMARK    3  A    between atoms: O_8  and  C_9
REMARK    4  A    between atoms: C_9  and  C_10
REMARK    5  A    between atoms: N_12  and  N_13
REMARK    6  A    between atoms: C_14  and  C_15
REMARK                            x       y       z     vdW  Elec       q    Type
REMARK                         _______ _______ _______ _____ _____    ______ ____
ROOT
ATOM      1  C   UNL     1       2.343  -4.165  -0.042  0.00  0.00    +0.270 C 
ATOM      2  O   UNL     1       1.230  -4.646  -0.033  0.00  0.00    -0.270 OA
ATOM      3  N   UNL     1       3.425  -4.969  -0.056  0.00  0.00    -0.204 N 
ATOM      4  H   UNL     1       4.315  -4.584  -0.063  0.00  0.00    +0.177 HD
ENDROOT
BRANCH   3   5
ATOM      5  N   UNL     1       3.263  -6.361  -0.062  0.00  0.00    -0.188 NA
ATOM      6  C   UNL     1       4.304  -7.135  -0.076  0.00  0.00    +0.141 C 
BRANCH   6   7
ATOM      7  C   UNL     1       4.134  -8.599  -0.082  0.00  0.00    +0.032 A 
ATOM      8  C   UNL     1       5.245  -9.434  -0.097  0.00  0.00    +0.022 A 
ATOM      9  C   UNL     1       5.027 -10.822  -0.101  0.00  0.00    +0.001 A 
ATOM     10  C   UNL     1       6.101 -11.728  -0.116  0.00  0.00    +0.010 A 
ATOM     11  C   UNL     1       5.853 -13.067  -0.119  0.00  0.00    +0.001 A 
ATOM     12  C   UNL     1       4.547 -13.551  -0.108  0.00  0.00    +0.002 A 
ATOM     13  C   UNL     1       3.483 -12.702  -0.094  0.00  0.00    +0.028 A 
ATOM     14  C   UNL     1       3.697 -11.313  -0.090  0.00  0.00    +0.073 A 
ATOM     15  N   UNL     1       2.665 -10.461  -0.076  0.00  0.00    -0.235 NA
ATOM     16  C   UNL     1       2.844  -9.164  -0.066  0.00  0.00    +0.139 A 
ATOM     17 CL   UNL     1       1.459  -8.117  -0.040  0.00  0.00    -0.061 Cl
ENDBRANCH   6   7
ENDBRANCH   3   5
BRANCH   1  18
ATOM     18  C   UNL     1       2.518  -2.668  -0.036  0.00  0.00    +0.326 C 
BRANCH  18  19
ATOM     19  O   UNL     1       1.234  -2.039  -0.020  0.00  0.00    -0.483 OA
BRANCH  19  24
ATOM     20  C   UNL     1       1.147   3.593   0.011  0.00  0.00    +0.044 C 
ATOM     21  C   UNL     1       1.171   2.086   0.002  0.00  0.00    -0.050 A 
ATOM     22  C   UNL     1      -0.017   1.377   0.010  0.00  0.00    +0.007 A 
ATOM     23  C   UNL     1       0.002  -0.004   0.002  0.00  0.00    +0.046 A 
ATOM     24  C   UNL     1       1.213  -0.680  -0.013  0.00  0.00    +0.121 A 
ATOM     25  C   UNL     1       2.403   0.033  -0.021  0.00  0.00    +0.046 A 
ATOM     26  C   UNL     1       2.379   1.415  -0.013  0.00  0.00    +0.007 A 
ENDBRANCH  19  24
ENDBRANCH  18  19
ENDBRANCH   1  18
TORSDOF 5
