REMARK  Name = ZINC22373394
REMARK  10 active torsions:
REMARK  status: ('A' for Active; 'I' for Inactive)
REMARK    1  A    between atoms: C_1  and  C_2
REMARK    2  A    between atoms: C_2  and  C_32
REMARK    3  A    between atoms: C_4  and  N_15
REMARK    4  A    between atoms: C_8  and  O_13
REMARK    5  A    between atoms: O_13  and  C_14
REMARK    6  A    between atoms: C_16  and  C_18
REMARK    7  A    between atoms: C_18  and  N_19
REMARK    8  A    between atoms: N_19  and  C_20
REMARK    9  A    between atoms: N_19  and  S_28
REMARK   10  A    between atoms: S_28  and  C_31
REMARK                            x       y       z     vdW  Elec       q    Type
REMARK                         _______ _______ _______ _____ _____    ______ ____
ROOT
ATOM      1  N   UNL     1      -2.068   1.070   0.239  0.00  0.00    -0.307 N 
ATOM      2  C   UNL     1      -2.941   0.043   0.256  0.00  0.00    +0.233 C 
ATOM      3  O   UNL     1      -3.125  -0.580   1.280  0.00  0.00    -0.274 OA
ATOM      4  H   UNL     1      -1.902   1.635  -0.690  0.00  0.00    +0.149 HD
ENDROOT
BRANCH   1   8
ATOM      5  C   UNL     1      -0.551   2.772   3.860  0.00  0.00    +0.055 C 
ATOM      6  C   UNL     1       0.059   3.189   2.520  0.00  0.00    +0.107 C 
ATOM      7  C   UNL     1      -0.939   2.909   1.389  0.00  0.00    +0.074 C 
ATOM      8  C   UNL     1      -1.342   1.434   1.458  0.00  0.00    +0.111 C 
ATOM      9  C   UNL     1      -0.108   0.576   1.581  0.00  0.00    +0.018 A 
ATOM     10  C   UNL     1      -0.204  -0.774   1.286  0.00  0.00    +0.054 A 
ATOM     11  C   UNL     1       0.907  -1.594   1.397  0.00  0.00    +0.121 A 
ATOM     12  C   UNL     1       2.121  -1.061   1.806  0.00  0.00    +0.049 A 
ATOM     13  C   UNL     1       2.218   0.284   2.099  0.00  0.00    +0.049 A 
ATOM     14  C   UNL     1       1.103   1.109   1.986  0.00  0.00    +0.126 A 
ATOM     15  O   UNL     1       1.243   2.430   2.274  0.00  0.00    -0.486 OA
ATOM     16  C   UNL     1       0.400   4.680   2.551  0.00  0.00    +0.055 C 
BRANCH  11  17
ATOM     17  O   UNL     1       0.808  -2.918   1.106  0.00  0.00    -0.495 OA
ATOM     18  C   UNL     1       1.995  -3.703   1.243  0.00  0.00    +0.277 C 
ENDBRANCH  11  17
ENDBRANCH   1   8
BRANCH   2  19
ATOM     19  C   UNL     1      -3.689  -0.332  -0.998  0.00  0.00    +0.226 C 
BRANCH  19  20
ATOM     20  N   UNL     1      -4.568  -1.470  -0.721  0.00  0.00    -0.199 N 
BRANCH  20  21
ATOM     21  C   UNL     1      -5.842  -1.256  -0.185  0.00  0.00    +0.054 A 
ATOM     22  C   UNL     1      -6.752  -0.451  -0.859  0.00  0.00    +0.028 A 
ATOM     23  C   UNL     1      -8.012  -0.244  -0.332  0.00  0.00    +0.043 A 
ATOM     24  C   UNL     1      -8.366  -0.828   0.872  0.00  0.00    +0.159 A 
ATOM     25  C   UNL     1      -7.457  -1.627   1.550  0.00  0.00    +0.160 A 
ATOM     26  C   UNL     1      -6.196  -1.841   1.022  0.00  0.00    +0.066 A 
ATOM     27  F   UNL     1      -7.803  -2.197   2.725  0.00  0.00    -0.202 F 
ATOM     28  F   UNL     1      -9.597  -0.621   1.388  0.00  0.00    -0.202 F 
ENDBRANCH  20  21
BRANCH  20  29
ATOM     29  S   UNL     1      -4.053  -3.011  -1.041  0.00  0.00    +0.043 S 
ATOM     30  O   UNL     1      -5.246  -3.776  -1.154  0.00  0.00    -0.155 OA
ATOM     31  O   UNL     1      -3.172  -2.876  -2.147  0.00  0.00    -0.155 OA
ATOM     32  C   UNL     1      -3.129  -3.510   0.438  0.00  0.00    +0.218 C 
ENDBRANCH  20  29
ENDBRANCH  19  20
ENDBRANCH   2  19
TORSDOF 6
