REMARK  Name = ZINC21222567
REMARK  6 active torsions:
REMARK  status: ('A' for Active; 'I' for Inactive)
REMARK    1  A    between atoms: C_1  and  C_2
REMARK    2  A    between atoms: C_2  and  C_3
REMARK    3  A    between atoms: C_3  and  O_4
REMARK    4  A    between atoms: O_4  and  C_5
REMARK    5  A    between atoms: C_8  and  C_11
REMARK    6  A    between atoms: C_16  and  C_26
REMARK                            x       y       z     vdW  Elec       q    Type
REMARK                         _______ _______ _______ _____ _____    ______ ____
ROOT
ATOM      1  C   UNL     1       3.216   2.097  -3.805  0.00  0.00    +0.032 C 
ATOM      2  C   UNL     1       2.654   0.745  -3.367  0.00  0.00    +0.059 C 
ATOM      3  C   UNL     1       1.740   0.931  -2.165  0.00  0.00    +0.017 C 
ATOM      4  C   UNL     1       2.004   1.884  -1.257  0.00  0.00    +0.036 C 
ATOM      5  C   UNL     1       1.213   2.152   0.002  0.00  0.00    +0.136 C 
ATOM      6  N   UNL     1      -0.058   1.461   0.064  0.00  0.00    -0.331 N 
ATOM      7  C   UNL     1      -0.118   0.071   0.113  0.00  0.00    +0.049 A 
ATOM      8  C   UNL     1      -0.596  -0.591   1.234  0.00  0.00    +0.025 A 
ATOM      9  C   UNL     1      -0.595  -1.974   1.260  0.00  0.00    +0.002 A 
ATOM     10  C   UNL     1      -0.119  -2.696   0.180  0.00  0.00    +0.002 A 
ATOM     11  C   UNL     1       0.342  -2.038  -0.949  0.00  0.00    +0.025 A 
ATOM     12  C   UNL     1       0.320  -0.656  -0.984  0.00  0.00    +0.052 A 
ATOM     13  N   UNL     1       0.695   0.066  -2.113  0.00  0.00    -0.316 N 
ATOM     14  C   UNL     1       3.107   2.752  -1.433  0.00  0.00    +0.163 C 
ATOM     15  O   UNL     1       3.332   3.592  -0.583  0.00  0.00    -0.292 OA
ATOM     16  C   UNL     1       4.010   2.675  -2.627  0.00  0.00    +0.088 C 
ATOM     17  H   UNL     1      -0.996   2.035   0.073  0.00  0.00    +0.147 HD
ATOM     18  H   UNL     1       0.076  -0.103  -3.006  0.00  0.00    +0.152 HD
ENDROOT
BRANCH   5  19
ATOM     19  C   UNL     1       2.043   1.734   1.188  0.00  0.00    -0.021 A 
ATOM     20  C   UNL     1       2.364   0.402   1.372  0.00  0.00    +0.007 A 
ATOM     21  C   UNL     1       3.126   0.017   2.459  0.00  0.00    +0.022 A 
ATOM     22  C   UNL     1       3.569   0.966   3.363  0.00  0.00    +0.059 A 
ATOM     23  C   UNL     1       3.248   2.300   3.179  0.00  0.00    +0.060 A 
ATOM     24  C   UNL     1       2.489   2.683   2.088  0.00  0.00    +0.027 A 
ATOM     25 CL   UNL     1       3.802   3.491   4.314  0.00  0.00    -0.082 Cl
ATOM     26 CL   UNL     1       4.527   0.483   4.729  0.00  0.00    -0.082 Cl
ENDBRANCH   5  19
BRANCH   1  30
ATOM     27  C   UNL     1       5.794   1.571  -7.172  0.00  0.00    +0.121 A 
ATOM     28  C   UNL     1       4.690   2.406  -7.266  0.00  0.00    +0.046 A 
ATOM     29  C   UNL     1       3.858   2.574  -6.176  0.00  0.00    +0.007 A 
ATOM     30  C   UNL     1       4.125   1.911  -4.992  0.00  0.00    -0.043 A 
ATOM     31  C   UNL     1       5.228   1.084  -4.894  0.00  0.00    +0.007 A 
ATOM     32  C   UNL     1       6.060   0.908  -5.983  0.00  0.00    +0.046 A 
BRANCH  27  33
ATOM     33  O   UNL     1       6.614   1.404  -8.243  0.00  0.00    -0.492 OA
BRANCH  33  34
ATOM     34  C   UNL     1       7.732   0.530  -8.074  0.00  0.00    +0.229 C 
BRANCH  34  36
ATOM     35  C   UNL     1       9.729  -0.468  -9.195  0.00  0.00    +0.007 C 
ATOM     36  C   UNL     1       8.533   0.468  -9.376  0.00  0.00    +0.038 C 
ENDBRANCH  34  36
ENDBRANCH  33  34
ENDBRANCH  27  33
ENDBRANCH   1  30
TORSDOF 5
