REMARK  Name = ZINC22291223
REMARK  8 active torsions:
REMARK  status: ('A' for Active; 'I' for Inactive)
REMARK    1  A    between atoms: C_1  and  C_2
REMARK    2  A    between atoms: C_5  and  C_8
REMARK    3  A    between atoms: C_8  and  C_32
REMARK    4  A    between atoms: N_11  and  C_15
REMARK    5  A    between atoms: C_15  and  C_16
REMARK    6  A    between atoms: C_21  and  C_24
REMARK    7  A    between atoms: C_24  and  N_25
REMARK    8  A    between atoms: C_28  and  C_31
REMARK                            x       y       z     vdW  Elec       q    Type
REMARK                         _______ _______ _______ _____ _____    ______ ____
ROOT
ATOM      1  C   UNL     1      -3.917  -5.345   1.650  0.00  0.00    +0.237 C 
ATOM      2  O   UNL     1      -3.906  -4.210   1.224  0.00  0.00    -0.274 OA
ATOM      3  N   UNL     1      -4.976  -5.791   2.354  0.00  0.00    -0.263 N 
ATOM      4  C   UNL     1      -6.056  -4.949   2.592  0.00  0.00    +0.165 A 
ATOM      5  N   UNL     1      -7.161  -5.206   3.257  0.00  0.00    -0.231 NA
ATOM      6  C   UNL     1      -8.102  -4.290   3.396  0.00  0.00    +0.034 A 
ATOM      7  C   UNL     1      -7.875  -3.082   2.826  0.00  0.00    +0.070 A 
ATOM      8  S   UNL     1      -6.263  -3.351   2.107  0.00  0.00    -0.060 S 
ATOM      9  H   UNL     1      -4.984  -6.699   2.694  0.00  0.00    +0.157 HD
ENDROOT
BRANCH   1  10
ATOM     10  C   UNL     1      -2.746  -6.258   1.391  0.00  0.00    +0.214 C 
BRANCH  10  14
ATOM     11  C   UNL     1       0.059  -4.275  -0.021  0.00  0.00    +0.135 C 
ATOM     12  C   UNL     1      -0.728  -4.825   1.151  0.00  0.00    +0.251 C 
ATOM     13  O   UNL     1      -0.502  -4.654   2.330  0.00  0.00    -0.272 OA
ATOM     14  N   UNL     1      -1.732  -5.543   0.611  0.00  0.00    -0.215 N 
ATOM     15  C   UNL     1      -1.689  -5.524  -0.726  0.00  0.00    +0.310 C 
ATOM     16  O   UNL     1      -2.490  -6.100  -1.437  0.00  0.00    -0.252 OA
ATOM     17  N   UNL     1      -0.660  -4.796  -1.197  0.00  0.00    -0.281 N 
ATOM     18  C   UNL     1       1.499  -4.794   0.002  0.00  0.00    +0.047 C 
ATOM     19  H   UNL     1      -0.435  -4.644  -2.128  0.00  0.00    +0.152 HD
BRANCH  11  24
ATOM     20  C   UNL     1      -0.018   1.503   0.010  0.00  0.00    +0.044 C 
ATOM     21  C   UNL     1       0.002  -0.004   0.002  0.00  0.00    -0.050 A 
ATOM     22  C   UNL     1       0.006  -0.689  -1.199  0.00  0.00    +0.004 A 
ATOM     23  C   UNL     1       0.025  -2.071  -1.206  0.00  0.00    +0.006 A 
ATOM     24  C   UNL     1       0.040  -2.768  -0.013  0.00  0.00    -0.015 A 
ATOM     25  C   UNL     1       0.037  -2.084   1.188  0.00  0.00    +0.006 A 
ATOM     26  C   UNL     1       0.023  -0.702   1.195  0.00  0.00    +0.004 A 
ENDBRANCH  11  24
ENDBRANCH  10  14
ENDBRANCH   1  10
BRANCH   6  27
ATOM     27  C   UNL     1      -9.372  -4.576   4.155  0.00  0.00    -0.022 C 
BRANCH  27  28
ATOM     28  N   UNL     1     -10.344  -5.219   3.260  0.00  0.00    +0.383 N 
ATOM     29  C   UNL     1      -9.829  -6.528   2.841  0.00  0.00    -0.078 C 
ATOM     30  C   UNL     1     -10.800  -7.166   1.844  0.00  0.00    -0.016 C 
ATOM     31  C   UNL     1     -12.166  -7.343   2.513  0.00  0.00    -0.018 C 
ATOM     32  C   UNL     1     -12.659  -5.982   3.013  0.00  0.00    -0.016 C 
ATOM     33  C   UNL     1     -11.620  -5.388   3.966  0.00  0.00    -0.078 C 
ATOM     34  C   UNL     1     -13.163  -7.908   1.499  0.00  0.00    +0.007 C 
ATOM     35  H   UNL     1     -10.485  -4.639   2.447  0.00  0.00    -0.081 HD
ENDBRANCH  27  28
ENDBRANCH   6  27
TORSDOF 5
