REMARK  Name = ZINC02974922
REMARK  6 active torsions:
REMARK  status: ('A' for Active; 'I' for Inactive)
REMARK    1  A    between atoms: C_1  and  C_2
REMARK    2  A    between atoms: C_5  and  N_12
REMARK    3  A    between atoms: C_8  and  C_10
REMARK    4  A    between atoms: C_8  and  C_11
REMARK    5  A    between atoms: C_15  and  C_29
REMARK    6  A    between atoms: N_17  and  C_22
REMARK                            x       y       z     vdW  Elec       q    Type
REMARK                         _______ _______ _______ _____ _____    ______ ____
ROOT
ATOM      1  N   UNL     1      -0.139   3.490   2.598  0.00  0.00    -0.326 N 
ATOM      2  C   UNL     1      -1.445   3.758   2.230  0.00  0.00    +0.132 A 
ATOM      3  C   UNL     1      -2.015   3.142   1.107  0.00  0.00    +0.067 A 
ATOM      4  C   UNL     1      -1.549   2.179   0.101  0.00  0.00    +0.013 A 
ATOM      5  C   UNL     1      -2.586   1.975  -0.748  0.00  0.00    +0.102 A 
ATOM      6  N   UNL     1      -3.661   2.724  -0.349  0.00  0.00    -0.300 N 
ATOM      7  C   UNL     1      -3.346   3.446   0.773  0.00  0.00    +0.151 A 
ATOM      8  N   UNL     1      -4.013   4.309   1.538  0.00  0.00    -0.217 NA
ATOM      9  C   UNL     1      -3.439   4.864   2.583  0.00  0.00    +0.225 A 
ATOM     10  N   UNL     1      -2.191   4.606   2.932  0.00  0.00    -0.220 NA
ATOM     11  H   UNL     1       0.423   2.942   2.029  0.00  0.00    +0.148 HD
ENDROOT
BRANCH   1  15
ATOM     12  C   UNL     1       4.109   3.243   3.204  0.00  0.00    +0.007 C 
ATOM     13  C   UNL     1       2.717   3.825   2.948  0.00  0.00    -0.012 C 
ATOM     14  C   UNL     1       1.788   3.452   4.105  0.00  0.00    +0.025 C 
ATOM     15  C   UNL     1       0.396   4.034   3.849  0.00  0.00    +0.072 C 
ATOM     16  C   UNL     1       0.492   5.558   3.742  0.00  0.00    +0.028 C 
ATOM     17  C   UNL     1       1.421   5.930   2.585  0.00  0.00    -0.033 C 
ATOM     18  C   UNL     1       2.813   5.348   2.841  0.00  0.00    +0.009 C 
ATOM     19  C   UNL     1       0.863   5.362   1.279  0.00  0.00    +0.011 C 
ATOM     20  C   UNL     1       1.517   7.454   2.479  0.00  0.00    +0.011 C 
ENDBRANCH   1  15
BRANCH   6  21
ATOM     21  C   UNL     1      -4.904   2.752  -0.997  0.00  0.00    +0.048 A 
ATOM     22  C   UNL     1      -6.072   2.572  -0.269  0.00  0.00    +0.027 A 
ATOM     23  C   UNL     1      -7.295   2.604  -0.909  0.00  0.00    +0.022 A 
ATOM     24  C   UNL     1      -7.356   2.805  -2.277  0.00  0.00    +0.041 A 
ATOM     25  C   UNL     1      -6.193   2.980  -3.006  0.00  0.00    +0.022 A 
ATOM     26  C   UNL     1      -4.968   2.953  -2.369  0.00  0.00    +0.027 A 
ATOM     27 CL   UNL     1      -8.895   2.838  -3.080  0.00  0.00    -0.084 Cl
ENDBRANCH   6  21
BRANCH   4  28
ATOM     28  C   UNL     1      -0.205   1.558   0.024  0.00  0.00    -0.016 A 
ATOM     29  C   UNL     1       0.931   2.359  -0.076  0.00  0.00    +0.008 A 
ATOM     30  C   UNL     1       2.179   1.774  -0.153  0.00  0.00    +0.001 A 
ATOM     31  C   UNL     1       2.303   0.397  -0.131  0.00  0.00    +0.000 A 
ATOM     32  C   UNL     1       1.179  -0.403  -0.031  0.00  0.00    +0.001 A 
ATOM     33  C   UNL     1      -0.074   0.170   0.046  0.00  0.00    +0.008 A 
ENDBRANCH   4  28
TORSDOF 3
