REMARK  Name = ZINC20479141
REMARK  5 active torsions:
REMARK  status: ('A' for Active; 'I' for Inactive)
REMARK    1  A    between atoms: C_3  and  N_8
REMARK    2  A    between atoms: N_8  and  C_9
REMARK    3  A    between atoms: C_9  and  C_10
REMARK    4  A    between atoms: C_13  and  O_17
REMARK    5  A    between atoms: C_14  and  O_16
REMARK                            x       y       z     vdW  Elec       q    Type
REMARK                         _______ _______ _______ _____ _____    ______ ____
ROOT
ATOM      1  C   UNL     1      -0.018   1.461   0.010  0.00  0.00    +0.137 C 
ENDROOT
BRANCH   1   2
ATOM      2  C   UNL     1       1.396   1.982  -0.001  0.00  0.00    -0.027 A 
ATOM      3  C   UNL     1       2.053   2.220   1.193  0.00  0.00    +0.009 A 
ATOM      4  C   UNL     1       3.352   2.693   1.188  0.00  0.00    +0.049 A 
ATOM      5  C   UNL     1       3.994   2.941  -0.014  0.00  0.00    +0.158 A 
ATOM      6  C   UNL     1       3.332   2.707  -1.215  0.00  0.00    +0.159 A 
ATOM      7  C   UNL     1       2.032   2.228  -1.204  0.00  0.00    +0.054 A 
BRANCH   6   8
ATOM      8  O   UNL     1       3.958   2.948  -2.398  0.00  0.00    -0.503 OA
ATOM      9  H   UNL     1       3.433   2.763  -3.346  0.00  0.00    +0.292 HD
ENDBRANCH   6   8
BRANCH   5  10
ATOM     10  O   UNL     1       5.270   3.412  -0.020  0.00  0.00    -0.503 OA
ATOM     11  H   UNL     1       5.779   3.608  -0.975  0.00  0.00    +0.292 HD
ENDBRANCH   5  10
ENDBRANCH   1   2
BRANCH   1  12
ATOM     12  N   UNL     1       0.002  -0.004   0.002  0.00  0.00    -0.340 N 
ATOM     13  H   UNL     1       0.962  -0.541  -0.010  0.00  0.00    +0.146 HD
BRANCH  12  16
ATOM     14  C   UNL     1      -2.369  -2.812   0.010  0.00  0.00    +0.003 A 
ATOM     15  C   UNL     1      -1.181  -2.108   0.002  0.00  0.00    +0.023 A 
ATOM     16  C   UNL     1      -1.198  -0.719   0.010  0.00  0.00    +0.028 A 
ATOM     17  C   UNL     1      -2.411  -0.042   0.031  0.00  0.00    +0.037 A 
ATOM     18  C   UNL     1      -3.596  -0.752   0.033  0.00  0.00    +0.015 A 
ATOM     19  C   UNL     1      -3.575  -2.136   0.026  0.00  0.00    +0.014 A 
ATOM     20  I   UNL     1      -5.426   0.267   0.058  0.00  0.00    -0.044 I 
ENDBRANCH  12  16
ENDBRANCH   1  12
TORSDOF 5
