REMARK  Name = ZINC39691113
REMARK  6 active torsions:
REMARK  status: ('A' for Active; 'I' for Inactive)
REMARK    1  A    between atoms: C_1  and  C_2
REMARK    2  A    between atoms: C_7  and  C_8
REMARK    3  A    between atoms: C_8  and  C_9
REMARK    4  A    between atoms: C_9  and  N_10
REMARK    5  A    between atoms: C_11  and  C_13
REMARK    6  A    between atoms: C_24  and  C_26
REMARK                            x       y       z     vdW  Elec       q    Type
REMARK                         _______ _______ _______ _____ _____    ______ ____
ROOT
ATOM      1  C   UNL     1      -2.312   2.552   6.601  0.00  0.00    +0.100 C 
ATOM      2  C   UNL     1      -1.509   3.787   6.133  0.00  0.00    +0.121 C 
ATOM      3  N   UNL     1      -2.540   4.790   5.775  0.00  0.00    -0.296 N 
ATOM      4  C   UNL     1      -3.583   4.633   6.817  0.00  0.00    +0.115 C 
ATOM      5  C   UNL     1      -3.671   3.112   7.052  0.00  0.00    -0.004 C 
ATOM      6  C   UNL     1      -4.795   2.513   6.212  0.00  0.00    -0.010 C 
ATOM      7  C   UNL     1      -6.140   3.042   6.717  0.00  0.00    -0.082 C 
ATOM      8  N   UNL     1      -6.312   2.680   8.129  0.00  0.00    +0.379 N 
ATOM      9  C   UNL     1      -5.281   3.335   8.943  0.00  0.00    -0.082 C 
ATOM     10  C   UNL     1      -3.899   2.819   8.532  0.00  0.00    -0.010 C 
ATOM     11  C   UNL     1      -2.531   5.650   4.738  0.00  0.00    +0.247 C 
ATOM     12  O   UNL     1      -1.661   5.573   3.892  0.00  0.00    -0.270 OA
ATOM     13  H   UNL     1      -7.224   2.975   8.442  0.00  0.00    -0.086 HD
ATOM     14  H   UNL     1      -6.232   1.679   8.230  0.00  0.00    -0.086 HD
ENDROOT
BRANCH  11  15
ATOM     15  C   UNL     1      -3.579   6.686   4.628  0.00  0.00    +0.037 A 
ATOM     16  C   UNL     1      -4.301   7.075   5.758  0.00  0.00    +0.014 A 
ATOM     17  C   UNL     1      -5.277   8.043   5.649  0.00  0.00    +0.021 A 
ATOM     18  C   UNL     1      -5.542   8.629   4.423  0.00  0.00    +0.041 A 
ATOM     19  C   UNL     1      -4.829   8.248   3.298  0.00  0.00    +0.021 A 
ATOM     20  C   UNL     1      -3.846   7.285   3.395  0.00  0.00    +0.014 A 
ATOM     21 CL   UNL     1      -6.773   9.847   4.294  0.00  0.00    -0.084 Cl
ENDBRANCH  11  15
BRANCH   1  23
ATOM     22  N   UNL     1      -2.723   0.279   5.716  0.00  0.00    -0.315 N 
ATOM     23  C   UNL     1      -2.496   1.583   5.461  0.00  0.00    +0.218 C 
ATOM     24  O   UNL     1      -2.439   1.976   4.316  0.00  0.00    -0.275 OA
ATOM     25  H   UNL     1      -2.768  -0.035   6.632  0.00  0.00    +0.149 HD
BRANCH  22  26
ATOM     26  C   UNL     1      -2.902  -0.663   4.608  0.00  0.00    +0.109 C 
BRANCH  26  27
ATOM     27  C   UNL     1      -3.143  -2.067   5.167  0.00  0.00    +0.054 C 
BRANCH  27  34
ATOM     28  C   UNL     1      -0.838  -3.266   3.904  0.00  0.00    +0.044 C 
ATOM     29  C   UNL     1      -2.225  -3.610   3.423  0.00  0.00    -0.047 A 
ATOM     30  C   UNL     1      -2.394  -4.503   2.381  0.00  0.00    +0.003 A 
ATOM     31  C   UNL     1      -3.665  -4.818   1.941  0.00  0.00    +0.000 A 
ATOM     32  C   UNL     1      -4.768  -4.240   2.542  0.00  0.00    +0.000 A 
ATOM     33  C   UNL     1      -4.599  -3.348   3.583  0.00  0.00    +0.004 A 
ATOM     34  C   UNL     1      -3.328  -3.036   4.027  0.00  0.00    -0.043 A 
ENDBRANCH  27  34
ENDBRANCH  26  27
ENDBRANCH  22  26
ENDBRANCH   1  23
TORSDOF 5
