REMARK  Name = ZINC41410142
REMARK  5 active torsions:
REMARK  status: ('A' for Active; 'I' for Inactive)
REMARK    1  A    between atoms: C_1  and  C_2
REMARK    2  A    between atoms: C_2  and  N_3
REMARK    3  A    between atoms: N_6  and  C_9
REMARK    4  A    between atoms: C_9  and  C_10
REMARK    5  A    between atoms: C_10  and  N_11
REMARK                            x       y       z     vdW  Elec       q    Type
REMARK                         _______ _______ _______ _____ _____    ______ ____
ROOT
ATOM      1  C   UNL     1      -4.798  -4.164  -1.215  0.00  0.00    +0.120 C 
ENDROOT
BRANCH   1   2
ATOM      2  N   UNL     1      -6.161  -4.700  -1.250  0.00  0.00    -0.328 N 
ATOM      3  C   UNL     1      -6.856  -5.054  -0.005  0.00  0.00    +0.105 C 
ATOM      4  C   UNL     1      -7.534  -6.414  -0.217  0.00  0.00    +0.024 C 
ATOM      5  C   UNL     1      -8.585  -6.276  -1.318  0.00  0.00    +0.038 C 
ATOM      6  C   UNL     1      -7.985  -5.635  -2.542  0.00  0.00    -0.026 A 
ATOM      7  C   UNL     1      -6.824  -4.878  -2.469  0.00  0.00    +0.033 A 
ATOM      8  C   UNL     1      -6.301  -4.291  -3.616  0.00  0.00    +0.023 A 
ATOM      9  C   UNL     1      -6.939  -4.458  -4.830  0.00  0.00    +0.002 A 
ATOM     10  C   UNL     1      -8.097  -5.209  -4.902  0.00  0.00    +0.000 A 
ATOM     11  C   UNL     1      -8.615  -5.803  -3.763  0.00  0.00    +0.005 A 
ENDBRANCH   1   2
BRANCH   1  12
ATOM     12  C   UNL     1      -4.853  -2.639  -1.111  0.00  0.00    +0.103 C 
BRANCH  12  16
ATOM     13  N   UNL     1      -1.376  -0.512   0.012  0.00  0.00    +0.381 N 
ATOM     14  C   UNL     1      -2.050  -0.124  -1.234  0.00  0.00    -0.063 C 
ATOM     15  C   UNL     1      -3.492  -0.638  -1.215  0.00  0.00    +0.066 C 
ATOM     16  N   UNL     1      -3.486  -2.101  -1.076  0.00  0.00    -0.304 NA
ATOM     17  C   UNL     1      -2.792  -2.506   0.155  0.00  0.00    +0.066 C 
ATOM     18  C   UNL     1      -1.357  -1.977   0.125  0.00  0.00    -0.063 C 
ATOM     19  H   UNL     1      -1.873  -0.121   0.799  0.00  0.00    -0.082 HD
BRANCH  13  21
ATOM     20  C   UNL     1      -0.019   1.526   0.010  0.00  0.00    -0.017 C 
ATOM     21  C   UNL     1       0.002  -0.004   0.002  0.00  0.00    -0.082 C 
ENDBRANCH  13  21
ENDBRANCH  12  16
ENDBRANCH   1  12
TORSDOF 4
