REMARK  Name = ZINC02963336
REMARK  4 active torsions:
REMARK  status: ('A' for Active; 'I' for Inactive)
REMARK    1  A    between atoms: C_1  and  C_2
REMARK    2  A    between atoms: C_10  and  O_13
REMARK    3  A    between atoms: O_13  and  C_14
REMARK    4  A    between atoms: N_18  and  C_19
REMARK                            x       y       z     vdW  Elec       q    Type
REMARK                         _______ _______ _______ _____ _____    ______ ____
ROOT
ATOM      1  C   UNL     1       2.188   3.838   0.325  0.00  0.00    +0.079 C 
ATOM      2  C   UNL     1       1.781   2.377   0.126  0.00  0.00    +0.183 C 
ATOM      3  C   UNL     1       2.582   1.484   1.109  0.00  0.00    +0.096 C 
ATOM      4  C   UNL     1       2.226   0.032   0.751  0.00  0.00    +0.111 C 
ATOM      5  C   UNL     1       0.722  -0.113   0.800  0.00  0.00    +0.018 A 
ATOM      6  C   UNL     1       0.176  -1.367   1.018  0.00  0.00    +0.009 A 
ATOM      7  C   UNL     1      -1.195  -1.534   1.050  0.00  0.00    +0.004 A 
ATOM      8  C   UNL     1      -2.028  -0.446   0.862  0.00  0.00    +0.049 A 
ATOM      9  C   UNL     1      -1.488   0.809   0.647  0.00  0.00    +0.162 A 
ATOM     10  C   UNL     1      -0.102   0.981   0.619  0.00  0.00    +0.170 A 
ATOM     11  O   UNL     1       0.393   2.229   0.414  0.00  0.00    -0.464 OA
ATOM     12  N   UNL     1       2.647  -0.217  -0.638  0.00  0.00    -0.319 N 
ATOM     13  C   UNL     1       2.515   0.753  -1.558  0.00  0.00    +0.141 C 
ATOM     14  S   UNL     1       2.929   0.410  -3.183  0.00  0.00    -0.018 S 
ATOM     15  N   UNL     1       2.072   1.982  -1.249  0.00  0.00    -0.244 N 
ATOM     16  H   UNL     1       3.017  -1.078  -0.887  0.00  0.00    +0.148 HD
ENDROOT
BRANCH  15  17
ATOM     17  C   UNL     1       1.881   2.912  -2.277  0.00  0.00    +0.040 A 
ATOM     18  C   UNL     1       2.951   3.670  -2.735  0.00  0.00    +0.024 A 
ATOM     19  C   UNL     1       2.761   4.588  -3.750  0.00  0.00    +0.003 A 
ATOM     20  C   UNL     1       1.507   4.752  -4.310  0.00  0.00    +0.020 A 
ATOM     21  C   UNL     1       0.439   3.998  -3.856  0.00  0.00    +0.043 A 
ATOM     22  C   UNL     1       0.625   3.074  -2.845  0.00  0.00    +0.043 A 
ATOM     23 CL   UNL     1      -1.133   4.207  -4.562  0.00  0.00    -0.083 Cl
ENDBRANCH  15  17
BRANCH   9  24
ATOM     24  O   UNL     1      -2.308   1.879   0.463  0.00  0.00    -0.491 OA
ATOM     25  C   UNL     1      -3.715   1.632   0.504  0.00  0.00    +0.277 C 
ENDBRANCH   9  24
TORSDOF 2
