REMARK  Name = ZINC65182438
REMARK  9 active torsions:
REMARK  status: ('A' for Active; 'I' for Inactive)
REMARK    1  A    between atoms: C_1  and  C_2
REMARK    2  A    between atoms: C_2  and  C_3
REMARK    3  A    between atoms: C_6  and  C_33
REMARK    4  A    between atoms: C_11  and  C_13
REMARK    5  A    between atoms: C_16  and  C_19
REMARK    6  A    between atoms: C_19  and  C_20
REMARK    7  A    between atoms: C_20  and  N_21
REMARK    8  A    between atoms: N_21  and  C_22
REMARK    9  A    between atoms: C_23  and  C_25
REMARK                            x       y       z     vdW  Elec       q    Type
REMARK                         _______ _______ _______ _____ _____    ______ ____
ROOT
ATOM      1  C   UNL     1      -1.571  -2.956   0.810  0.00  0.00    +0.318 C 
ATOM      2  N   UNL     1      -1.739  -4.409   0.650  0.00  0.00    -0.291 N 
ATOM      3  C   UNL     1      -0.526  -4.985   0.944  0.00  0.00    +0.139 C 
ATOM      4  N   UNL     1       0.351  -4.103   1.258  0.00  0.00    -0.072 NA
ATOM      5  O   UNL     1      -0.200  -2.797   1.207  0.00  0.00    -0.367 OA
ATOM      6  H   UNL     1      -2.550  -4.872   0.387  0.00  0.00    +0.151 HD
ENDROOT
BRANCH   1  15
ATOM      7  C   UNL     1      -1.613  -0.750  -0.354  0.00  0.00    -0.033 C 
ATOM      8  C   UNL     1      -2.797  -0.164  -0.644  0.00  0.00    -0.000 A 
ATOM      9  C   UNL     1      -3.232   1.237  -0.674  0.00  0.00    +0.013 A 
ATOM     10  C   UNL     1      -4.511   1.520  -1.009  0.00  0.00    -0.050 A 
ATOM     11  C   UNL     1      -5.430   0.510  -1.327  0.00  0.00    +0.005 A 
ATOM     12  C   UNL     1      -5.105  -0.800  -1.322  0.00  0.00    +0.026 A 
ATOM     13  C   UNL     1      -3.786  -1.212  -0.985  0.00  0.00    +0.043 A 
ATOM     14  N   UNL     1      -3.235  -2.399  -0.908  0.00  0.00    -0.373 N 
ATOM     15  C   UNL     1      -1.830  -2.238  -0.516  0.00  0.00    +0.169 C 
ATOM     16  C   UNL     1      -4.961   2.958  -1.041  0.00  0.00    +0.044 C 
ATOM     17  H   UNL     1      -3.680  -3.242  -1.085  0.00  0.00    +0.160 HD
BRANCH   7  19
ATOM     18  C   UNL     1      -0.562   1.453   0.085  0.00  0.00    +0.008 C 
ATOM     19  C   UNL     1      -0.334  -0.059   0.043  0.00  0.00    +0.030 C 
ENDBRANCH   7  19
ENDBRANCH   1  15
BRANCH   3  20
ATOM     20  C   UNL     1      -0.259  -6.468   0.903  0.00  0.00    +0.094 C 
BRANCH  20  21
ATOM     21  C   UNL     1       1.197  -6.735   1.290  0.00  0.00    +0.115 C 
BRANCH  21  22
ATOM     22  N   UNL     1       1.456  -8.177   1.250  0.00  0.00    -0.300 N 
ATOM     23  C   UNL     1       1.926  -8.803   0.012  0.00  0.00    +0.132 C 
ATOM     24  C   UNL     1       1.262  -8.927   2.353  0.00  0.00    +0.248 C 
ATOM     25  O   UNL     1       0.782  -8.426   3.352  0.00  0.00    -0.270 OA
BRANCH  24  26
ATOM     26  C   UNL     1       1.633 -10.356   2.349  0.00  0.00    +0.055 A 
ATOM     27  C   UNL     1       2.852 -10.762   1.802  0.00  0.00    +0.017 A 
ATOM     28  C   UNL     1       3.193 -12.097   1.801  0.00  0.00    +0.039 A 
ATOM     29  C   UNL     1       2.328 -13.038   2.341  0.00  0.00    +0.125 A 
ATOM     30  C   UNL     1       1.117 -12.642   2.885  0.00  0.00    +0.059 A 
ATOM     31  C   UNL     1       0.767 -11.307   2.897  0.00  0.00    +0.056 A 
ATOM     32 CL   UNL     1      -0.748 -10.810   3.584  0.00  0.00    -0.083 Cl
ATOM     33  F   UNL     1       2.668 -14.345   2.335  0.00  0.00    -0.205 F 
ENDBRANCH  24  26
ENDBRANCH  21  22
ENDBRANCH  20  21
ENDBRANCH   3  20
TORSDOF 6
