REMARK  Name = ZINC36660286
REMARK  12 active torsions:
REMARK  status: ('A' for Active; 'I' for Inactive)
REMARK    1  A    between atoms: C_1  and  C_2
REMARK    2  A    between atoms: C_2  and  C_3
REMARK    3  A    between atoms: N_12  and  C_13
REMARK    4  A    between atoms: C_13  and  C_14
REMARK    5  A    between atoms: C_14  and  C_15
REMARK    6  A    between atoms: C_15  and  N_16
REMARK    7  A    between atoms: N_16  and  C_17
REMARK    8  A    between atoms: N_16  and  C_18
REMARK    9  A    between atoms: C_19  and  C_21
REMARK   10  A    between atoms: N_26  and  S_27
REMARK   11  A    between atoms: S_27  and  C_30
REMARK   12  A    between atoms: C_33  and  C_36
REMARK                            x       y       z     vdW  Elec       q    Type
REMARK                         _______ _______ _______ _____ _____    ______ ____
ROOT
ATOM      1  C   UNL     1      -0.951  -0.535   0.269  0.00  0.00    -0.021 A 
ATOM      2  C   UNL     1      -1.378  -0.898   1.520  0.00  0.00    +0.006 A 
ATOM      3  C   UNL     1      -2.658  -1.388   1.736  0.00  0.00    +0.001 A 
ATOM      4  C   UNL     1      -3.524  -1.514   0.665  0.00  0.00    +0.017 A 
ATOM      5  C   UNL     1      -3.105  -1.154  -0.592  0.00  0.00    +0.041 A 
ATOM      6  C   UNL     1      -1.811  -0.646  -0.848  0.00  0.00    +0.083 A 
ATOM      7  N   UNL     1      -1.550  -0.331  -2.135  0.00  0.00    -0.224 NA
ATOM      8  C   UNL     1      -2.437  -0.480  -3.091  0.00  0.00    +0.168 A 
ATOM      9  S   UNL     1      -3.842  -1.143  -2.208  0.00  0.00    -0.052 S 
ATOM     10  N   UNL     1      -2.313  -0.202  -4.443  0.00  0.00    -0.249 N 
ATOM     11  C   UNL     1      -1.122   0.180  -4.945  0.00  0.00    +0.240 C 
ATOM     12  O   UNL     1      -1.036   0.522  -6.105  0.00  0.00    -0.273 OA
ENDROOT
BRANCH  11  13
ATOM     13  C   UNL     1       0.101   0.182  -4.066  0.00  0.00    +0.166 C 
ATOM     14  C   UNL     1       0.232   1.544  -3.351  0.00  0.00    +0.031 C 
ATOM     15  C   UNL     1       1.762   1.800  -3.368  0.00  0.00    +0.019 C 
ATOM     16  C   UNL     1       2.164   1.193  -4.736  0.00  0.00    +0.110 C 
ATOM     17  N   UNL     1       1.307  -0.001  -4.886  0.00  0.00    -0.165 NA
BRANCH  17  18
ATOM     18  S   UNL     1       1.647  -1.325  -5.821  0.00  0.00    +0.062 S 
ATOM     19  O   UNL     1       3.062  -1.435  -5.872  0.00  0.00    -0.153 OA
ATOM     20  O   UNL     1       0.818  -2.379  -5.349  0.00  0.00    -0.153 OA
BRANCH  18  21
ATOM     21  C   UNL     1       1.111  -0.958  -7.459  0.00  0.00    +0.106 A 
ATOM     22  C   UNL     1      -0.150  -1.344  -7.877  0.00  0.00    +0.029 A 
ATOM     23  C   UNL     1      -0.570  -1.055  -9.161  0.00  0.00    +0.005 A 
ATOM     24  C   UNL     1       0.269  -0.381 -10.028  0.00  0.00    -0.050 A 
ATOM     25  C   UNL     1       1.529   0.005  -9.611  0.00  0.00    +0.005 A 
ATOM     26  C   UNL     1       1.948  -0.279  -8.324  0.00  0.00    +0.029 A 
ATOM     27  C   UNL     1      -0.189  -0.068 -11.430  0.00  0.00    +0.044 C 
ENDBRANCH  18  21
ENDBRANCH  17  18
ENDBRANCH  11  13
BRANCH   1  29
ATOM     28  C   UNL     1       0.436   1.518   0.188  0.00  0.00    +0.009 C 
ATOM     29  C   UNL     1       0.448  -0.008   0.083  0.00  0.00    +0.034 C 
ENDBRANCH   1  29
BRANCH  10  30
ATOM     30  C   UNL     1      -3.476  -0.324  -5.325  0.00  0.00    +0.114 C 
BRANCH  30  31
ATOM     31  C   UNL     1      -4.280   0.978  -5.291  0.00  0.00    +0.001 C 
BRANCH  31  32
ATOM     32  C   UNL     1      -5.495   0.851  -6.213  0.00  0.00    -0.078 C 
BRANCH  32  33
ATOM     33  N   UNL     1      -6.267   2.100  -6.180  0.00  0.00    +0.376 N 
ATOM     34  C   UNL     1      -5.461   3.189  -6.747  0.00  0.00    -0.097 C 
ATOM     35  C   UNL     1      -7.495   1.937  -6.970  0.00  0.00    -0.097 C 
ATOM     36  H   UNL     1      -6.508   2.321  -5.226  0.00  0.00    -0.083 HD
ENDBRANCH  32  33
ENDBRANCH  31  32
ENDBRANCH  30  31
ENDBRANCH  10  30
TORSDOF 8
