REMARK  Name = ZINC23074806
REMARK  11 active torsions:
REMARK  status: ('A' for Active; 'I' for Inactive)
REMARK    1  A    between atoms: C_1  and  C_2
REMARK    2  A    between atoms: C_2  and  C_4
REMARK    3  A    between atoms: C_2  and  N_28
REMARK    4  A    between atoms: N_6  and  C_7
REMARK    5  A    between atoms: N_6  and  C_11
REMARK    6  A    between atoms: C_7  and  C_8
REMARK    7  A    between atoms: C_8  and  C_9
REMARK    8  A    between atoms: C_8  and  C_10
REMARK    9  A    between atoms: C_12  and  N_27
REMARK   10  A    between atoms: N_13  and  C_20
REMARK   11  A    between atoms: C_20  and  C_21
REMARK                            x       y       z     vdW  Elec       q    Type
REMARK                         _______ _______ _______ _____ _____    ______ ____
ROOT
ATOM      1  C   UNL     1       0.531  -0.342   1.086  0.00  0.00    +0.241 C 
ATOM      2  O   UNL     1      -0.106   0.140   0.173  0.00  0.00    -0.273 OA
ATOM      3  N   UNL     1       0.142  -0.140   2.362  0.00  0.00    -0.262 N 
ENDROOT
BRANCH   3   4
ATOM      4  C   UNL     1       0.944  -0.602   3.426  0.00  0.00    +0.140 A 
ATOM      5  C   UNL     1       0.490  -1.597   4.267  0.00  0.00    +0.128 A 
ATOM      6  N   UNL     1       1.295  -2.026   5.296  0.00  0.00    -0.276 N 
ATOM      7  C   UNL     1       2.513  -1.484   5.480  0.00  0.00    +0.331 A 
ATOM      8  O   UNL     1       3.210  -1.877   6.395  0.00  0.00    -0.246 OA
ATOM      9  N   UNL     1       2.972  -0.514   4.670  0.00  0.00    -0.273 N 
ATOM     10  H   UNL     1       3.854  -0.139   4.823  0.00  0.00    +0.173 HD
ATOM     11  C   UNL     1       2.225  -0.060   3.644  0.00  0.00    +0.277 A 
ATOM     12  O   UNL     1       2.653   0.817   2.913  0.00  0.00    -0.266 OA
BRANCH   5  13
ATOM     13  N   UNL     1      -0.754  -2.151   4.080  0.00  0.00    -0.343 N 
ATOM     14  H   UNL     1      -1.275  -1.920   3.295  0.00  0.00    +0.144 HD
ATOM     15  H   UNL     1      -1.111  -2.774   4.733  0.00  0.00    +0.144 HD
ENDBRANCH   5  13
BRANCH   6  16
ATOM     16  C   UNL     1       0.825  -3.082   6.197  0.00  0.00    +0.163 C 
BRANCH  16  17
ATOM     17  C   UNL     1       1.231  -4.426   5.651  0.00  0.00    -0.028 A 
ATOM     18  C   UNL     1       0.391  -5.103   4.786  0.00  0.00    +0.005 A 
ATOM     19  C   UNL     1       0.764  -6.337   4.285  0.00  0.00    +0.000 A 
ATOM     20  C   UNL     1       1.976  -6.893   4.649  0.00  0.00    +0.000 A 
ATOM     21  C   UNL     1       2.816  -6.216   5.513  0.00  0.00    +0.000 A 
ATOM     22  C   UNL     1       2.445  -4.980   6.011  0.00  0.00    +0.005 A 
ENDBRANCH  16  17
ENDBRANCH   6  16
ENDBRANCH   3   4
BRANCH   1  24
ATOM     23  C   UNL     1       1.413  -2.652   0.905  0.00  0.00    +0.038 C 
ATOM     24  C   UNL     1       1.759  -1.166   0.794  0.00  0.00    +0.168 C 
BRANCH  24  25
ATOM     25  N   UNL     1       2.232  -0.875  -0.561  0.00  0.00    -0.222 N 
ATOM     26  C   UNL     1       1.506  -1.061  -1.678  0.00  0.00    +0.254 C 
ATOM     27  O   UNL     1       0.371  -1.492  -1.721  0.00  0.00    -0.270 OA
ATOM     28  C   UNL     1       2.320  -0.654  -2.843  0.00  0.00    +0.049 A 
ATOM     29  C   UNL     1       2.103  -0.625  -4.211  0.00  0.00    +0.014 A 
ATOM     30  C   UNL     1       3.105  -0.172  -5.055  0.00  0.00    +0.001 A 
ATOM     31  C   UNL     1       4.317   0.250  -4.541  0.00  0.00    +0.001 A 
ATOM     32  C   UNL     1       4.548   0.226  -3.175  0.00  0.00    +0.014 A 
ATOM     33  C   UNL     1       3.555  -0.224  -2.319  0.00  0.00    +0.049 A 
ATOM     34  C   UNL     1       3.449  -0.380  -0.853  0.00  0.00    +0.254 C 
ATOM     35  O   UNL     1       4.315  -0.108  -0.046  0.00  0.00    -0.270 OA
ENDBRANCH  24  25
ENDBRANCH   1  24
BRANCH   3  36
ATOM     36  C   UNL     1      -1.115   0.559   2.642  0.00  0.00    +0.117 C 
BRANCH  36  37
ATOM     37  C   UNL     1      -0.875   2.070   2.613  0.00  0.00    +0.001 C 
ATOM     38  C   UNL     1      -2.212   2.801   2.758  0.00  0.00    +0.009 C 
ATOM     39  C   UNL     1       0.049   2.462   3.767  0.00  0.00    +0.009 C 
ENDBRANCH  36  37
ENDBRANCH   3  36
TORSDOF 8
