REMARK  Name = ZINC02457834
REMARK  6 active torsions:
REMARK  status: ('A' for Active; 'I' for Inactive)
REMARK    1  A    between atoms: C_1  and  C_2
REMARK    2  A    between atoms: C_2  and  C_3
REMARK    3  A    between atoms: C_2  and  N_4
REMARK    4  A    between atoms: C_5  and  C_7
REMARK    5  A    between atoms: C_7  and  O_25
REMARK    6  A    between atoms: N_17  and  C_18
REMARK                            x       y       z     vdW  Elec       q    Type
REMARK                         _______ _______ _______ _____ _____    ______ ____
ROOT
ATOM      1  C   UNL     1      -1.345   5.970  -0.067  0.00  0.00    +0.247 C 
ATOM      2  C   UNL     1      -1.274   7.480  -0.052  0.00  0.00    +0.034 A 
ATOM      3  C   UNL     1      -2.410   8.251  -0.137  0.00  0.00    +0.025 A 
ATOM      4  C   UNL     1      -2.306   9.632  -0.121  0.00  0.00    +0.018 A 
ATOM      5  C   UNL     1      -1.062  10.231  -0.020  0.00  0.00    +0.017 A 
ATOM      6  C   UNL     1       0.080   9.459   0.065  0.00  0.00    +0.025 A 
ATOM      7  C   UNL     1      -0.020   8.074   0.049  0.00  0.00    +0.043 A 
ATOM      8  N   UNL     1       1.122   7.276   0.132  0.00  0.00    -0.269 N 
ATOM      9  C   UNL     1       1.078   5.938   0.127  0.00  0.00    +0.314 C 
ATOM     10  O   UNL     1       2.124   5.323   0.209  0.00  0.00    -0.252 OA
ATOM     11  N   UNL     1      -0.069   5.242   0.028  0.00  0.00    -0.214 N 
ATOM     12 BR   UNL     1      -3.863  10.699  -0.236  0.00  0.00    -0.050 Br
ATOM     13  H   UNL     1       1.986   7.711   0.203  0.00  0.00    +0.156 HD
ENDROOT
BRANCH  11  14
ATOM     14  C   UNL     1      -0.050   3.842   0.022  0.00  0.00    +0.041 A 
ATOM     15  C   UNL     1      -0.279   3.138   1.197  0.00  0.00    +0.024 A 
ATOM     16  C   UNL     1      -0.259   1.757   1.187  0.00  0.00    +0.002 A 
ATOM     17  C   UNL     1      -0.011   1.076   0.010  0.00  0.00    +0.000 A 
ATOM     18  C   UNL     1       0.222   1.774  -1.161  0.00  0.00    +0.002 A 
ATOM     19  C   UNL     1       0.198   3.155  -1.159  0.00  0.00    +0.024 A 
ENDBRANCH  11  14
BRANCH   1  21
ATOM     20  N   UNL     1      -1.380   5.661  -2.521  0.00  0.00    -0.309 N 
ATOM     21  C   UNL     1      -2.027   5.550  -1.344  0.00  0.00    +0.269 C 
ATOM     22  O   UNL     1      -3.157   5.111  -1.312  0.00  0.00    -0.270 OA
ATOM     23  H   UNL     1      -0.476   6.013  -2.546  0.00  0.00    +0.149 HD
BRANCH  20  25
ATOM     24  C   UNL     1      -1.429   6.010  -4.941  0.00  0.00    +0.027 C 
ATOM     25  C   UNL     1      -2.043   5.253  -3.762  0.00  0.00    +0.067 C 
ATOM     26  C   UNL     1      -1.855   3.748  -3.969  0.00  0.00    +0.027 C 
ENDBRANCH  20  25
ENDBRANCH   1  21
BRANCH   1  27
ATOM     27  O   UNL     1      -2.171   5.558   1.024  0.00  0.00    -0.360 OA
ATOM     28  H   UNL     1      -3.037   5.987   1.046  0.00  0.00    +0.213 HD
ENDBRANCH   1  27
TORSDOF 4
