REMARK  Name = ZINC10654432
REMARK  8 active torsions:
REMARK  status: ('A' for Active; 'I' for Inactive)
REMARK    1  A    between atoms: C_1  and  C_2
REMARK    2  A    between atoms: C_2  and  C_4
REMARK    3  A    between atoms: C_2  and  O_13
REMARK    4  A    between atoms: N_9  and  C_10
REMARK    5  A    between atoms: C_10  and  C_11
REMARK    6  A    between atoms: C_10  and  C_12
REMARK    7  A    between atoms: O_13  and  C_14
REMARK    8  A    between atoms: C_14  and  C_16
REMARK                            x       y       z     vdW  Elec       q    Type
REMARK                         _______ _______ _______ _____ _____    ______ ____
ROOT
ATOM      1  C   UNL     1      -1.922  -0.703  -1.179  0.00  0.00    +0.311 C 
ATOM      2  O   UNL     1      -1.314  -0.470  -2.197  0.00  0.00    -0.251 OA
ENDROOT
BRANCH   1   3
ATOM      3  C   UNL     1      -3.334  -1.224  -1.248  0.00  0.00    +0.101 C 
ATOM      4  C   UNL     1      -3.409  -2.588  -0.559  0.00  0.00    +0.034 C 
ATOM      5  C   UNL     1      -4.853  -3.098  -0.600  0.00  0.00    +0.110 C 
ATOM      6  N   UNL     1      -5.314  -3.100  -1.995  0.00  0.00    -0.285 N 
ATOM      7  C   UNL     1      -5.203  -1.862  -2.777  0.00  0.00    +0.110 C 
ATOM      8  C   UNL     1      -3.755  -1.366  -2.712  0.00  0.00    +0.034 C 
ATOM      9  C   UNL     1      -5.840  -4.241  -2.558  0.00  0.00    +0.291 A 
ATOM     10  N   UNL     1      -5.983  -5.385  -1.939  0.00  0.00    -0.195 NA
ATOM     11  C   UNL     1      -6.534  -6.282  -2.802  0.00  0.00    +0.111 A 
ATOM     12  C   UNL     1      -6.901  -7.624  -2.693  0.00  0.00    +0.031 A 
ATOM     13  C   UNL     1      -7.449  -8.273  -3.778  0.00  0.00    +0.002 A 
ATOM     14  C   UNL     1      -7.636  -7.601  -4.976  0.00  0.00    +0.004 A 
ATOM     15  C   UNL     1      -7.277  -6.274  -5.098  0.00  0.00    +0.048 A 
ATOM     16  C   UNL     1      -6.725  -5.606  -4.016  0.00  0.00    +0.157 A 
ATOM     17  O   UNL     1      -6.288  -4.341  -3.821  0.00  0.00    -0.424 OA
ENDBRANCH   1   3
BRANCH   1  18
ATOM     18  O   UNL     1      -1.339  -0.499   0.012  0.00  0.00    -0.452 OA
BRANCH  18  20
ATOM     19  C   UNL     1      -0.019   1.526   0.010  0.00  0.00    +0.062 C 
ATOM     20  C   UNL     1       0.002  -0.004   0.002  0.00  0.00    +0.259 C 
BRANCH  20  21
ATOM     21  C   UNL     1       0.731  -0.503   1.223  0.00  0.00    +0.261 C 
ATOM     22  O   UNL     1       0.135  -1.137   2.068  0.00  0.00    -0.271 OA
ATOM     23  N   UNL     1       2.045  -0.246   1.375  0.00  0.00    -0.237 N 
ATOM     24  C   UNL     1       2.697  -0.692   2.467  0.00  0.00    +0.306 C 
ATOM     25  O   UNL     1       2.100  -1.327   3.314  0.00  0.00    -0.252 OA
ATOM     26  N   UNL     1       4.011  -0.435   2.620  0.00  0.00    -0.297 N 
ATOM     27  H   UNL     1       2.522   0.261   0.699  0.00  0.00    +0.159 HD
ATOM     28  H   UNL     1       4.488   0.072   1.944  0.00  0.00    +0.151 HD
BRANCH  26  29
ATOM     29  C   UNL     1       4.720  -0.920   3.807  0.00  0.00    +0.068 C 
ATOM     30  C   UNL     1       5.179  -2.361   3.573  0.00  0.00    +0.027 C 
ATOM     31  C   UNL     1       5.938  -0.033   4.072  0.00  0.00    +0.027 C 
ENDBRANCH  26  29
ENDBRANCH  20  21
ENDBRANCH  18  20
ENDBRANCH   1  18
TORSDOF 5
