REMARK  Name = ZINC32878922
REMARK  11 active torsions:
REMARK  status: ('A' for Active; 'I' for Inactive)
REMARK    1  A    between atoms: C_1  and  C_2
REMARK    2  A    between atoms: C_2  and  O_3
REMARK    3  A    between atoms: O_3  and  C_4
REMARK    4  A    between atoms: C_7  and  C_12
REMARK    5  A    between atoms: C_9  and  O_10
REMARK    6  A    between atoms: O_10  and  C_11
REMARK    7  A    between atoms: C_12  and  N_13
REMARK    8  A    between atoms: N_13  and  C_14
REMARK    9  A    between atoms: N_13  and  C_15
REMARK   10  A    between atoms: C_15  and  C_16
REMARK   11  A    between atoms: C_29  and  C_31
REMARK                            x       y       z     vdW  Elec       q    Type
REMARK                         _______ _______ _______ _____ _____    ______ ____
ROOT
ATOM      1  C   UNL     1      -0.345  -6.667   2.826  0.00  0.00    +0.204 C 
ATOM      2  O   UNL     1      -0.323  -5.849   3.721  0.00  0.00    -0.277 OA
ATOM      3  N   UNL     1      -0.563  -7.967   3.106  0.00  0.00    -0.259 N 
ATOM      4  C   UNL     1      -0.597  -8.924   2.083  0.00  0.00    +0.058 A 
ATOM      5  C   UNL     1       0.577  -9.315   1.449  0.00  0.00    +0.025 A 
ATOM      6  C   UNL     1       0.534 -10.286   0.465  0.00  0.00    +0.002 A 
ATOM      7  C   UNL     1      -0.669 -10.870   0.112  0.00  0.00    +0.002 A 
ATOM      8  C   UNL     1      -1.841 -10.476   0.731  0.00  0.00    +0.025 A 
ATOM      9  C   UNL     1      -1.808  -9.495   1.708  0.00  0.00    +0.055 A 
ATOM     10  N   UNL     1      -2.985  -9.056   2.327  0.00  0.00    -0.284 N 
ATOM     11  C   UNL     1      -3.060  -8.967   3.673  0.00  0.00    +0.219 C 
ATOM     12  O   UNL     1      -4.058  -8.512   4.191  0.00  0.00    -0.275 OA
ATOM     13  C   UNL     1      -1.915  -9.427   4.535  0.00  0.00    +0.128 C 
ATOM     14  C   UNL     1      -0.775  -8.408   4.486  0.00  0.00    +0.194 C 
ATOM     15  H   UNL     1      -3.857  -8.780   1.716  0.00  0.00    +0.155 HD
ENDROOT
BRANCH  14  16
ATOM     16  C   UNL     1       0.507  -9.054   5.016  0.00  0.00    +0.409 C 
ATOM     17  F   UNL     1       1.549  -8.121   4.979  0.00  0.00    -0.169 F 
ATOM     18  F   UNL     1       0.305  -9.476   6.335  0.00  0.00    -0.169 F 
ATOM     19  F   UNL     1       0.838 -10.155   4.219  0.00  0.00    -0.169 F 
ENDBRANCH  14  16
BRANCH   1  20
ATOM     20  C   UNL     1      -0.128  -6.230   1.400  0.00  0.00    +0.019 C 
BRANCH  20  21
ATOM     21  N   UNL     1       0.086  -4.778   1.360  0.00  0.00    +0.386 N 
ATOM     22  C   UNL     1       1.340  -4.412   2.032  0.00  0.00    -0.095 C 
ATOM     23  H   UNL     1      -0.741  -4.299   1.904  0.00  0.00    -0.081 HD
BRANCH  21  24
ATOM     24  C   UNL     1       0.065  -4.280  -0.022  0.00  0.00    -0.043 C 
BRANCH  24  28
ATOM     25  C   UNL     1       0.002  -0.004   0.002  0.00  0.00    +0.162 A 
ATOM     26  C   UNL     1       1.210  -0.682  -0.013  0.00  0.00    +0.049 A 
ATOM     27  C   UNL     1       1.227  -2.064  -0.021  0.00  0.00    +0.005 A 
ATOM     28  C   UNL     1       0.041  -2.773  -0.013  0.00  0.00    -0.060 A 
ATOM     29  C   UNL     1      -1.168  -2.103   0.002  0.00  0.00    +0.051 A 
ATOM     30  C   UNL     1      -1.192  -0.718   0.015  0.00  0.00    +0.162 A 
BRANCH  30  31
ATOM     31  O   UNL     1      -2.381  -0.057   0.036  0.00  0.00    -0.491 OA
ATOM     32  C   UNL     1      -3.567  -0.855   0.049  0.00  0.00    +0.277 C 
ENDBRANCH  30  31
BRANCH  25  33
ATOM     33  O   UNL     1      -0.016   1.356   0.009  0.00  0.00    -0.489 OA
BRANCH  33  35
ATOM     34  C   UNL     1       1.027   3.536   0.011  0.00  0.00    +0.048 C 
ATOM     35  C   UNL     1       1.248   2.022   0.001  0.00  0.00    +0.226 C 
ENDBRANCH  33  35
ENDBRANCH  25  33
ENDBRANCH  24  28
ENDBRANCH  21  24
ENDBRANCH  20  21
ENDBRANCH   1  20
TORSDOF 8
