REMARK  Name = ZINC63879409
REMARK  7 active torsions:
REMARK  status: ('A' for Active; 'I' for Inactive)
REMARK    1  A    between atoms: C_7  and  C_10
REMARK    2  A    between atoms: C_10  and  C_11
REMARK    3  A    between atoms: N_15  and  C_19
REMARK    4  A    between atoms: C_19  and  C_20
REMARK    5  A    between atoms: N_22  and  C_23
REMARK    6  A    between atoms: C_27  and  S_29
REMARK    7  A    between atoms: S_29  and  N_32
REMARK                            x       y       z     vdW  Elec       q    Type
REMARK                         _______ _______ _______ _____ _____    ______ ____
ROOT
ATOM      1  C   UNL     1       0.458  -3.656  -1.466  0.00  0.00    +0.165 C 
ATOM      2  C   UNL     1      -0.431  -4.884  -1.493  0.00  0.00    +0.244 C 
ATOM      3  O   UNL     1      -0.200  -5.967  -1.000  0.00  0.00    -0.273 OA
ATOM      4  N   UNL     1      -1.533  -4.520  -2.179  0.00  0.00    -0.216 N 
ATOM      5  C   UNL     1      -1.465  -3.247  -2.584  0.00  0.00    +0.310 C 
ATOM      6  O   UNL     1      -2.339  -2.692  -3.220  0.00  0.00    -0.252 OA
ATOM      7  N   UNL     1      -0.316  -2.647  -2.209  0.00  0.00    -0.287 N 
ATOM      8  H   UNL     1      -0.051  -1.732  -2.392  0.00  0.00    +0.151 HD
ENDROOT
BRANCH   1   9
ATOM      9  C   UNL     1       0.697  -3.197  -0.026  0.00  0.00    +0.065 C 
BRANCH   9  16
ATOM     10  C   UNL     1      -0.007   1.337   0.037  0.00  0.00    +0.001 A 
ATOM     11  C   UNL     1       1.176   2.089   0.030  0.00  0.00    +0.002 A 
ATOM     12  C   UNL     1       2.401   1.522   0.008  0.00  0.00    +0.026 A 
ATOM     13  C   UNL     1       2.538   0.107  -0.010  0.00  0.00    +0.043 A 
ATOM     14  N   UNL     1       3.595  -0.668  -0.034  0.00  0.00    -0.380 N 
ATOM     15  C   UNL     1       3.150  -2.066  -0.044  0.00  0.00    +0.144 C 
ATOM     16  C   UNL     1       1.639  -2.021  -0.024  0.00  0.00    -0.039 C 
ATOM     17  C   UNL     1       1.303  -0.711  -0.003  0.00  0.00    -0.001 A 
ATOM     18  C   UNL     1       0.011  -0.015   0.022  0.00  0.00    +0.010 A 
ATOM     19  H   UNL     1       4.517  -0.367  -0.043  0.00  0.00    +0.160 HD
ENDBRANCH   9  16
ENDBRANCH   1   9
BRANCH   4  20
ATOM     20  C   UNL     1      -2.666  -5.410  -2.448  0.00  0.00    +0.214 C 
BRANCH  20  21
ATOM     21  C   UNL     1      -3.670  -5.297  -1.329  0.00  0.00    +0.235 C 
ATOM     22  O   UNL     1      -3.459  -4.548  -0.399  0.00  0.00    -0.274 OA
ATOM     23  N   UNL     1      -4.801  -6.029  -1.363  0.00  0.00    -0.284 N 
ATOM     24  H   UNL     1      -5.001  -6.577  -2.138  0.00  0.00    +0.155 HD
BRANCH  23  25
ATOM     25  C   UNL     1      -5.686  -5.999  -0.280  0.00  0.00    +0.035 A 
ATOM     26  C   UNL     1      -5.872  -4.822   0.435  0.00  0.00    +0.023 A 
ATOM     27  C   UNL     1      -6.746  -4.795   1.503  0.00  0.00    +0.004 A 
ATOM     28  C   UNL     1      -7.437  -5.938   1.862  0.00  0.00    +0.028 A 
ATOM     29  C   UNL     1      -7.254  -7.111   1.153  0.00  0.00    +0.107 A 
ATOM     30  C   UNL     1      -6.386  -7.143   0.080  0.00  0.00    +0.051 A 
BRANCH  29  31
ATOM     31  S   UNL     1      -8.136  -8.565   1.615  0.00  0.00    +0.061 S 
ATOM     32  O   UNL     1      -7.379  -9.668   1.136  0.00  0.00    -0.153 OA
ATOM     33  O   UNL     1      -8.478  -8.414   2.986  0.00  0.00    -0.153 OA
BRANCH  31  34
ATOM     34  N   UNL     1      -9.559  -8.564   0.769  0.00  0.00    -0.177 NA
ATOM     35  C   UNL     1     -10.821  -7.956   1.217  0.00  0.00    +0.109 C 
ATOM     36  C   UNL     1     -11.873  -8.225   0.120  0.00  0.00    +0.018 C 
ATOM     37  C   UNL     1     -11.292  -9.456  -0.625  0.00  0.00    +0.018 C 
ATOM     38  C   UNL     1      -9.770  -9.167  -0.559  0.00  0.00    +0.109 C 
ENDBRANCH  31  34
ENDBRANCH  29  31
ENDBRANCH  23  25
ENDBRANCH  20  21
ENDBRANCH   4  20
TORSDOF 7
