REMARK  Name = ZINC15109325
REMARK  4 active torsions:
REMARK  status: ('A' for Active; 'I' for Inactive)
REMARK    1  A    between atoms: C_1  and  O_2
REMARK    2  A    between atoms: O_2  and  C_3
REMARK    3  A    between atoms: C_8  and  C_9
REMARK    4  A    between atoms: C_15  and  C_17
REMARK                            x       y       z     vdW  Elec       q    Type
REMARK                         _______ _______ _______ _____ _____    ______ ____
ROOT
ATOM      1  C   UNL     1      -0.878  -1.077   0.005  0.00  0.00    +0.189 A 
ATOM      2  N   UNL     1      -0.165  -2.180  -0.007  0.00  0.00    -0.126 NA
ATOM      3  N   UNL     1       1.090  -1.891  -0.018  0.00  0.00    -0.120 NA
ATOM      4  C   UNL     1       1.240  -0.600  -0.013  0.00  0.00    +0.219 A 
ATOM      5  N   UNL     1       0.002  -0.004   0.002  0.00  0.00    -0.185 N 
ATOM      6  N   UNL     1      -0.017   1.384   0.010  0.00  0.00    -0.151 NA
ATOM      7  C   UNL     1       1.083   2.077   0.003  0.00  0.00    +0.205 A 
ATOM      8  S   UNL     1       2.332   0.800  -0.017  0.00  0.00    -0.022 S 
ENDROOT
BRANCH   1  14
ATOM      9  C   UNL     1      -3.124  -2.162   0.022  0.00  0.00    +0.131 A 
ATOM     10  C   UNL     1      -4.506  -2.075   0.036  0.00  0.00    +0.048 A 
ATOM     11  C   UNL     1      -5.122  -0.837   0.048  0.00  0.00    +0.023 A 
ATOM     12  C   UNL     1      -4.364   0.322   0.046  0.00  0.00    +0.042 A 
ATOM     13  C   UNL     1      -2.985   0.251   0.038  0.00  0.00    +0.035 A 
ATOM     14  C   UNL     1      -2.353  -0.994   0.020  0.00  0.00    +0.064 A 
ATOM     15 CL   UNL     1      -5.149   1.870   0.060  0.00  0.00    -0.084 Cl
BRANCH   9  17
ATOM     16  C   UNL     1      -3.369  -4.527   0.013  0.00  0.00    +0.277 C 
ATOM     17  O   UNL     1      -2.518  -3.379   0.011  0.00  0.00    -0.494 OA
ENDBRANCH   9  17
ENDBRANCH   1  14
BRANCH   7  18
ATOM     18  C   UNL     1       1.259   3.574   0.009  0.00  0.00    +0.442 C 
ATOM     19  F   UNL     1       1.325   4.030   1.329  0.00  0.00    -0.164 F 
ATOM     20  F   UNL     1       2.442   3.906  -0.660  0.00  0.00    -0.164 F 
ATOM     21  F   UNL     1       0.173   4.173  -0.638  0.00  0.00    -0.164 F 
ENDBRANCH   7  18
TORSDOF 3
