REMARK  Name = ZINC18044061
REMARK  10 active torsions:
REMARK  status: ('A' for Active; 'I' for Inactive)
REMARK    1  A    between atoms: C_1  and  C_2
REMARK    2  A    between atoms: C_5  and  C_8
REMARK    3  A    between atoms: C_8  and  O_9
REMARK    4  A    between atoms: O_9  and  C_10
REMARK    5  A    between atoms: C_11  and  C_18
REMARK    6  A    between atoms: C_15  and  O_16
REMARK    7  A    between atoms: O_16  and  C_17
REMARK    8  A    between atoms: C_18  and  N_19
REMARK    9  A    between atoms: N_19  and  C_20
REMARK   10  A    between atoms: C_29  and  O_32
REMARK                            x       y       z     vdW  Elec       q    Type
REMARK                         _______ _______ _______ _____ _____    ______ ____
ROOT
ATOM      1  C   UNL     1       1.542  -6.193   0.162  0.00  0.00    +0.164 A 
ATOM      2  C   UNL     1       1.655  -6.682   1.454  0.00  0.00    -0.019 A 
ATOM      3  C   UNL     1       1.917  -8.022   1.666  0.00  0.00    +0.005 A 
ATOM      4  C   UNL     1       2.067  -8.879   0.591  0.00  0.00    +0.004 A 
ATOM      5  C   UNL     1       1.956  -8.398  -0.701  0.00  0.00    +0.049 A 
ATOM      6  C   UNL     1       1.687  -7.056  -0.920  0.00  0.00    +0.162 A 
ENDROOT
BRANCH   6   7
ATOM      7  O   UNL     1       1.571  -6.583  -2.189  0.00  0.00    -0.491 OA
ATOM      8  C   UNL     1       1.732  -7.526  -3.251  0.00  0.00    +0.277 C 
ENDBRANCH   6   7
BRANCH   1   9
ATOM      9  O   UNL     1       1.283  -4.875  -0.047  0.00  0.00    -0.484 OA
BRANCH   9  10
ATOM     10  C   UNL     1       2.408  -4.016  -0.244  0.00  0.00    +0.264 C 
BRANCH  10  15
ATOM     11  C   UNL     1       0.574   1.371  -1.245  0.00  0.00    +0.044 C 
ATOM     12  C   UNL     1       1.052  -0.034  -0.984  0.00  0.00    -0.050 A 
ATOM     13  C   UNL     1       1.314  -0.446   0.310  0.00  0.00    +0.004 A 
ATOM     14  C   UNL     1       1.753  -1.734   0.549  0.00  0.00    +0.007 A 
ATOM     15  C   UNL     1       1.929  -2.611  -0.505  0.00  0.00    -0.010 A 
ATOM     16  C   UNL     1       1.666  -2.200  -1.798  0.00  0.00    +0.007 A 
ATOM     17  C   UNL     1       1.223  -0.912  -2.037  0.00  0.00    +0.004 A 
ENDBRANCH  10  15
ENDBRANCH   9  10
ENDBRANCH   1   9
BRANCH   2  18
ATOM     18  C   UNL     1       1.493  -5.751   2.628  0.00  0.00    -0.042 C 
BRANCH  18  19
ATOM     19  N   UNL     1       0.067  -5.465   2.834  0.00  0.00    +0.386 N 
ATOM     20  H   UNL     1      -0.314  -5.038   2.003  0.00  0.00    -0.085 HD
ATOM     21  H   UNL     1      -0.425  -6.326   3.024  0.00  0.00    -0.085 HD
BRANCH  19  22
ATOM     22  C   UNL     1      -0.090  -4.550   3.971  0.00  0.00    -0.065 C 
ATOM     23  C   UNL     1       0.508  -5.188   5.226  0.00  0.00    -0.009 C 
ATOM     24  C   UNL     1       0.344  -4.234   6.411  0.00  0.00    -0.009 C 
ATOM     25  C   UNL     1       1.069  -2.920   6.112  0.00  0.00    +0.007 C 
ATOM     26  C   UNL     1       0.470  -2.282   4.857  0.00  0.00    -0.009 C 
ATOM     27  C   UNL     1       0.634  -3.236   3.672  0.00  0.00    -0.009 C 
ATOM     28  C   UNL     1      -1.016  -2.003   5.086  0.00  0.00    +0.038 C 
ATOM     29  C   UNL     1      -1.741  -3.317   5.385  0.00  0.00    +0.065 C 
ATOM     30  C   UNL     1      -1.143  -3.955   6.640  0.00  0.00    +0.038 C 
ATOM     31  C   UNL     1      -1.577  -4.271   4.200  0.00  0.00    +0.022 C 
BRANCH  29  32
ATOM     32  O   UNL     1      -3.130  -3.057   5.599  0.00  0.00    -0.389 OA
ATOM     33  H   UNL     1      -3.309  -2.458   6.337  0.00  0.00    +0.210 HD
ENDBRANCH  29  32
ENDBRANCH  19  22
ENDBRANCH  18  19
ENDBRANCH   2  18
TORSDOF 8
