REMARK  Name = ZINC21530889
REMARK  7 active torsions:
REMARK  status: ('A' for Active; 'I' for Inactive)
REMARK    1  A    between atoms: C_1  and  C_2
REMARK    2  A    between atoms: C_2  and  C_3
REMARK    3  A    between atoms: C_3  and  C_29
REMARK    4  A    between atoms: N_6  and  C_10
REMARK    5  A    between atoms: C_10  and  C_11
REMARK    6  A    between atoms: N_13  and  C_14
REMARK    7  A    between atoms: C_17  and  C_20
REMARK                            x       y       z     vdW  Elec       q    Type
REMARK                         _______ _______ _______ _____ _____    ______ ____
ROOT
ATOM      1  C   UNL     1       2.978   1.419  -1.449  0.00  0.00    +0.235 C 
ATOM      2  O   UNL     1       2.312   1.848  -2.367  0.00  0.00    -0.274 OA
ATOM      3  N   UNL     1       4.140   0.784  -1.699  0.00  0.00    -0.284 N 
ATOM      4  H   UNL     1       4.786   0.472  -0.865  0.00  0.00    +0.155 HD
ENDROOT
BRANCH   3   5
ATOM      5  C   UNL     1       4.525   0.524  -3.016  0.00  0.00    +0.033 A 
ATOM      6  C   UNL     1       3.560   0.244  -3.978  0.00  0.00    +0.024 A 
ATOM      7  C   UNL     1       3.936  -0.008  -5.279  0.00  0.00    +0.015 A 
ATOM      8  C   UNL     1       5.288   0.007  -5.629  0.00  0.00    +0.037 A 
ATOM      9  C   UNL     1       6.254   0.283  -4.660  0.00  0.00    +0.015 A 
ATOM     10  C   UNL     1       5.872   0.539  -3.361  0.00  0.00    +0.024 A 
BRANCH   8  11
ATOM     11  C   UNL     1       5.694  -0.267  -7.022  0.00  0.00    +0.228 A 
ATOM     12  N   UNL     1       4.872  -0.536  -8.005  0.00  0.00    -0.209 NA
ATOM     13  C   UNL     1       5.595  -0.732  -9.138  0.00  0.00    +0.110 A 
ATOM     14  C   UNL     1       5.255  -1.041 -10.457  0.00  0.00    +0.031 A 
ATOM     15  C   UNL     1       6.247  -1.177 -11.403  0.00  0.00    +0.002 A 
ATOM     16  C   UNL     1       7.579  -1.011 -11.054  0.00  0.00    +0.004 A 
ATOM     17  C   UNL     1       7.929  -0.706  -9.755  0.00  0.00    +0.048 A 
ATOM     18  C   UNL     1       6.945  -0.565  -8.789  0.00  0.00    +0.156 A 
ATOM     19  O   UNL     1       6.964  -0.272  -7.469  0.00  0.00    -0.435 OA
ENDBRANCH   8  11
ENDBRANCH   3   5
BRANCH   1  20
ATOM     20  C   UNL     1       2.505   1.595  -0.029  0.00  0.00    +0.214 C 
BRANCH  20  24
ATOM     21  C   UNL     1      -0.380   3.933   0.017  0.00  0.00    +0.138 C 
ATOM     22  C   UNL     1       1.109   3.651   0.038  0.00  0.00    +0.251 C 
ATOM     23  O   UNL     1       2.007   4.462   0.099  0.00  0.00    -0.272 OA
ATOM     24  N   UNL     1       1.226   2.309  -0.025  0.00  0.00    -0.215 N 
ATOM     25  C   UNL     1       0.031   1.712  -0.082  0.00  0.00    +0.310 C 
ATOM     26  O   UNL     1      -0.120   0.507  -0.145  0.00  0.00    -0.252 OA
ATOM     27  N   UNL     1      -0.986   2.593  -0.069  0.00  0.00    -0.281 N 
ATOM     28  H   UNL     1      -2.079   2.485  -0.107  0.00  0.00    +0.152 HD
BRANCH  21  29
ATOM     29  C   UNL     1      -0.805   4.632   1.282  0.00  0.00    -0.015 A 
ATOM     30  C   UNL     1      -0.800   6.013   1.344  0.00  0.00    +0.006 A 
ATOM     31  C   UNL     1      -1.194   6.654   2.504  0.00  0.00    +0.000 A 
ATOM     32  C   UNL     1      -1.585   5.915   3.604  0.00  0.00    +0.000 A 
ATOM     33  C   UNL     1      -1.585   4.534   3.544  0.00  0.00    +0.000 A 
ATOM     34  C   UNL     1      -1.195   3.892   2.383  0.00  0.00    +0.006 A 
ENDBRANCH  21  29
BRANCH  21  36
ATOM     35  C   UNL     1      -0.473   3.963  -2.479  0.00  0.00    +0.007 C 
ATOM     36  C   UNL     1      -0.752   4.769  -1.209  0.00  0.00    +0.037 C 
ENDBRANCH  21  36
ENDBRANCH  20  24
ENDBRANCH   1  20
TORSDOF 6
