REMARK  Name = ZINC04485759
REMARK  7 active torsions:
REMARK  status: ('A' for Active; 'I' for Inactive)
REMARK    1  A    between atoms: C_1  and  C_2
REMARK    2  A    between atoms: C_3  and  C_25
REMARK    3  A    between atoms: C_11  and  C_13
REMARK    4  A    between atoms: C_13  and  C_15
REMARK    5  A    between atoms: C_13  and  O_16
REMARK    6  A    between atoms: O_16  and  C_17
REMARK    7  A    between atoms: C_17  and  C_19
REMARK                            x       y       z     vdW  Elec       q    Type
REMARK                         _______ _______ _______ _____ _____    ______ ____
ROOT
ATOM      1  C   UNL     1      -1.141  11.341   4.044  0.00  0.00    +0.045 C 
ATOM      2  C   UNL     1      -0.936  11.152   2.563  0.00  0.00    -0.026 A 
ATOM      3  C   UNL     1      -1.390  12.066   1.692  0.00  0.00    -0.008 A 
ATOM      4  S   UNL     1      -0.912  11.400   0.108  0.00  0.00    -0.073 S 
ATOM      5  C   UNL     1      -0.117   9.915   0.663  0.00  0.00    +0.116 A 
ATOM      6  C   UNL     1      -0.245   9.978   2.063  0.00  0.00    +0.075 A 
ATOM      7  C   UNL     1       0.323   8.879   2.787  0.00  0.00    +0.260 A 
ATOM      8  O   UNL     1       0.263   8.843   4.004  0.00  0.00    -0.267 OA
ATOM      9  N   UNL     1       0.923   7.888   2.102  0.00  0.00    -0.307 N 
ATOM     10  H   UNL     1       1.322   7.119   2.601  0.00  0.00    +0.170 HD
ATOM     11  C   UNL     1       1.000   7.912   0.746  0.00  0.00    +0.152 A 
ATOM     12  N   UNL     1       0.497   8.902   0.058  0.00  0.00    -0.223 NA
ATOM     13  C   UNL     1      -2.128  13.348   1.982  0.00  0.00    +0.052 C 
ENDROOT
BRANCH  11  14
ATOM     14  C   UNL     1       1.683   6.780   0.023  0.00  0.00    +0.239 C 
ATOM     15  C   UNL     1       1.973   7.198  -1.420  0.00  0.00    +0.060 C 
BRANCH  14  16
ATOM     16  O   UNL     1       0.833   5.632   0.025  0.00  0.00    -0.448 OA
BRANCH  16  17
ATOM     17  C   UNL     1       1.434   4.425   0.013  0.00  0.00    +0.376 C 
ATOM     18  O   UNL     1       2.648   4.350   0.001  0.00  0.00    -0.241 OA
BRANCH  17  19
ATOM     19  C   UNL     1       0.626   3.204   0.013  0.00  0.00    +0.213 A 
ATOM     20  C   UNL     1       1.104   1.924   0.002  0.00  0.00    +0.058 A 
ATOM     21  C   UNL     1      -0.013   1.076   0.008  0.00  0.00    +0.058 A 
ATOM     22  C   UNL     1      -1.112   1.865   0.017  0.00  0.00    +0.171 A 
ATOM     23  O   UNL     1      -0.723   3.146   0.026  0.00  0.00    -0.442 OA
ATOM     24 BR   UNL     1      -2.903   1.258   0.021  0.00  0.00    -0.008 Br
ENDBRANCH  17  19
ENDBRANCH  16  17
ENDBRANCH  14  16
ENDBRANCH  11  14
TORSDOF 4
