REMARK  Name = ZINC14459065
REMARK  4 active torsions:
REMARK  status: ('A' for Active; 'I' for Inactive)
REMARK    1  A    between atoms: C_1  and  O_2
REMARK    2  A    between atoms: O_2  and  C_3
REMARK    3  A    between atoms: C_5  and  C_10
REMARK    4  A    between atoms: C_8  and  O_9
REMARK                            x       y       z     vdW  Elec       q    Type
REMARK                         _______ _______ _______ _____ _____    ______ ____
ROOT
ATOM      1  C   UNL     1       5.106   3.326  -0.034  0.00  0.00    +0.105 C 
ATOM      2  C   UNL     1       6.168   2.255  -0.175  0.00  0.00    +0.029 C 
ATOM      3  C   UNL     1       6.218   1.147   0.883  0.00  0.00    +0.033 C 
ATOM      4  C   UNL     1       6.772  -0.028   0.047  0.00  0.00    -0.030 C 
ATOM      5  C   UNL     1       6.492   0.146  -1.240  0.00  0.00    -0.023 C 
ATOM      6  C   UNL     1       5.695   1.389  -1.385  0.00  0.00    +0.050 C 
ATOM      7  C   UNL     1       5.777   2.253  -2.583  0.00  0.00    +0.002 A 
ATOM      8  C   UNL     1       5.519   3.617  -2.421  0.00  0.00    +0.051 A 
ATOM      9  C   UNL     1       5.572   4.440  -3.549  0.00  0.00    +0.064 A 
ATOM     10  C   UNL     1       5.885   3.923  -4.787  0.00  0.00    +0.043 A 
ATOM     11  C   UNL     1       6.151   2.573  -4.931  0.00  0.00    +0.061 A 
ATOM     12  C   UNL     1       6.095   1.743  -3.825  0.00  0.00    +0.065 A 
ATOM     13 CL   UNL     1       6.428   0.049  -4.001  0.00  0.00    -0.082 Cl
ATOM     14 CL   UNL     1       6.554   1.924  -6.490  0.00  0.00    -0.082 Cl
ATOM     15 CL   UNL     1       5.239   6.136  -3.387  0.00  0.00    -0.082 Cl
ATOM     16  N   UNL     1       5.234   4.219  -1.196  0.00  0.00    -0.335 N 
ATOM     17  H   UNL     1       4.436   4.832  -1.271  0.00  0.00    +0.147 HD
ENDROOT
BRANCH   1  20
ATOM     18  C   UNL     1       1.944   1.654   1.183  0.00  0.00    +0.162 A 
ATOM     19  C   UNL     1       3.205   2.229   1.168  0.00  0.00    +0.054 A 
ATOM     20  C   UNL     1       3.738   2.693  -0.020  0.00  0.00    -0.023 A 
ATOM     21  C   UNL     1       3.019   2.579  -1.196  0.00  0.00    +0.009 A 
ATOM     22  C   UNL     1       1.764   2.001  -1.188  0.00  0.00    +0.049 A 
ATOM     23  C   UNL     1       1.223   1.534  -0.001  0.00  0.00    +0.158 A 
BRANCH  18  25
ATOM     24  C   UNL     1       2.212   1.358   3.527  0.00  0.00    +0.277 C 
ATOM     25  O   UNL     1       1.416   1.202   2.352  0.00  0.00    -0.491 OA
ENDBRANCH  18  25
BRANCH  23  26
ATOM     26  O   UNL     1      -0.012   0.964   0.008  0.00  0.00    -0.503 OA
ATOM     27  H   UNL     1      -0.005   0.008  -0.136  0.00  0.00    +0.292 HD
ENDBRANCH  23  26
ENDBRANCH   1  20
TORSDOF 3
