REMARK  Name = ZINC13509689
REMARK  12 active torsions:
REMARK  status: ('A' for Active; 'I' for Inactive)
REMARK    1  A    between atoms: C_1  and  C_2
REMARK    2  A    between atoms: C_2  and  C_33
REMARK    3  A    between atoms: C_6  and  C_20
REMARK    4  A    between atoms: N_9  and  C_10
REMARK    5  A    between atoms: C_10  and  C_11
REMARK    6  A    between atoms: C_11  and  O_12
REMARK    7  A    between atoms: C_14  and  C_18
REMARK    8  A    between atoms: C_14  and  C_19
REMARK    9  A    between atoms: C_23  and  O_28
REMARK   10  A    between atoms: C_24  and  O_26
REMARK   11  A    between atoms: O_26  and  C_27
REMARK   12  A    between atoms: O_28  and  C_29
REMARK                            x       y       z     vdW  Elec       q    Type
REMARK                         _______ _______ _______ _____ _____    ______ ____
ROOT
ATOM      1  C   UNL     1      -3.918   7.401  -0.353  0.00  0.00    +0.011 C 
ATOM      2  C   UNL     1      -3.376   8.109  -1.596  0.00  0.00    -0.023 C 
ATOM      3  C   UNL     1      -2.196   9.002  -1.206  0.00  0.00    +0.058 C 
ATOM      4  C   UNL     1      -1.087   8.154  -0.633  0.00  0.00    +0.019 C 
ATOM      5  C   UNL     1      -0.901   6.881  -1.041  0.00  0.00    +0.024 C 
ATOM      6  C   UNL     1       0.217   6.050  -0.468  0.00  0.00    +0.089 C 
ATOM      7  C   UNL     1       1.272   6.921   0.163  0.00  0.00    +0.024 C 
ATOM      8  C   UNL     1       0.989   8.189   0.526  0.00  0.00    +0.019 C 
ATOM      9  N   UNL     1      -0.261   8.701   0.310  0.00  0.00    -0.304 N 
ATOM     10  C   UNL     1       2.031   9.064   1.175  0.00  0.00    +0.058 C 
ATOM     11  C   UNL     1       3.419   8.678   0.659  0.00  0.00    -0.023 C 
ATOM     12  C   UNL     1       3.660   7.198   0.972  0.00  0.00    +0.086 C 
ATOM     13  C   UNL     1       2.556   6.380   0.359  0.00  0.00    +0.162 C 
ATOM     14  O   UNL     1       2.778   5.232   0.027  0.00  0.00    -0.292 OA
ATOM     15  C   UNL     1       3.485   8.901  -0.853  0.00  0.00    +0.011 C 
ATOM     16  C   UNL     1       4.482   9.530   1.355  0.00  0.00    +0.011 C 
ATOM     17  C   UNL     1      -1.743   6.298  -2.004  0.00  0.00    +0.162 C 
ATOM     18  O   UNL     1      -1.544   5.152  -2.356  0.00  0.00    -0.292 OA
ATOM     19  C   UNL     1      -2.885   7.068  -2.608  0.00  0.00    +0.086 C 
ATOM     20  C   UNL     1      -4.478   8.961  -2.229  0.00  0.00    +0.011 C 
ENDROOT
BRANCH   6  21
ATOM     21  C   UNL     1      -0.343   5.119   0.576  0.00  0.00    -0.032 A 
ATOM     22  C   UNL     1      -0.972   5.635   1.694  0.00  0.00    +0.008 A 
ATOM     23  C   UNL     1      -1.487   4.784   2.654  0.00  0.00    +0.050 A 
ATOM     24  C   UNL     1      -1.375   3.412   2.497  0.00  0.00    +0.162 A 
ATOM     25  C   UNL     1      -0.743   2.893   1.371  0.00  0.00    +0.162 A 
ATOM     26  C   UNL     1      -0.223   3.751   0.415  0.00  0.00    +0.054 A 
BRANCH  25  27
ATOM     27  O   UNL     1      -0.630   1.547   1.213  0.00  0.00    -0.491 OA
ATOM     28  C   UNL     1       0.031   1.086   0.033  0.00  0.00    +0.277 C 
ENDBRANCH  25  27
BRANCH  24  29
ATOM     29  O   UNL     1      -1.881   2.574   3.442  0.00  0.00    -0.491 OA
ATOM     30  C   UNL     1      -2.516   3.178   4.570  0.00  0.00    +0.277 C 
ENDBRANCH  24  29
ENDBRANCH   6  21
BRANCH   9  31
ATOM     31  C   UNL     1      -0.719   9.849   1.097  0.00  0.00    +0.138 C 
BRANCH  31  32
ATOM     32  C   UNL     1      -1.539   9.354   2.290  0.00  0.00    +0.175 C 
BRANCH  32  33
ATOM     33  O   UNL     1      -0.697   8.604   3.169  0.00  0.00    -0.393 OA
ATOM     34  H   UNL     1      -1.152   8.259   3.949  0.00  0.00    +0.209 HD
ENDBRANCH  32  33
ENDBRANCH  31  32
ENDBRANCH   9  31
TORSDOF 6
