REMARK  Name = ZINC39456668
REMARK  4 active torsions:
REMARK  status: ('A' for Active; 'I' for Inactive)
REMARK    1  A    between atoms: C_1  and  C_2
REMARK    2  A    between atoms: C_3  and  O_24
REMARK    3  A    between atoms: C_10  and  O_18
REMARK    4  A    between atoms: O_18  and  C_19
REMARK                            x       y       z     vdW  Elec       q    Type
REMARK                         _______ _______ _______ _____ _____    ______ ____
ROOT
ATOM      1  C   UNL     1      -0.018   1.503   0.010  0.00  0.00    +0.068 C 
ATOM      2  C   UNL     1       0.002  -0.004   0.002  0.00  0.00    +0.069 A 
ATOM      3  C   UNL     1       0.008  -0.791  -1.105  0.00  0.00    +0.142 A 
ATOM      4  C   UNL     1       0.033  -2.122  -0.679  0.00  0.00    +0.023 A 
ATOM      5  C   UNL     1       0.052  -2.107   0.694  0.00  0.00    +0.086 A 
ATOM      6  N   UNL     1       0.024  -0.808   1.107  0.00  0.00    -0.275 N 
ATOM      7 BR   UNL     1       0.014  -0.232   2.865  0.00  0.00    +0.055 Br
ATOM      8  C   UNL     1       0.127  -3.341   1.497  0.00  0.00    +0.103 A 
ATOM      9  C   UNL     1       1.095  -4.354   1.051  0.00  0.00    +0.087 A 
ATOM     10  C   UNL     1       1.180  -5.558   1.748  0.00  0.00    +0.142 A 
ATOM     11  C   UNL     1       0.335  -5.726   2.873  0.00  0.00    +0.043 A 
ATOM     12  C   UNL     1       0.369  -6.916   3.616  0.00  0.00    +0.013 A 
ATOM     13  C   UNL     1      -0.437  -7.057   4.706  0.00  0.00    +0.001 A 
ATOM     14  C   UNL     1      -1.299  -6.033   5.091  0.00  0.00    +0.002 A 
ATOM     15  C   UNL     1      -1.363  -4.869   4.388  0.00  0.00    +0.028 A 
ATOM     16  C   UNL     1      -0.550  -4.688   3.255  0.00  0.00    +0.075 A 
ATOM     17  N   UNL     1      -0.624  -3.547   2.554  0.00  0.00    -0.244 NA
ATOM     18  C   UNL     1       1.945  -4.045  -0.091  0.00  0.00    +0.169 C 
ATOM     19  O   UNL     1       3.114  -3.776   0.093  0.00  0.00    -0.292 OA
ATOM     20  C   UNL     1       1.398  -4.054  -1.500  0.00  0.00    +0.084 C 
ATOM     21  C   UNL     1       0.025  -3.369  -1.517  0.00  0.00    +0.049 C 
ENDROOT
BRANCH  10  22
ATOM     22  O   UNL     1       2.037  -6.530   1.365  0.00  0.00    -0.494 OA
ATOM     23  C   UNL     1       3.349  -6.499   1.931  0.00  0.00    +0.277 C 
ENDBRANCH  10  22
BRANCH   3  24
ATOM     24  O   UNL     1      -0.008  -0.361  -2.397  0.00  0.00    -0.505 OA
ATOM     25  H   UNL     1       0.871  -0.222  -2.776  0.00  0.00    +0.292 HD
ENDBRANCH   3  24
TORSDOF 2
