REMARK  Name = ZINC05714900
REMARK  6 active torsions:
REMARK  status: ('A' for Active; 'I' for Inactive)
REMARK    1  A    between atoms: C_3  and  N_23
REMARK    2  A    between atoms: C_6  and  C_7
REMARK    3  A    between atoms: N_9  and  C_10
REMARK    4  A    between atoms: C_10  and  N_12
REMARK    5  A    between atoms: N_12  and  C_13
REMARK    6  A    between atoms: C_15  and  N_20
REMARK                            x       y       z     vdW  Elec       q    Type
REMARK                         _______ _______ _______ _____ _____    ______ ____
ROOT
ATOM      1  C   UNL     1       1.148   1.615  -0.246  0.00  0.00    +0.141 C 
ATOM      2  S   UNL     1       1.113   3.296  -0.571  0.00  0.00    -0.018 S 
ENDROOT
BRANCH   1   5
ATOM      3  C   UNL     1      -1.175   1.526  -0.460  0.00  0.00    +0.250 C 
ATOM      4  O   UNL     1      -1.200   2.719  -0.690  0.00  0.00    -0.270 OA
ATOM      5  N   UNL     1      -0.000   0.909  -0.223  0.00  0.00    -0.264 N 
ATOM      6  H   UNL     1       0.019  -0.043  -0.039  0.00  0.00    +0.157 HD
BRANCH   3  12
ATOM      7  C   UNL     1      -2.408  -0.621  -0.181  0.00  0.00    +0.015 A 
ATOM      8  C   UNL     1      -3.587  -1.337  -0.159  0.00  0.00    +0.033 A 
ATOM      9  C   UNL     1      -4.791  -0.701  -0.403  0.00  0.00    +0.126 A 
ATOM     10  C   UNL     1      -4.823   0.657  -0.665  0.00  0.00    +0.033 A 
ATOM     11  C   UNL     1      -3.652   1.386  -0.685  0.00  0.00    +0.015 A 
ATOM     12  C   UNL     1      -2.433   0.751  -0.440  0.00  0.00    +0.037 A 
BRANCH   9  13
ATOM     13  N   UNL     1      -6.051  -1.477  -0.383  0.00  0.00    +0.056 N 
ATOM     14  O   UNL     1      -7.113  -0.920  -0.597  0.00  0.00    -0.126 OA
ATOM     15  O   UNL     1      -6.027  -2.673  -0.152  0.00  0.00    -0.126 OA
ENDBRANCH   9  13
ENDBRANCH   3  12
ENDBRANCH   1   5
BRANCH   1  16
ATOM     16  N   UNL     1       2.323   0.998  -0.015  0.00  0.00    -0.294 N 
ATOM     17  H   UNL     1       2.338   0.059   0.231  0.00  0.00    +0.154 HD
BRANCH  16  18
ATOM     18  C   UNL     1       3.523   1.711  -0.128  0.00  0.00    +0.070 A 
ATOM     19  C   UNL     1       3.650   2.958   0.468  0.00  0.00    +0.059 A 
ATOM     20  C   UNL     1       4.836   3.657   0.359  0.00  0.00    +0.128 A 
ATOM     21  C   UNL     1       5.894   3.121  -0.352  0.00  0.00    +0.035 A 
ATOM     22  C   UNL     1       5.771   1.881  -0.953  0.00  0.00    +0.042 A 
ATOM     23  C   UNL     1       4.588   1.174  -0.843  0.00  0.00    +0.145 A 
ATOM     24  F   UNL     1       4.467  -0.037  -1.430  0.00  0.00    -0.204 F 
BRANCH  20  25
ATOM     25  N   UNL     1       4.973   4.984   1.000  0.00  0.00    +0.056 N 
ATOM     26  O   UNL     1       6.017   5.604   0.900  0.00  0.00    -0.126 OA
ATOM     27  O   UNL     1       4.042   5.457   1.626  0.00  0.00    -0.126 OA
ENDBRANCH  20  25
ENDBRANCH  16  18
ENDBRANCH   1  16
TORSDOF 6
