REMARK  Name = ZINC02797099
REMARK  5 active torsions:
REMARK  status: ('A' for Active; 'I' for Inactive)
REMARK    1  A    between atoms: C_1  and  C_2
REMARK    2  A    between atoms: C_10  and  C_14
REMARK    3  A    between atoms: N_17  and  N_18
REMARK    4  A    between atoms: C_19  and  C_21
REMARK    5  A    between atoms: C_23  and  C_26
REMARK                            x       y       z     vdW  Elec       q    Type
REMARK                         _______ _______ _______ _____ _____    ______ ____
ROOT
ATOM      1  C   UNL     1      -6.034  -4.468   2.428  0.00  0.00    +0.088 C 
ATOM      2  C   UNL     1      -6.133  -5.308   1.181  0.00  0.00    +0.129 A 
ATOM      3  N   UNL     1      -6.774  -6.446   1.222  0.00  0.00    -0.225 NA
ATOM      4  C   UNL     1      -6.880  -7.211   0.140  0.00  0.00    +0.116 A 
ATOM      5  C   UNL     1      -6.315  -6.841  -1.091  0.00  0.00    +0.077 A 
ATOM      6  C   UNL     1      -6.511  -7.782  -2.194  0.00  0.00    -0.023 A 
ATOM      7  C   UNL     1      -7.210  -8.904  -1.924  0.00  0.00    -0.004 A 
ATOM      8  S   UNL     1      -7.643  -8.775  -0.210  0.00  0.00    -0.073 S 
ATOM      9  C   UNL     1      -7.545 -10.015  -2.872  0.00  0.00    +0.046 C 
ATOM     10  C   UNL     1      -6.657  -9.873  -4.117  0.00  0.00    -0.009 C 
ATOM     11  C   UNL     1      -6.702  -8.417  -4.588  0.00  0.00    +0.008 C 
ATOM     12  C   UNL     1      -5.958  -7.525  -3.593  0.00  0.00    +0.037 C 
ATOM     13  C   UNL     1      -7.179 -10.789  -5.226  0.00  0.00    +0.008 C 
ATOM     14  C   UNL     1      -5.624  -5.585  -1.104  0.00  0.00    +0.280 A 
ATOM     15  O   UNL     1      -5.104  -5.175  -2.127  0.00  0.00    -0.265 OA
ATOM     16  N   UNL     1      -5.555  -4.869   0.033  0.00  0.00    -0.209 N 
ENDROOT
BRANCH  16  17
ATOM     17  N   UNL     1      -4.877  -3.643   0.032  0.00  0.00    -0.213 N 
ATOM     18  C   UNL     1      -3.530  -3.618   0.019  0.00  0.00    +0.284 C 
ATOM     19  O   UNL     1      -2.903  -4.658   0.008  0.00  0.00    -0.267 OA
ATOM     20  H   UNL     1      -5.378  -2.812   0.041  0.00  0.00    +0.176 HD
BRANCH  18  21
ATOM     21  C   UNL     1      -2.812  -2.319   0.018  0.00  0.00    +0.170 A 
ATOM     22  C   UNL     1      -1.407  -2.124  -0.001  0.00  0.00    +0.086 A 
ATOM     23  C   UNL     1      -1.266  -0.764   0.011  0.00  0.00    +0.168 A 
ATOM     24  O   UNL     1      -2.511  -0.255   0.025  0.00  0.00    -0.354 OA
ATOM     25  N   UNL     1      -3.350  -1.124   0.029  0.00  0.00    -0.073 NA
BRANCH  23  26
ATOM     26  C   UNL     1       0.002  -0.004   0.002  0.00  0.00    +0.020 A 
ATOM     27  C   UNL     1      -0.017   1.391   0.010  0.00  0.00    +0.011 A 
ATOM     28  C   UNL     1       1.170   2.094   0.002  0.00  0.00    +0.001 A 
ATOM     29  C   UNL     1       2.378   1.419  -0.013  0.00  0.00    +0.000 A 
ATOM     30  C   UNL     1       2.403   0.036  -0.021  0.00  0.00    +0.001 A 
ATOM     31  C   UNL     1       1.223  -0.679  -0.013  0.00  0.00    +0.011 A 
ENDBRANCH  23  26
ENDBRANCH  18  21
ENDBRANCH  16  17
TORSDOF 3
