REMARK  Name = ZINC42611498
REMARK  7 active torsions:
REMARK  status: ('A' for Active; 'I' for Inactive)
REMARK    1  A    between atoms: C_1  and  C_2
REMARK    2  A    between atoms: C_8  and  N_10
REMARK    3  A    between atoms: N_10  and  C_11
REMARK    4  A    between atoms: N_10  and  S_12
REMARK    5  A    between atoms: S_12  and  C_15
REMARK    6  A    between atoms: C_18  and  C_20
REMARK    7  A    between atoms: C_20  and  N_21
REMARK                            x       y       z     vdW  Elec       q    Type
REMARK                         _______ _______ _______ _____ _____    ______ ____
ROOT
ATOM      1  S   UNL     1       1.058   1.155   3.280  0.00  0.00    +0.067 S 
ATOM      2  O   UNL     1       0.529   1.064   4.596  0.00  0.00    -0.152 OA
ATOM      3  O   UNL     1       2.433   0.937   2.994  0.00  0.00    -0.152 OA
ENDROOT
BRANCH   1   4
ATOM      4  C   UNL     1       0.672   2.771   2.692  0.00  0.00    +0.143 A 
ATOM      5  C   UNL     1      -0.316   3.609   3.089  0.00  0.00    +0.036 A 
ATOM      6  C   UNL     1      -0.431   4.845   2.480  0.00  0.00    +0.011 A 
ATOM      7  C   UNL     1       0.448   5.181   1.505  0.00  0.00    -0.026 A 
ATOM      8  S   UNL     1       1.486   3.731   1.427  0.00  0.00    -0.075 S 
BRANCH   7   9
ATOM      9  C   UNL     1       0.532   6.453   0.700  0.00  0.00    -0.043 C 
BRANCH   9  10
ATOM     10  N   UNL     1       1.404   7.413   1.389  0.00  0.00    +0.381 N 
ATOM     11  H   UNL     1       1.025   7.617   2.302  0.00  0.00    -0.090 HD
ATOM     12  H   UNL     1       2.327   7.017   1.489  0.00  0.00    -0.090 HD
ATOM     13  H   UNL     1       1.460   8.264   0.850  0.00  0.00    -0.090 HD
ENDBRANCH   9  10
ENDBRANCH   7   9
ENDBRANCH   1   4
BRANCH   1  14
ATOM     14  N   UNL     1       0.206   0.080   2.352  0.00  0.00    -0.176 NA
ATOM     15  C   UNL     1      -1.140  -0.331   2.757  0.00  0.00    +0.132 C 
BRANCH  14  22
ATOM     16  C   UNL     1      -1.412  -0.278  -0.024  0.00  0.00    +0.009 C 
ATOM     17  C   UNL     1      -0.266  -1.226   0.338  0.00  0.00    +0.005 C 
ATOM     18  C   UNL     1      -0.805  -2.374   1.193  0.00  0.00    +0.005 C 
ATOM     19  C   UNL     1       0.340  -3.322   1.555  0.00  0.00    +0.000 C 
ATOM     20  C   UNL     1       1.406  -2.556   2.343  0.00  0.00    +0.002 C 
ATOM     21  C   UNL     1       1.945  -1.408   1.488  0.00  0.00    +0.021 C 
ATOM     22  C   UNL     1       0.799  -0.460   1.126  0.00  0.00    +0.082 C 
ENDBRANCH  14  22
ENDBRANCH   1  14
TORSDOF 5
