REMARK  Name = ZINC30007317
REMARK  7 active torsions:
REMARK  status: ('A' for Active; 'I' for Inactive)
REMARK    1  A    between atoms: C_1  and  C_2
REMARK    2  A    between atoms: C_2  and  C_4
REMARK    3  A    between atoms: C_2  and  N_15
REMARK    4  A    between atoms: N_6  and  C_7
REMARK    5  A    between atoms: C_7  and  C_13
REMARK    6  A    between atoms: N_15  and  C_16
REMARK    7  A    between atoms: C_19  and  N_22
REMARK                            x       y       z     vdW  Elec       q    Type
REMARK                         _______ _______ _______ _____ _____    ______ ____
ROOT
ATOM      1  C   UNL     1      -2.112  -0.410  -1.229  0.00  0.00    +0.038 C 
ATOM      2  C   UNL     1      -1.293  -0.775   0.010  0.00  0.00    +0.154 C 
ENDROOT
BRANCH   2   3
ATOM      3  C   UNL     1       0.002  -0.004   0.002  0.00  0.00    +0.234 C 
ATOM      4  O   UNL     1       1.060  -0.596  -0.011  0.00  0.00    -0.274 OA
ATOM      5  N   UNL     1      -0.016   1.344   0.009  0.00  0.00    -0.296 N 
ATOM      6  H   UNL     1      -0.976   1.881   0.021  0.00  0.00    +0.150 HD
BRANCH   5   7
ATOM      7  C   UNL     1       1.242   2.093   0.001  0.00  0.00    +0.121 C 
ATOM      8  C   UNL     1       2.062   1.728   1.241  0.00  0.00    +0.041 C 
ATOM      9  C   UNL     1       3.376   2.511   1.233  0.00  0.00    +0.003 C 
ATOM     10  C   UNL     1       3.076   4.011   1.244  0.00  0.00    +0.000 C 
ATOM     11  C   UNL     1       2.257   4.377   0.004  0.00  0.00    +0.003 C 
ATOM     12  C   UNL     1       0.943   3.594   0.012  0.00  0.00    +0.041 C 
BRANCH   7  13
ATOM     13  C   UNL     1       2.007   1.755  -1.210  0.00  0.00    +0.088 C 
ATOM     14  N   UNL     1       2.598   1.493  -2.144  0.00  0.00    -0.194 NA
ENDBRANCH   7  13
ENDBRANCH   5   7
ENDBRANCH   2   3
BRANCH   2  15
ATOM     15  N   UNL     1      -1.005  -2.212  -0.000  0.00  0.00    -0.333 N 
ATOM     16  H   UNL     1      -0.055  -2.580  -0.414  0.00  0.00    +0.147 HD
BRANCH  15  17
ATOM     17  C   UNL     1      -1.941  -3.116   0.516  0.00  0.00    +0.028 A 
ATOM     18  C   UNL     1      -3.138  -2.652   1.044  0.00  0.00    +0.025 A 
ATOM     19  C   UNL     1      -4.063  -3.544   1.548  0.00  0.00    +0.025 A 
ATOM     20  C   UNL     1      -3.791  -4.906   1.538  0.00  0.00    +0.030 A 
ATOM     21  C   UNL     1      -2.591  -5.370   1.015  0.00  0.00    +0.025 A 
ATOM     22  C   UNL     1      -1.669  -4.478   0.506  0.00  0.00    +0.025 A 
BRANCH  20  23
ATOM     23  N   UNL     1      -4.727  -5.811   2.053  0.00  0.00    -0.330 N 
ATOM     24  C   UNL     1      -5.087  -6.824   1.052  0.00  0.00    +0.105 C 
ATOM     25  C   UNL     1      -5.995  -7.875   1.693  0.00  0.00    +0.019 C 
ATOM     26  C   UNL     1      -7.256  -7.194   2.232  0.00  0.00    +0.003 C 
ATOM     27  C   UNL     1      -6.851  -6.111   3.236  0.00  0.00    +0.019 C 
ATOM     28  C   UNL     1      -5.918  -5.110   2.551  0.00  0.00    +0.105 C 
ENDBRANCH  20  23
ENDBRANCH  15  17
ENDBRANCH   2  15
TORSDOF 6
