REMARK  Name = ZINC42117683
REMARK  6 active torsions:
REMARK  status: ('A' for Active; 'I' for Inactive)
REMARK    1  A    between atoms: C_1  and  C_2
REMARK    2  A    between atoms: C_11  and  N_13
REMARK    3  A    between atoms: N_13  and  C_14
REMARK    4  A    between atoms: C_14  and  C_16
REMARK    5  A    between atoms: C_14  and  C_17
REMARK    6  A    between atoms: C_17  and  C_18
REMARK                            x       y       z     vdW  Elec       q    Type
REMARK                         _______ _______ _______ _____ _____    ______ ____
ROOT
ATOM      1  C   UNL     1      -0.018   1.503   0.010  0.00  0.00    +0.046 C 
ATOM      2  C   UNL     1       0.002  -0.004   0.002  0.00  0.00    -0.028 A 
ATOM      3  C   UNL     1       0.006  -0.686  -1.198  0.00  0.00    +0.020 A 
ATOM      4  C   UNL     1       0.024  -2.069  -1.216  0.00  0.00    +0.019 A 
ATOM      5  C   UNL     1       0.039  -2.773  -0.023  0.00  0.00    +0.022 A 
ATOM      6  C   UNL     1       0.036  -2.095   1.175  0.00  0.00    +0.001 A 
ATOM      7  C   UNL     1       0.023  -0.706   1.206  0.00  0.00    +0.042 A 
ATOM      8  N   UNL     1       0.029  -0.253   2.526  0.00  0.00    -0.283 N 
ATOM      9  C   UNL     1       0.051  -1.264   3.410  0.00  0.00    +0.239 C 
ATOM     10  O   UNL     1       0.061  -1.163   4.619  0.00  0.00    -0.273 OA
ATOM     11  C   UNL     1       0.049  -2.552   2.615  0.00  0.00    +0.173 C 
ATOM     12 BR   UNL     1       0.028  -2.996  -2.864  0.00  0.00    -0.050 Br
ATOM     13  H   UNL     1       0.019   0.685   2.776  0.00  0.00    +0.155 HD
ENDROOT
BRANCH  11  14
ATOM     14  N   UNL     1       1.268  -3.320   2.900  0.00  0.00    -0.299 NA
ATOM     15  H   UNL     1       1.583  -3.816   2.080  0.00  0.00    +0.123 HD
BRANCH  14  16
ATOM     16  C   UNL     1       1.059  -4.242   4.024  0.00  0.00    +0.059 C 
ATOM     17  C   UNL     1       0.439  -5.543   3.508  0.00  0.00    +0.024 C 
BRANCH  16  18
ATOM     18  C   UNL     1       2.401  -4.547   4.691  0.00  0.00    +0.092 C 
BRANCH  18  19
ATOM     19  C   UNL     1       2.954  -3.288   5.306  0.00  0.00    +0.106 A 
ATOM     20  C   UNL     1       2.731  -2.863   6.563  0.00  0.00    +0.044 A 
ATOM     21  C   UNL     1       3.437  -1.647   6.716  0.00  0.00    +0.041 A 
ATOM     22  C   UNL     1       4.049  -1.402   5.543  0.00  0.00    +0.195 A 
ATOM     23  O   UNL     1       3.757  -2.402   4.695  0.00  0.00    -0.468 OA
ENDBRANCH  18  19
ENDBRANCH  16  18
ENDBRANCH  14  16
ENDBRANCH  11  14
TORSDOF 4
