REMARK  Name = ZINC23590668
REMARK  6 active torsions:
REMARK  status: ('A' for Active; 'I' for Inactive)
REMARK    1  A    between atoms: C_1  and  C_2
REMARK    2  A    between atoms: C_2  and  C_4
REMARK    3  A    between atoms: C_2  and  S_17
REMARK    4  A    between atoms: N_6  and  C_7
REMARK    5  A    between atoms: C_7  and  C_8
REMARK    6  A    between atoms: S_17  and  C_18
REMARK                            x       y       z     vdW  Elec       q    Type
REMARK                         _______ _______ _______ _____ _____    ______ ____
ROOT
ATOM      1  S   UNL     1       9.974  -2.148   1.209  0.00  0.00    -0.073 S 
ENDROOT
BRANCH   1   2
ATOM      2  C   UNL     1      10.714  -2.858  -0.223  0.00  0.00    +0.192 A 
ATOM      3  N   UNL     1      10.211  -2.583  -1.421  0.00  0.00    -0.207 NA
ATOM      4  C   UNL     1      10.727  -3.082  -2.531  0.00  0.00    +0.129 A 
ATOM      5  C   UNL     1      11.851  -3.951  -2.447  0.00  0.00    +0.051 A 
ATOM      6  C   UNL     1      12.576  -4.617  -3.531  0.00  0.00    -0.025 A 
ATOM      7  C   UNL     1      13.618  -5.398  -3.181  0.00  0.00    -0.004 A 
ATOM      8  S   UNL     1      13.698  -5.298  -1.413  0.00  0.00    -0.073 S 
ATOM      9  C   UNL     1      12.328  -4.203  -1.145  0.00  0.00    +0.115 A 
ATOM     10  N   UNL     1      11.760  -3.662  -0.084  0.00  0.00    -0.214 NA
ATOM     11  C   UNL     1      14.512  -6.180  -4.094  0.00  0.00    +0.043 C 
ATOM     12  C   UNL     1      13.845  -6.262  -5.474  0.00  0.00    +0.005 C 
ATOM     13  C   UNL     1      13.368  -4.862  -5.873  0.00  0.00    +0.005 C 
ATOM     14  C   UNL     1      12.186  -4.447  -4.997  0.00  0.00    +0.037 C 
ATOM     15  N   UNL     1      10.178  -2.767  -3.761  0.00  0.00    -0.343 N 
ATOM     16  H   UNL     1      10.612  -3.186  -4.681  0.00  0.00    +0.144 HD
ATOM     17  H   UNL     1       9.307  -2.098  -3.819  0.00  0.00    +0.144 HD
ENDBRANCH   1   2
BRANCH   1  19
ATOM     18  C   UNL     1       9.262  -0.079  -0.427  0.00  0.00    +0.029 C 
ATOM     19  C   UNL     1       8.651  -1.186   0.435  0.00  0.00    +0.137 C 
BRANCH  19  20
ATOM     20  C   UNL     1       7.786  -0.569   1.504  0.00  0.00    +0.226 C 
ATOM     21  O   UNL     1       8.243  -0.360   2.608  0.00  0.00    -0.275 OA
ATOM     22  N   UNL     1       6.505  -0.250   1.234  0.00  0.00    -0.310 N 
ATOM     23  H   UNL     1       6.090  -0.440   0.232  0.00  0.00    +0.149 HD
BRANCH  22  24
ATOM     24  C   UNL     1       5.664   0.349   2.273  0.00  0.00    +0.139 C 
BRANCH  24  25
ATOM     25  C   UNL     1       4.287   0.608   1.718  0.00  0.00    -0.027 A 
ATOM     26  C   UNL     1       3.311  -0.366   1.814  0.00  0.00    +0.009 A 
ATOM     27  C   UNL     1       2.046  -0.134   1.306  0.00  0.00    +0.050 A 
ATOM     28  C   UNL     1       1.754   1.077   0.700  0.00  0.00    +0.166 A 
ATOM     29  C   UNL     1       2.738   2.058   0.604  0.00  0.00    +0.167 A 
ATOM     30  C   UNL     1       4.003   1.819   1.115  0.00  0.00    +0.054 A 
ATOM     31  O   UNL     1       2.208   3.146  -0.028  0.00  0.00    -0.453 OA
ATOM     32  C   UNL     1       0.780   2.977   0.048  0.00  0.00    +0.466 C 
ATOM     33  O   UNL     1       0.608   1.550   0.129  0.00  0.00    -0.453 OA
ENDBRANCH  24  25
ENDBRANCH  22  24
ENDBRANCH  19  20
ENDBRANCH   1  19
TORSDOF 5
