REMARK  Name = ZINC39636625
REMARK  9 active torsions:
REMARK  status: ('A' for Active; 'I' for Inactive)
REMARK    1  A    between atoms: C_1  and  C_2
REMARK    2  A    between atoms: C_5  and  C_37
REMARK    3  A    between atoms: C_6  and  C_8
REMARK    4  A    between atoms: C_8  and  N_9
REMARK    5  A    between atoms: C_10  and  C_12
REMARK    6  A    between atoms: C_23  and  C_25
REMARK    7  A    between atoms: C_26  and  C_36
REMARK    8  A    between atoms: C_29  and  C_30
REMARK    9  A    between atoms: C_32  and  C_35
REMARK                            x       y       z     vdW  Elec       q    Type
REMARK                         _______ _______ _______ _____ _____    ______ ____
ROOT
ATOM      1  C   UNL     1       3.085  -4.431   4.205  0.00  0.00    +0.100 C 
ATOM      2  C   UNL     1       3.539  -5.502   3.188  0.00  0.00    +0.121 C 
ATOM      3  N   UNL     1       4.348  -6.455   3.983  0.00  0.00    -0.296 N 
ATOM      4  C   UNL     1       3.623  -6.569   5.271  0.00  0.00    +0.115 C 
ATOM      5  C   UNL     1       3.141  -5.136   5.571  0.00  0.00    -0.004 C 
ATOM      6  C   UNL     1       4.132  -4.428   6.490  0.00  0.00    -0.010 C 
ATOM      7  C   UNL     1       4.128  -5.112   7.860  0.00  0.00    -0.082 C 
ATOM      8  N   UNL     1       2.776  -5.060   8.431  0.00  0.00    +0.379 N 
ATOM      9  C   UNL     1       1.847  -5.822   7.588  0.00  0.00    -0.082 C 
ATOM     10  C   UNL     1       1.755  -5.168   6.207  0.00  0.00    -0.010 C 
ATOM     11  C   UNL     1       5.486  -7.079   3.618  0.00  0.00    +0.252 C 
ATOM     12  O   UNL     1       6.037  -7.840   4.389  0.00  0.00    -0.270 OA
ATOM     13  H   UNL     1       2.789  -5.457   9.359  0.00  0.00    -0.086 HD
ATOM     14  H   UNL     1       2.471  -4.100   8.483  0.00  0.00    -0.086 HD
ENDROOT
BRANCH  11  15
ATOM     15  C   UNL     1       6.062  -6.837   2.284  0.00  0.00    +0.108 A 
ATOM     16  C   UNL     1       7.005  -5.836   1.945  0.00  0.00    +0.093 A 
ATOM     17  N   UNL     1       7.270  -5.941   0.677  0.00  0.00    -0.082 NA
ATOM     18  O   UNL     1       6.514  -7.009   0.138  0.00  0.00    -0.352 OA
ATOM     19  C   UNL     1       5.786  -7.552   1.127  0.00  0.00    +0.201 A 
ATOM     20  C   UNL     1       7.599  -4.824   2.891  0.00  0.00    +0.070 C 
BRANCH  19  21
ATOM     21  C   UNL     1       4.860  -8.698   1.005  0.00  0.00    +0.152 A 
ATOM     22  C   UNL     1       4.586  -9.429  -0.178  0.00  0.00    +0.079 A 
ATOM     23  C   UNL     1       3.695 -10.389   0.123  0.00  0.00    +0.135 A 
ATOM     24  O   UNL     1       3.399 -10.296   1.429  0.00  0.00    -0.359 OA
ATOM     25  N   UNL     1       4.148  -9.225   1.974  0.00  0.00    -0.075 NA
ATOM     26  C   UNL     1       3.124 -11.398  -0.841  0.00  0.00    +0.089 C 
ENDBRANCH  19  21
ENDBRANCH  11  15
BRANCH   1  28
ATOM     27  N   UNL     1       1.283  -2.737   4.232  0.00  0.00    -0.311 N 
ATOM     28  C   UNL     1       1.679  -3.983   3.903  0.00  0.00    +0.218 C 
ATOM     29  O   UNL     1       0.902  -4.743   3.364  0.00  0.00    -0.275 OA
ATOM     30  H   UNL     1       1.904  -2.129   4.664  0.00  0.00    +0.149 HD
BRANCH  27  31
ATOM     31  C   UNL     1      -0.084  -2.301   3.939  0.00  0.00    +0.139 C 
BRANCH  31  37
ATOM     32  C   UNL     1      -1.764   0.963   7.340  0.00  0.00    +0.044 C 
ATOM     33  C   UNL     1      -1.073   0.682   6.030  0.00  0.00    -0.050 A 
ATOM     34  C   UNL     1      -0.609   1.728   5.255  0.00  0.00    +0.003 A 
ATOM     35  C   UNL     1       0.024   1.471   4.054  0.00  0.00    +0.004 A 
ATOM     36  C   UNL     1       0.194   0.166   3.628  0.00  0.00    -0.046 A 
ATOM     37  C   UNL     1      -0.269  -0.880   4.403  0.00  0.00    -0.027 A 
ATOM     38  C   UNL     1      -0.899  -0.622   5.607  0.00  0.00    +0.008 A 
ATOM     39  C   UNL     1       0.883  -0.115   2.318  0.00  0.00    +0.044 C 
ENDBRANCH  31  37
ENDBRANCH  27  31
ENDBRANCH   1  28
TORSDOF 5
