REMARK  Name = ZINC09884329
REMARK  8 active torsions:
REMARK  status: ('A' for Active; 'I' for Inactive)
REMARK    1  A    between atoms: C_1  and  C_2
REMARK    2  A    between atoms: C_3  and  C_36
REMARK    3  A    between atoms: C_11  and  C_13
REMARK    4  A    between atoms: C_13  and  C_15
REMARK    5  A    between atoms: C_13  and  O_16
REMARK    6  A    between atoms: O_16  and  C_17
REMARK    7  A    between atoms: C_17  and  C_19
REMARK    8  A    between atoms: N_28  and  C_30
REMARK                            x       y       z     vdW  Elec       q    Type
REMARK                         _______ _______ _______ _____ _____    ______ ____
ROOT
ATOM      1  C   UNL     1      -2.221   1.528   1.374  0.00  0.00    +0.361 C 
ATOM      2  O   UNL     1      -2.808   1.276   0.340  0.00  0.00    -0.243 OA
ENDROOT
BRANCH   1   3
ATOM      3  C   UNL     1      -2.880   2.338   2.416  0.00  0.00    +0.176 A 
ATOM      4  C   UNL     1      -4.246   2.846   2.212  0.00  0.00    +0.021 A 
ATOM      5  C   UNL     1      -4.978   2.597   1.056  0.00  0.00    +0.011 A 
ATOM      6  C   UNL     1      -6.254   3.107   0.941  0.00  0.00    +0.001 A 
ATOM      7  C   UNL     1      -6.814   3.863   1.963  0.00  0.00    +0.001 A 
ATOM      8  C   UNL     1      -6.105   4.121   3.117  0.00  0.00    +0.014 A 
ATOM      9  C   UNL     1      -4.816   3.616   3.253  0.00  0.00    +0.051 A 
ATOM     10  C   UNL     1      -3.992   3.843   4.448  0.00  0.00    +0.280 A 
ATOM     11  O   UNL     1      -4.418   4.496   5.383  0.00  0.00    -0.265 OA
ATOM     12  N   UNL     1      -2.754   3.310   4.486  0.00  0.00    -0.196 N 
ATOM     13  N   UNL     1      -2.256   2.611   3.538  0.00  0.00    -0.156 NA
BRANCH  12  14
ATOM     14  C   UNL     1      -1.974   3.529   5.627  0.00  0.00    +0.069 A 
ATOM     15  C   UNL     1      -1.831   4.814   6.136  0.00  0.00    +0.028 A 
ATOM     16  C   UNL     1      -1.065   5.026   7.266  0.00  0.00    +0.002 A 
ATOM     17  C   UNL     1      -0.431   3.962   7.883  0.00  0.00    +0.000 A 
ATOM     18  C   UNL     1      -0.566   2.683   7.375  0.00  0.00    +0.002 A 
ATOM     19  C   UNL     1      -1.336   2.464   6.249  0.00  0.00    +0.028 A 
ENDBRANCH  12  14
ENDBRANCH   1   3
BRANCH   1  20
ATOM     20  O   UNL     1      -0.970   1.068   1.569  0.00  0.00    -0.449 OA
BRANCH  20  21
ATOM     21  C   UNL     1      -0.385   0.277   0.501  0.00  0.00    +0.239 C 
ATOM     22  C   UNL     1      -0.714  -1.201   0.721  0.00  0.00    +0.060 C 
BRANCH  21  33
ATOM     23  C   UNL     1       6.090   1.969   0.106  0.00  0.00    +0.045 C 
ATOM     24  C   UNL     1       5.285   0.786   0.580  0.00  0.00    -0.026 A 
ATOM     25  C   UNL     1       5.900  -0.295   1.085  0.00  0.00    -0.008 A 
ATOM     26  S   UNL     1       4.549  -1.386   1.490  0.00  0.00    -0.073 S 
ATOM     27  C   UNL     1       3.200  -0.358   0.969  0.00  0.00    +0.116 A 
ATOM     28  C   UNL     1       3.837   0.803   0.495  0.00  0.00    +0.075 A 
ATOM     29  C   UNL     1       2.967   1.829   0.001  0.00  0.00    +0.260 A 
ATOM     30  O   UNL     1       3.424   2.873  -0.431  0.00  0.00    -0.267 OA
ATOM     31  N   UNL     1       1.637   1.619   0.016  0.00  0.00    -0.307 N 
ATOM     32  H   UNL     1       1.044   2.308  -0.321  0.00  0.00    +0.170 HD
ATOM     33  C   UNL     1       1.111   0.464   0.498  0.00  0.00    +0.152 A 
ATOM     34  N   UNL     1       1.877  -0.489   0.956  0.00  0.00    -0.223 NA
ATOM     35  C   UNL     1       7.377  -0.530   1.266  0.00  0.00    +0.052 C 
ENDBRANCH  21  33
ENDBRANCH  20  21
ENDBRANCH   1  20
TORSDOF 5
