REMARK  Name = ZINC22534797
REMARK  11 active torsions:
REMARK  status: ('A' for Active; 'I' for Inactive)
REMARK    1  A    between atoms: C_1  and  C_2
REMARK    2  A    between atoms: C_2  and  C_3
REMARK    3  A    between atoms: C_3  and  C_5
REMARK    4  A    between atoms: C_3  and  C_6
REMARK    5  A    between atoms: C_11  and  N_12
REMARK    6  A    between atoms: N_12  and  C_13
REMARK    7  A    between atoms: C_13  and  N_15
REMARK    8  A    between atoms: C_16  and  C_18
REMARK    9  A    between atoms: C_19  and  C_20
REMARK   10  A    between atoms: C_23  and  C_25
REMARK   11  A    between atoms: C_28  and  C_32
REMARK                            x       y       z     vdW  Elec       q    Type
REMARK                         _______ _______ _______ _____ _____    ______ ____
ROOT
ATOM      1  N   UNL     1      -1.929  -1.498  -5.232  0.00  0.00    -0.264 N 
ATOM      2  C   UNL     1      -2.703  -2.037  -6.194  0.00  0.00    +0.242 C 
ATOM      3  O   UNL     1      -2.950  -3.229  -6.181  0.00  0.00    -0.270 OA
ATOM      4  H   UNL     1      -1.732  -0.548  -5.243  0.00  0.00    +0.157 HD
ENDROOT
BRANCH   1   5
ATOM      5  C   UNL     1      -1.428  -2.279  -4.255  0.00  0.00    +0.141 C 
ATOM      6  S   UNL     1      -1.775  -3.955  -4.236  0.00  0.00    -0.018 S 
BRANCH   5   7
ATOM      7  N   UNL     1      -0.653  -1.740  -3.292  0.00  0.00    -0.296 N 
ATOM      8  H   UNL     1      -0.507  -0.781  -3.267  0.00  0.00    +0.154 HD
BRANCH   7  14
ATOM      9  C   UNL     1       1.288  -2.419  -2.027  0.00  0.00    -0.023 A 
ATOM     10  C   UNL     1       1.870  -3.230  -1.072  0.00  0.00    +0.006 A 
ATOM     11  C   UNL     1       1.114  -4.188  -0.422  0.00  0.00    +0.000 A 
ATOM     12  C   UNL     1      -0.227  -4.338  -0.726  0.00  0.00    +0.002 A 
ATOM     13  C   UNL     1      -0.815  -3.531  -1.680  0.00  0.00    +0.023 A 
ATOM     14  C   UNL     1      -0.059  -2.563  -2.330  0.00  0.00    +0.036 A 
BRANCH   9  15
ATOM     15  C   UNL     1       2.113  -1.376  -2.735  0.00  0.00    +0.017 C 
ATOM     16  C   UNL     1       3.278  -2.052  -3.461  0.00  0.00    +0.012 C 
BRANCH  15  18
ATOM     17  C   UNL     1       3.393   0.750  -2.441  0.00  0.00    +0.004 C 
ATOM     18  C   UNL     1       2.660  -0.378  -1.712  0.00  0.00    +0.004 C 
ENDBRANCH  15  18
ENDBRANCH   9  15
ENDBRANCH   7  14
ENDBRANCH   5   7
ENDBRANCH   1   5
BRANCH   2  19
ATOM     19  C   UNL     1      -3.229  -1.218  -7.219  0.00  0.00    +0.071 C 
ATOM     20  C   UNL     1      -4.010  -1.761  -8.190  0.00  0.00    +0.051 C 
BRANCH  20  21
ATOM     21  C   UNL     1      -4.535  -0.942  -9.215  0.00  0.00    +0.129 A 
ATOM     22  C   UNL     1      -5.344  -1.363 -10.254  0.00  0.00    +0.050 A 
ATOM     23  C   UNL     1      -5.628  -0.235 -11.027  0.00  0.00    +0.050 A 
ATOM     24  C   UNL     1      -4.986   0.830 -10.436  0.00  0.00    +0.136 A 
ATOM     25  O   UNL     1      -4.339   0.387  -9.344  0.00  0.00    -0.455 OA
BRANCH  24  26
ATOM     26  C   UNL     1      -5.010   2.225 -10.918  0.00  0.00    +0.019 A 
ATOM     27  C   UNL     1      -5.733   2.560 -12.065  0.00  0.00    +0.012 A 
ATOM     28  C   UNL     1      -5.751   3.865 -12.509  0.00  0.00    +0.005 A 
ATOM     29  C   UNL     1      -5.055   4.844 -11.822  0.00  0.00    -0.032 A 
ATOM     30  C   UNL     1      -4.335   4.520 -10.684  0.00  0.00    +0.045 A 
ATOM     31  C   UNL     1      -4.313   3.218 -10.225  0.00  0.00    +0.031 A 
ATOM     32 CL   UNL     1      -3.465   5.755  -9.829  0.00  0.00    -0.083 Cl
ATOM     33  C   UNL     1      -5.079   6.268 -12.314  0.00  0.00    +0.045 C 
ENDBRANCH  24  26
ENDBRANCH  20  21
ENDBRANCH   2  19
TORSDOF 8
