REMARK  Name = ZINC07195965
REMARK  6 active torsions:
REMARK  status: ('A' for Active; 'I' for Inactive)
REMARK    1  A    between atoms: C_1  and  C_2
REMARK    2  A    between atoms: C_5  and  S_7
REMARK    3  A    between atoms: S_7  and  C_8
REMARK    4  A    between atoms: C_8  and  C_10
REMARK    5  A    between atoms: C_8  and  C_11
REMARK    6  A    between atoms: N_13  and  C_14
REMARK                            x       y       z     vdW  Elec       q    Type
REMARK                         _______ _______ _______ _____ _____    ______ ____
ROOT
ATOM      1  C   UNL     1      -2.572   8.119   0.057  0.00  0.00    +0.034 A 
ATOM      2  C   UNL     1      -3.763   7.403   0.069  0.00  0.00    +0.024 A 
ATOM      3  C   UNL     1      -3.748   6.023   0.056  0.00  0.00    +0.014 A 
ATOM      4  C   UNL     1      -2.533   5.339   0.032  0.00  0.00    +0.033 A 
ATOM      5  C   UNL     1      -1.324   6.061   0.020  0.00  0.00    +0.035 A 
ATOM      6  C   UNL     1      -1.351   7.450   0.032  0.00  0.00    +0.035 A 
ATOM      7  C   UNL     1      -0.033   5.341  -0.007  0.00  0.00    +0.195 C 
ATOM      8  O   UNL     1       1.010   5.963  -0.017  0.00  0.00    -0.287 OA
ATOM      9  C   UNL     1      -0.014   3.863  -0.022  0.00  0.00    +0.033 A 
ATOM     10  C   UNL     1       1.197   3.177  -0.048  0.00  0.00    +0.012 A 
ATOM     11  C   UNL     1       1.205   1.793  -0.062  0.00  0.00    +0.001 A 
ATOM     12  C   UNL     1       0.017   1.086  -0.051  0.00  0.00    +0.001 A 
ATOM     13  C   UNL     1      -1.196   1.752  -0.031  0.00  0.00    +0.012 A 
ATOM     14  C   UNL     1      -1.222   3.144  -0.010  0.00  0.00    +0.033 A 
ATOM     15  C   UNL     1      -2.513   3.864   0.017  0.00  0.00    +0.195 C 
ATOM     16  O   UNL     1      -3.556   3.241   0.029  0.00  0.00    -0.287 OA
ENDROOT
BRANCH   1  19
ATOM     17  C   UNL     1      -1.648  10.200   0.733  0.00  0.00    +0.230 C 
ATOM     18  O   UNL     1      -0.723   9.610   1.249  0.00  0.00    -0.274 OA
ATOM     19  N   UNL     1      -2.599   9.513   0.069  0.00  0.00    -0.285 N 
ATOM     20  H   UNL     1      -3.303   9.988  -0.399  0.00  0.00    +0.155 HD
BRANCH  17  21
ATOM     21  C   UNL     1      -1.735  11.701   0.834  0.00  0.00    +0.136 C 
ATOM     22  C   UNL     1      -2.628  12.082   2.017  0.00  0.00    +0.029 C 
BRANCH  21  23
ATOM     23  S   UNL     1      -0.078  12.385   1.084  0.00  0.00    -0.086 S 
BRANCH  23  28
ATOM     24  C   UNL     1       0.873  17.543   1.192  0.00  0.00    +0.066 C 
ATOM     25  C   UNL     1      -0.070  16.375   1.056  0.00  0.00    +0.047 A 
ATOM     26  C   UNL     1      -1.394  16.575   0.850  0.00  0.00    +0.070 A 
ATOM     27  S   UNL     1      -1.976  14.888   0.766  0.00  0.00    -0.069 S 
ATOM     28  C   UNL     1      -0.445  14.107   1.015  0.00  0.00    +0.135 A 
ATOM     29  N   UNL     1       0.375  15.135   1.134  0.00  0.00    -0.238 NA
ENDBRANCH  23  28
ENDBRANCH  21  23
ENDBRANCH  17  21
ENDBRANCH   1  19
TORSDOF 4
