REMARK  Name = ZINC16611791
REMARK  8 active torsions:
REMARK  status: ('A' for Active; 'I' for Inactive)
REMARK    1  A    between atoms: C_1  and  C_2
REMARK    2  A    between atoms: C_2  and  C_3
REMARK    3  A    between atoms: C_2  and  C_4
REMARK    4  A    between atoms: C_4  and  N_5
REMARK    5  A    between atoms: C_6  and  C_8
REMARK    6  A    between atoms: C_8  and  S_9
REMARK    7  A    between atoms: S_9  and  C_10
REMARK    8  A    between atoms: N_20  and  C_23
REMARK                            x       y       z     vdW  Elec       q    Type
REMARK                         _______ _______ _______ _____ _____    ______ ____
ROOT
ATOM      1  C   UNL     1      -8.172  -0.965  -0.072  0.00  0.00    +0.192 A 
ATOM      2  N   UNL     1      -7.031  -0.291  -0.076  0.00  0.00    -0.207 NA
ATOM      3  C   UNL     1      -6.131  -0.490  -1.033  0.00  0.00    +0.127 A 
ATOM      4  C   UNL     1      -6.405  -1.417  -2.040  0.00  0.00    +0.083 A 
ATOM      5  C   UNL     1      -7.605  -2.103  -1.996  0.00  0.00    +0.135 A 
ATOM      6  N   UNL     1      -8.458  -1.855  -1.012  0.00  0.00    -0.210 NA
ATOM      7 CL   UNL     1      -7.993  -3.272  -3.220  0.00  0.00    -0.062 Cl
ATOM      8  N   UNL     1      -4.939   0.217  -1.034  0.00  0.00    -0.312 N 
ATOM      9  C   UNL     1      -4.871   1.136   0.111  0.00  0.00    +0.125 C 
ATOM     10  C   UNL     1      -3.579   1.953   0.029  0.00  0.00    +0.124 C 
ATOM     11  N   UNL     1      -2.426   1.042   0.019  0.00  0.00    -0.327 N 
ATOM     12  C   UNL     1      -2.495   0.123  -1.126  0.00  0.00    +0.124 C 
ATOM     13  C   UNL     1      -3.786  -0.694  -1.045  0.00  0.00    +0.125 C 
ENDROOT
BRANCH  11  14
ATOM     14  C   UNL     1      -1.225   1.755   0.017  0.00  0.00    +0.031 A 
ATOM     15  C   UNL     1      -0.013   1.076   0.008  0.00  0.00    +0.023 A 
ATOM     16  C   UNL     1       1.173   1.783   0.000  0.00  0.00    +0.003 A 
ATOM     17  C   UNL     1       1.156   3.166   0.008  0.00  0.00    +0.020 A 
ATOM     18  C   UNL     1      -0.049   3.845   0.023  0.00  0.00    +0.043 A 
ATOM     19  C   UNL     1      -1.240   3.143   0.031  0.00  0.00    +0.043 A 
ATOM     20 CL   UNL     1      -0.066   5.581   0.032  0.00  0.00    -0.083 Cl
ENDBRANCH  11  14
BRANCH   1  21
ATOM     21  S   UNL     1      -9.339  -0.672   1.216  0.00  0.00    -0.077 S 
BRANCH  21  22
ATOM     22  C   UNL     1     -10.646  -1.824   0.725  0.00  0.00    +0.173 C 
BRANCH  22  24
ATOM     23  N   UNL     1     -12.873  -2.518   1.546  0.00  0.00    -0.314 N 
ATOM     24  C   UNL     1     -11.783  -1.744   1.711  0.00  0.00    +0.223 C 
ATOM     25  O   UNL     1     -11.716  -0.982   2.653  0.00  0.00    -0.275 OA
ATOM     26  H   UNL     1     -12.927  -3.126   0.792  0.00  0.00    +0.149 HD
BRANCH  23  27
ATOM     27  C   UNL     1     -13.979  -2.440   2.504  0.00  0.00    +0.107 C 
BRANCH  27  29
ATOM     28  C   UNL     1     -14.562  -4.848   2.188  0.00  0.00    +0.009 C 
ATOM     29  C   UNL     1     -15.083  -3.413   2.089  0.00  0.00    -0.000 C 
ATOM     30  C   UNL     1     -16.288  -3.243   3.017  0.00  0.00    +0.009 C 
ENDBRANCH  27  29
ENDBRANCH  23  27
ENDBRANCH  22  24
ENDBRANCH  21  22
ENDBRANCH   1  21
TORSDOF 6
