REMARK  Name = ZINC33254086
REMARK  8 active torsions:
REMARK  status: ('A' for Active; 'I' for Inactive)
REMARK    1  A    between atoms: C_5  and  S_7
REMARK    2  A    between atoms: S_7  and  N_10
REMARK    3  A    between atoms: N_10  and  C_11
REMARK    4  A    between atoms: C_13  and  C_31
REMARK    5  A    between atoms: C_16  and  N_17
REMARK    6  A    between atoms: C_20  and  C_23
REMARK    7  A    between atoms: C_23  and  C_24
REMARK    8  A    between atoms: C_24  and  N_25
REMARK                            x       y       z     vdW  Elec       q    Type
REMARK                         _______ _______ _______ _____ _____    ______ ____
ROOT
ATOM      1  C   UNL     1       1.272  -4.305   1.857  0.00  0.00    +0.095 A 
ATOM      2  C   UNL     1       1.279  -5.241   0.834  0.00  0.00    +0.043 A 
ATOM      3  C   UNL     1       1.299  -6.602   1.141  0.00  0.00    +0.065 A 
ATOM      4  C   UNL     1       1.311  -7.012   2.478  0.00  0.00    +0.017 A 
ATOM      5  C   UNL     1       1.304  -6.072   3.487  0.00  0.00    +0.024 A 
ATOM      6  C   UNL     1       1.290  -4.723   3.183  0.00  0.00    +0.038 A 
ENDROOT
BRANCH   6   7
ATOM      7  N   UNL     1       1.288  -3.777   4.212  0.00  0.00    -0.392 NA
ATOM      8  C   UNL     1       2.501  -3.935   5.022  0.00  0.00    +0.085 C 
ATOM      9  C   UNL     1       2.544  -2.851   6.101  0.00  0.00    +0.021 C 
ATOM     10  C   UNL     1       1.309  -2.980   6.997  0.00  0.00    -0.010 C 
ATOM     11  C   UNL     1       0.050  -2.888   6.130  0.00  0.00    +0.021 C 
ATOM     12  C   UNL     1       0.099  -3.971   5.051  0.00  0.00    +0.085 C 
ATOM     13  H   UNL     1       1.270  -2.849   3.814  0.00  0.00    +0.126 HD
BRANCH  10  14
ATOM     14  C   UNL     1       1.304  -1.850   8.028  0.00  0.00    -0.015 C 
BRANCH  14  15
ATOM     15  C   UNL     1       0.140  -2.051   9.000  0.00  0.00    -0.079 C 
BRANCH  15  16
ATOM     16  N   UNL     1       0.136  -0.967   9.991  0.00  0.00    +0.380 N 
ATOM     17  C   UNL     1       1.352  -1.047  10.807  0.00  0.00    -0.079 C 
ATOM     18  C   UNL     1       1.392   0.128  11.787  0.00  0.00    -0.019 C 
ATOM     19  C   UNL     1       0.161   0.070  12.695  0.00  0.00    -0.004 C 
ATOM     20  C   UNL     1      -1.102   0.080  11.829  0.00  0.00    -0.019 C 
ATOM     21  C   UNL     1      -1.049  -1.093  10.848  0.00  0.00    -0.079 C 
ATOM     22  H   UNL     1       0.111  -0.078   9.514  0.00  0.00    -0.082 HD
ENDBRANCH  15  16
ENDBRANCH  14  15
ENDBRANCH  10  14
ENDBRANCH   6   7
BRANCH   3  23
ATOM     23  C   UNL     1       1.307  -7.605   0.059  0.00  0.00    +0.387 C 
ATOM     24  O   UNL     1       1.295  -7.245  -1.109  0.00  0.00    -0.241 OA
ATOM     25  O   UNL     1       1.324  -8.798   0.331  0.00  0.00    -0.241 OA
ENDBRANCH   3  23
BRANCH   1  26
ATOM     26  N   UNL     1       1.252  -2.941   1.556  0.00  0.00    -0.096 NA
BRANCH  26  27
ATOM     27  S   UNL     1       1.230  -2.442  -0.024  0.00  0.00    +0.092 S 
ATOM     28  O   UNL     1      -0.015  -2.860  -0.565  0.00  0.00    -0.148 OA
ATOM     29  O   UNL     1       2.475  -2.829  -0.589  0.00  0.00    -0.148 OA
BRANCH  27  34
ATOM     30  C   UNL     1      -0.017   1.378   0.010  0.00  0.00    +0.005 A 
ATOM     31  C   UNL     1       1.171   2.086   0.002  0.00  0.00    +0.038 A 
ATOM     32  C   UNL     1       2.379   1.410  -0.013  0.00  0.00    +0.125 A 
ATOM     33  C   UNL     1       2.396   0.025  -0.021  0.00  0.00    +0.067 A 
ATOM     34  C   UNL     1       1.208  -0.680  -0.013  0.00  0.00    +0.113 A 
ATOM     35  C   UNL     1       0.002  -0.004   0.002  0.00  0.00    +0.029 A 
ATOM     36  F   UNL     1       3.540   2.101  -0.021  0.00  0.00    -0.205 F 
ENDBRANCH  27  34
ENDBRANCH  26  27
ENDBRANCH   1  26
TORSDOF 8
