REMARK  Name = ZINC65818247
REMARK  2 active torsions:
REMARK  status: ('A' for Active; 'I' for Inactive)
REMARK    1  A    between atoms: C_7  and  C_12
REMARK    2  A    between atoms: C_17  and  C_20
REMARK                            x       y       z     vdW  Elec       q    Type
REMARK                         _______ _______ _______ _____ _____    ______ ____
ROOT
ATOM      1  C   UNL     1       1.323  -2.677  -1.444  0.00  0.00    +0.224 C 
ATOM      2  O   UNL     1       1.279  -1.887  -2.363  0.00  0.00    -0.275 OA
ATOM      3  N   UNL     1       1.460  -3.994  -1.693  0.00  0.00    -0.301 N 
ATOM      4  C   UNL     1       1.407  -4.973  -0.599  0.00  0.00    +0.108 C 
ATOM      5  C   UNL     1       2.664  -5.846  -0.656  0.00  0.00    +0.027 C 
ATOM      6  C   UNL     1       2.786  -6.467  -2.050  0.00  0.00    +0.024 C 
ATOM      7  C   UNL     1       2.921  -5.357  -3.095  0.00  0.00    +0.027 C 
ATOM      8  C   UNL     1       1.660  -4.479  -3.066  0.00  0.00    +0.108 C 
ENDROOT
BRANCH   1  15
ATOM      9  C   UNL     1      -1.522   0.394   0.239  0.00  0.00    +0.000 A 
ATOM     10  C   UNL     1      -0.820   1.569   0.044  0.00  0.00    +0.002 A 
ATOM     11  C   UNL     1       0.544   1.533  -0.172  0.00  0.00    +0.023 A 
ATOM     12  C   UNL     1       1.209   0.314  -0.194  0.00  0.00    +0.037 A 
ATOM     13  C   UNL     1       0.501  -0.864   0.002  0.00  0.00    -0.014 A 
ATOM     14  C   UNL     1      -0.863  -0.822   0.218  0.00  0.00    +0.006 A 
ATOM     15  C   UNL     1       1.223  -2.186  -0.023  0.00  0.00    +0.115 C 
ATOM     16  C   UNL     1       2.627  -2.012   0.556  0.00  0.00    +0.113 C 
ATOM     17  C   UNL     1       3.299  -0.823  -0.076  0.00  0.00    +0.218 C 
ATOM     18  O   UNL     1       4.493  -0.850  -0.287  0.00  0.00    -0.275 OA
ATOM     19  N   UNL     1       2.589   0.271  -0.412  0.00  0.00    -0.285 N 
ATOM     20  H   UNL     1       3.039   1.034  -0.808  0.00  0.00    +0.155 HD
ENDBRANCH   1  15
BRANCH   6  21
ATOM     21  C   UNL     1       4.004  -7.354  -2.099  0.00  0.00    -0.018 A 
ATOM     22  C   UNL     1       5.275  -6.979  -1.884  0.00  0.00    +0.089 A 
ATOM     23  N   UNL     1       6.108  -8.058  -2.015  0.00  0.00    -0.346 N 
ATOM     24  H   UNL     1       7.071  -8.034  -1.905  0.00  0.00    +0.167 HD
ATOM     25  C   UNL     1       5.378  -9.181  -2.326  0.00  0.00    +0.138 A 
ATOM     26  C   UNL     1       4.027  -8.789  -2.385  0.00  0.00    +0.022 A 
ATOM     27  C   UNL     1       3.048  -9.741  -2.680  0.00  0.00    +0.013 A 
ATOM     28  C   UNL     1       3.454 -11.044  -2.900  0.00  0.00    +0.020 A 
ATOM     29  C   UNL     1       4.802 -11.360  -2.821  0.00  0.00    +0.113 A 
ATOM     30  N   UNL     1       5.709 -10.446  -2.550  0.00  0.00    -0.237 NA
ENDBRANCH   6  21
TORSDOF 2
