REMARK  Name = ZINC11396562
REMARK  7 active torsions:
REMARK  status: ('A' for Active; 'I' for Inactive)
REMARK    1  A    between atoms: C_4  and  C_7
REMARK    2  A    between atoms: C_9  and  C_12
REMARK    3  A    between atoms: C_12  and  C_13
REMARK    4  A    between atoms: C_13  and  O_15
REMARK    5  A    between atoms: O_15  and  C_16
REMARK    6  A    between atoms: C_16  and  C_17
REMARK    7  A    between atoms: C_25  and  N_27
REMARK                            x       y       z     vdW  Elec       q    Type
REMARK                         _______ _______ _______ _____ _____    ______ ____
ROOT
ATOM      1  O   UNL     1      -2.796  -3.053  -1.358  0.00  0.00    -0.456 OA
ENDROOT
BRANCH   1   2
ATOM      2  C   UNL     1      -3.940  -3.734  -1.528  0.00  0.00    +0.313 C 
ATOM      3  O   UNL     1      -4.563  -4.116  -0.566  0.00  0.00    -0.250 OA
BRANCH   2   4
ATOM      4  C   UNL     1      -4.447  -4.021  -2.917  0.00  0.00    +0.176 C 
BRANCH   4   7
ATOM      5  C   UNL     1      -6.914  -6.612  -2.059  0.00  0.00    +0.109 A 
ATOM      6  N   UNL     1      -5.791  -5.914  -2.151  0.00  0.00    -0.243 NA
ATOM      7  C   UNL     1      -5.739  -4.793  -2.831  0.00  0.00    +0.060 A 
ATOM      8  C   UNL     1      -6.854  -4.325  -3.452  0.00  0.00    +0.071 A 
ATOM      9  S   UNL     1      -8.031  -5.602  -3.024  0.00  0.00    -0.075 S 
BRANCH   5  13
ATOM     10  C   UNL     1      -7.659 -10.264  -0.021  0.00  0.00    +0.000 A 
ATOM     11  C   UNL     1      -8.681  -9.642  -0.717  0.00  0.00    +0.001 A 
ATOM     12  C   UNL     1      -8.445  -8.456  -1.381  0.00  0.00    +0.010 A 
ATOM     13  C   UNL     1      -7.173  -7.883  -1.350  0.00  0.00    +0.007 A 
ATOM     14  C   UNL     1      -6.146  -8.518  -0.651  0.00  0.00    +0.010 A 
ATOM     15  C   UNL     1      -6.396  -9.701   0.013  0.00  0.00    +0.001 A 
ENDBRANCH   5  13
ENDBRANCH   4   7
ENDBRANCH   2   4
ENDBRANCH   1   2
BRANCH   1  16
ATOM     16  C   UNL     1      -2.367  -2.813   0.008  0.00  0.00    +0.308 C 
BRANCH  16  17
ATOM     17  C   UNL     1      -1.073  -2.041   0.001  0.00  0.00    +0.169 A 
ATOM     18  N   UNL     1      -1.126  -0.730   0.008  0.00  0.00    -0.228 NA
ATOM     19  C   UNL     1       0.002  -0.004   0.002  0.00  0.00    +0.076 A 
ATOM     20  C   UNL     1      -0.017   1.397   0.010  0.00  0.00    +0.028 A 
ATOM     21  C   UNL     1       1.159   2.086   0.002  0.00  0.00    +0.002 A 
ATOM     22  C   UNL     1       2.381   1.420  -0.013  0.00  0.00    +0.001 A 
ATOM     23  C   UNL     1       2.436   0.057  -0.021  0.00  0.00    +0.013 A 
ATOM     24  C   UNL     1       1.246  -0.680  -0.013  0.00  0.00    +0.040 A 
ATOM     25  C   UNL     1       1.238  -2.096  -0.022  0.00  0.00    +0.128 A 
ATOM     26  N   UNL     1       0.065  -2.716  -0.014  0.00  0.00    -0.214 NA
BRANCH  25  27
ATOM     27  N   UNL     1       2.417  -2.811  -0.037  0.00  0.00    -0.343 N 
ATOM     28  H   UNL     1       2.395  -3.781  -0.042  0.00  0.00    +0.144 HD
ATOM     29  H   UNL     1       3.267  -2.345  -0.042  0.00  0.00    +0.144 HD
ENDBRANCH  25  27
ENDBRANCH  16  17
ENDBRANCH   1  16
TORSDOF 7
