REMARK  Name = ZINC49548274
REMARK  4 active torsions:
REMARK  status: ('A' for Active; 'I' for Inactive)
REMARK    1  A    between atoms: C_3  and  S_9
REMARK    2  A    between atoms: C_6  and  N_7
REMARK    3  A    between atoms: N_7  and  N_8
REMARK    4  A    between atoms: S_9  and  N_12
REMARK                            x       y       z     vdW  Elec       q    Type
REMARK                         _______ _______ _______ _____ _____    ______ ____
ROOT
ATOM      1  S   UNL     1       3.890   2.319  -0.024  0.00  0.00    +0.101 S 
ATOM      2  O   UNL     1       4.872   1.461  -0.589  0.00  0.00    -0.146 OA
ATOM      3  O   UNL     1       3.595   3.599  -0.566  0.00  0.00    -0.146 OA
ENDROOT
BRANCH   1   4
ATOM      4  N   UNL     1       4.326   2.562   1.555  0.00  0.00    -0.103 NA
ATOM      5  C   UNL     1       5.426   3.216   1.837  0.00  0.00    +0.192 A 
ATOM      6  N   UNL     1       6.344   3.780   0.990  0.00  0.00    -0.336 N 
ATOM      7  C   UNL     1       7.452   4.435   1.512  0.00  0.00    +0.028 A 
ATOM      8  C   UNL     1       7.569   4.479   2.839  0.00  0.00    +0.012 A 
ATOM      9  S   UNL     1       6.128   3.618   3.429  0.00  0.00    -0.053 S 
ATOM     10  C   UNL     1       8.806   5.205   3.287  0.00  0.00    +0.044 C 
ATOM     11  C   UNL     1       9.700   5.258   2.028  0.00  0.00    +0.011 C 
ATOM     12  C   UNL     1       8.651   5.170   0.902  0.00  0.00    +0.054 C 
ATOM     13  H   UNL     1       6.221   3.722   0.030  0.00  0.00    +0.168 HD
ENDBRANCH   1   4
BRANCH   1  16
ATOM     14  C   UNL     1      -0.017   1.385   0.010  0.00  0.00    +0.026 A 
ATOM     15  C   UNL     1       1.171   2.090   0.002  0.00  0.00    +0.031 A 
ATOM     16  C   UNL     1       2.377   1.415  -0.013  0.00  0.00    +0.113 A 
ATOM     17  C   UNL     1       2.400   0.032  -0.021  0.00  0.00    +0.031 A 
ATOM     18  C   UNL     1       1.216  -0.679  -0.014  0.00  0.00    +0.026 A 
ATOM     19  C   UNL     1       0.002  -0.004   0.002  0.00  0.00    +0.041 A 
BRANCH  19  20
ATOM     20  N   UNL     1      -1.197  -0.720   0.010  0.00  0.00    -0.283 N 
ATOM     21  H   UNL     1      -2.044  -0.248   0.021  0.00  0.00    +0.166 HD
BRANCH  20  22
ATOM     22  N   UNL     1      -1.177  -2.086   0.003  0.00  0.00    -0.257 NA
ATOM     23  H   UNL     1      -2.113  -2.462   0.010  0.00  0.00    +0.140 HD
ATOM     24  H   UNL     1      -0.653  -2.436  -0.786  0.00  0.00    +0.140 HD
ENDBRANCH  20  22
ENDBRANCH  19  20
ENDBRANCH   1  16
TORSDOF 4
