REMARK  Name = ZINC29168578
REMARK  9 active torsions:
REMARK  status: ('A' for Active; 'I' for Inactive)
REMARK    1  A    between atoms: C_1  and  C_2
REMARK    2  A    between atoms: C_5  and  C_8
REMARK    3  A    between atoms: C_8  and  C_9
REMARK    4  A    between atoms: C_9  and  C_10
REMARK    5  A    between atoms: N_13  and  C_16
REMARK    6  A    between atoms: C_16  and  C_17
REMARK    7  A    between atoms: C_23  and  S_30
REMARK    8  A    between atoms: C_27  and  C_29
REMARK    9  A    between atoms: S_30  and  N_33
REMARK                            x       y       z     vdW  Elec       q    Type
REMARK                         _______ _______ _______ _____ _____    ______ ____
ROOT
ATOM      1  C   UNL     1      -3.354   4.856   0.193  0.00  0.00    +0.203 C 
ATOM      2  O   UNL     1      -3.645   6.013  -0.028  0.00  0.00    -0.277 OA
ATOM      3  N   UNL     1      -2.479   4.557   1.173  0.00  0.00    -0.270 N 
ATOM      4  C   UNL     1      -2.070   3.265   1.516  0.00  0.00    +0.040 A 
ATOM      5  C   UNL     1      -2.447   2.041   0.959  0.00  0.00    +0.026 A 
ATOM      6  C   UNL     1      -1.921   0.864   1.448  0.00  0.00    +0.030 A 
ATOM      7  C   UNL     1      -1.016   0.887   2.493  0.00  0.00    +0.105 A 
ATOM      8  C   UNL     1      -0.638   2.095   3.049  0.00  0.00    +0.034 A 
ATOM      9  C   UNL     1      -1.162   3.276   2.566  0.00  0.00    -0.022 A 
ATOM     10  C   UNL     1      -0.926   4.711   2.978  0.00  0.00    +0.059 C 
ATOM     11  C   UNL     1      -1.816   5.539   2.036  0.00  0.00    +0.083 C 
ATOM     12  C   UNL     1      -0.960   6.490   1.197  0.00  0.00    +0.029 C 
ENDROOT
BRANCH   7  13
ATOM     13  S   UNL     1      -0.346  -0.620   3.115  0.00  0.00    +0.056 S 
ATOM     14  O   UNL     1       0.061  -0.362   4.452  0.00  0.00    -0.153 OA
ATOM     15  O   UNL     1      -1.274  -1.644   2.785  0.00  0.00    -0.153 OA
BRANCH  13  16
ATOM     16  N   UNL     1       1.033  -0.935   2.253  0.00  0.00    -0.204 NA
ATOM     17  H   UNL     1       1.484  -1.872   2.612  0.00  0.00    +0.144 HD
ATOM     18  H   UNL     1       1.747  -0.109   2.388  0.00  0.00    +0.144 HD
ENDBRANCH  13  16
ENDBRANCH   7  13
BRANCH   1  19
ATOM     19  C   UNL     1      -3.971   3.754  -0.628  0.00  0.00    +0.019 C 
BRANCH  19  23
ATOM     20  C   UNL     1      -7.528   4.594  -2.849  0.00  0.00    -0.014 C 
ATOM     21  C   UNL     1      -7.048   5.590  -1.789  0.00  0.00    -0.015 C 
ATOM     22  C   UNL     1      -6.109   4.876  -0.814  0.00  0.00    -0.078 C 
ATOM     23  N   UNL     1      -4.963   4.326  -1.549  0.00  0.00    +0.385 N 
ATOM     24  C   UNL     1      -5.395   3.332  -2.540  0.00  0.00    -0.078 C 
ATOM     25  C   UNL     1      -6.313   4.000  -3.567  0.00  0.00    -0.015 C 
ATOM     26  H   UNL     1      -4.484   5.154  -2.092  0.00  0.00    -0.081 HD
BRANCH  20  27
ATOM     27  C   UNL     1      -8.418   5.316  -3.862  0.00  0.00    +0.008 C 
BRANCH  27  28
ATOM     28  C   UNL     1      -8.998   4.298  -4.847  0.00  0.00    +0.035 C 
BRANCH  28  33
ATOM     29  C   UNL     1     -12.362   7.025  -8.674  0.00  0.00    +0.044 C 
ATOM     30  C   UNL     1     -11.485   6.313  -7.676  0.00  0.00    -0.050 A 
ATOM     31  C   UNL     1     -10.137   6.145  -7.937  0.00  0.00    +0.003 A 
ATOM     32  C   UNL     1      -9.333   5.493  -7.021  0.00  0.00    +0.004 A 
ATOM     33  C   UNL     1      -9.875   5.009  -5.845  0.00  0.00    -0.047 A 
ATOM     34  C   UNL     1     -11.223   5.173  -5.587  0.00  0.00    +0.004 A 
ATOM     35  C   UNL     1     -12.027   5.828  -6.501  0.00  0.00    +0.003 A 
ENDBRANCH  28  33
ENDBRANCH  27  28
ENDBRANCH  20  27
ENDBRANCH  19  23
ENDBRANCH   1  19
TORSDOF 7
