REMARK  Name = ZINC37063848
REMARK  6 active torsions:
REMARK  status: ('A' for Active; 'I' for Inactive)
REMARK    1  A    between atoms: C_1  and  C_2
REMARK    2  A    between atoms: C_5  and  N_21
REMARK    3  A    between atoms: C_6  and  C_20
REMARK    4  A    between atoms: C_7  and  S_8
REMARK    5  A    between atoms: S_8  and  N_11
REMARK    6  A    between atoms: N_11  and  C_12
REMARK                            x       y       z     vdW  Elec       q    Type
REMARK                         _______ _______ _______ _____ _____    ______ ____
ROOT
ATOM      1  S   UNL     1       0.216   0.100   2.566  0.00  0.00    +0.073 S 
ATOM      2  O   UNL     1       0.937  -0.732   3.464  0.00  0.00    -0.150 OA
ATOM      3  O   UNL     1       0.714   1.355   2.122  0.00  0.00    -0.150 OA
ENDROOT
BRANCH   1  10
ATOM      4  C   UNL     1       0.082   1.238  -0.231  0.00  0.00    +0.046 C 
ATOM      5  C   UNL     1      -0.129  -0.250  -0.119  0.00  0.00    -0.023 A 
ATOM      6  C   UNL     1      -0.359  -1.002  -1.257  0.00  0.00    +0.007 A 
ATOM      7  C   UNL     1      -0.553  -2.366  -1.157  0.00  0.00    +0.023 A 
ATOM      8  C   UNL     1      -0.516  -2.982   0.087  0.00  0.00    +0.029 A 
ATOM      9  C   UNL     1      -0.284  -2.224   1.228  0.00  0.00    -0.003 A 
ATOM     10  C   UNL     1      -0.086  -0.862   1.121  0.00  0.00    +0.116 A 
ATOM     11  C   UNL     1      -0.243  -2.889   2.580  0.00  0.00    +0.048 C 
BRANCH   8  12
ATOM     12  N   UNL     1      -0.711  -4.361   0.191  0.00  0.00    -0.358 N 
ATOM     13  H   UNL     1      -0.873  -4.890  -0.606  0.00  0.00    +0.142 HD
ATOM     14  H   UNL     1      -0.685  -4.791   1.061  0.00  0.00    +0.142 HD
ENDBRANCH   8  12
ENDBRANCH   1  10
BRANCH   1  15
ATOM     15  N   UNL     1      -1.253   0.397   3.271  0.00  0.00    -0.216 N 
ATOM     16  H   UNL     1      -1.463   0.008   4.135  0.00  0.00    +0.174 HD
BRANCH  15  17
ATOM     17  C   UNL     1      -2.188   1.207   2.623  0.00  0.00    +0.051 A 
ATOM     18  C   UNL     1      -1.798   2.427   2.087  0.00  0.00    +0.044 A 
ATOM     19  C   UNL     1      -2.726   3.227   1.446  0.00  0.00    +0.044 A 
ATOM     20  C   UNL     1      -4.042   2.812   1.338  0.00  0.00    +0.040 A 
ATOM     21  C   UNL     1      -4.433   1.597   1.872  0.00  0.00    +0.044 A 
ATOM     22  C   UNL     1      -3.508   0.791   2.509  0.00  0.00    +0.044 A 
ATOM     23 CL   UNL     1      -6.085   1.081   1.735  0.00  0.00    -0.083 Cl
ATOM     24 CL   UNL     1      -2.240   4.753   0.775  0.00  0.00    -0.083 Cl
ENDBRANCH  15  17
ENDBRANCH   1  15
TORSDOF 4
