REMARK  Name = ZINC63102217
REMARK  9 active torsions:
REMARK  status: ('A' for Active; 'I' for Inactive)
REMARK    1  A    between atoms: C_1  and  C_2
REMARK    2  A    between atoms: C_5  and  S_12
REMARK    3  A    between atoms: C_6  and  C_8
REMARK    4  A    between atoms: C_9  and  C_10
REMARK    5  A    between atoms: C_10  and  N_11
REMARK    6  A    between atoms: S_12  and  N_15
REMARK    7  A    between atoms: N_15  and  C_16
REMARK    8  A    between atoms: C_16  and  C_17
REMARK    9  A    between atoms: C_17  and  C_18
REMARK                            x       y       z     vdW  Elec       q    Type
REMARK                         _______ _______ _______ _____ _____    ______ ____
ROOT
ATOM      1  C   UNL     1      -0.048   1.234  -1.245  0.00  0.00    +0.044 C 
ATOM      2  C   UNL     1      -0.017  -0.246  -0.961  0.00  0.00    -0.049 A 
ATOM      3  C   UNL     1      -0.086  -1.151  -2.006  0.00  0.00    +0.005 A 
ATOM      4  C   UNL     1      -0.059  -2.511  -1.753  0.00  0.00    +0.030 A 
ATOM      5  C   UNL     1       0.039  -2.973  -0.457  0.00  0.00    +0.121 A 
ATOM      6  C   UNL     1       0.109  -2.066   0.601  0.00  0.00    +0.051 A 
ATOM      7  C   UNL     1       0.085  -0.695   0.339  0.00  0.00    +0.022 A 
ENDROOT
BRANCH   5   8
ATOM      8  S   UNL     1       0.073  -4.706  -0.137  0.00  0.00    +0.060 S 
ATOM      9  O   UNL     1      -0.054  -5.353  -1.395  0.00  0.00    -0.153 OA
ATOM     10  O   UNL     1       1.174  -4.937   0.731  0.00  0.00    -0.153 OA
BRANCH   8  11
ATOM     11  N   UNL     1      -1.293  -5.072   0.724  0.00  0.00    -0.190 NA
ATOM     12  H   UNL     1      -1.219  -5.415   1.628  0.00  0.00    +0.148 HD
BRANCH  11  13
ATOM     13  C   UNL     1      -2.614  -4.879   0.119  0.00  0.00    +0.114 C 
BRANCH  13  14
ATOM     14  C   UNL     1      -3.662  -5.645   0.929  0.00  0.00    +0.130 C 
BRANCH  14  15
ATOM     15  C   UNL     1      -5.055  -5.349   0.369  0.00  0.00    +0.391 C 
ATOM     16  F   UNL     1      -5.147  -5.843  -0.936  0.00  0.00    -0.171 F 
ATOM     17  F   UNL     1      -6.021  -5.967   1.171  0.00  0.00    -0.171 F 
ATOM     18  F   UNL     1      -5.270  -3.967   0.361  0.00  0.00    -0.171 F 
ENDBRANCH  14  15
ENDBRANCH  13  14
ENDBRANCH  11  13
ENDBRANCH   8  11
ENDBRANCH   5   8
BRANCH   6  19
ATOM     19  C   UNL     1       0.210  -2.539   1.949  0.00  0.00    -0.066 C 
ATOM     20  C   UNL     1       0.292  -2.926   3.054  0.00  0.00    -0.117 C 
BRANCH  20  21
ATOM     21  C   UNL     1       0.396  -3.413   4.439  0.00  0.00    +0.005 C 
BRANCH  21  22
ATOM     22  N   UNL     1       0.454  -2.267   5.357  0.00  0.00    +0.385 N 
ATOM     23  H   UNL     1       1.261  -1.702   5.138  0.00  0.00    -0.089 HD
ATOM     24  H   UNL     1      -0.383  -1.713   5.257  0.00  0.00    -0.089 HD
ATOM     25  H   UNL     1       0.525  -2.600   6.307  0.00  0.00    -0.089 HD
ENDBRANCH  21  22
ENDBRANCH  20  21
ENDBRANCH   6  19
TORSDOF 8
