REMARK  Name = ZINC66214456
REMARK  7 active torsions:
REMARK  status: ('A' for Active; 'I' for Inactive)
REMARK    1  A    between atoms: C_3  and  N_16
REMARK    2  A    between atoms: C_6  and  C_7
REMARK    3  A    between atoms: C_17  and  C_19
REMARK    4  A    between atoms: C_19  and  N_20
REMARK    5  A    between atoms: N_20  and  C_21
REMARK    6  A    between atoms: C_21  and  C_22
REMARK    7  A    between atoms: C_22  and  C_23
REMARK                            x       y       z     vdW  Elec       q    Type
REMARK                         _______ _______ _______ _____ _____    ______ ____
ROOT
ATOM      1  N   UNL     1       3.552   2.066  -0.104  0.00  0.00    -0.287 N 
ATOM      2  C   UNL     1       4.681   1.331  -0.077  0.00  0.00    +0.200 C 
ATOM      3  O   UNL     1       4.618   0.127   0.052  0.00  0.00    -0.278 OA
ATOM      4  H   UNL     1       3.604   3.034  -0.123  0.00  0.00    +0.155 HD
ENDROOT
BRANCH   1   7
ATOM      5  C   UNL     1       0.923  -0.409  -0.764  0.00  0.00    +0.015 A 
ATOM      6  C   UNL     1       2.149   0.218  -0.762  0.00  0.00    +0.024 A 
ATOM      7  C   UNL     1       2.309   1.434  -0.105  0.00  0.00    +0.033 A 
ATOM      8  C   UNL     1       1.231   2.021   0.550  0.00  0.00    +0.024 A 
ATOM      9  C   UNL     1       0.003   1.400   0.552  0.00  0.00    +0.015 A 
ATOM     10  C   UNL     1      -0.161   0.178  -0.107  0.00  0.00    +0.037 A 
BRANCH  10  11
ATOM     11  C   UNL     1      -1.477  -0.491  -0.108  0.00  0.00    +0.247 C 
ATOM     12  O   UNL     1      -2.495   0.170  -0.188  0.00  0.00    -0.270 OA
ATOM     13  N   UNL     1      -1.551  -1.834  -0.022  0.00  0.00    -0.298 N 
ATOM     14  C   UNL     1      -2.842  -2.468  -0.163  0.00  0.00    +0.108 C 
ATOM     15  C   UNL     1      -3.523  -2.575   1.224  0.00  0.00    +0.019 C 
ATOM     16  C   UNL     1      -2.843  -3.583   2.051  0.00  0.00    +0.002 C 
ATOM     17  C   UNL     1      -1.387  -3.257   2.369  0.00  0.00    +0.002 C 
ATOM     18  C   UNL     1      -0.509  -3.730   1.236  0.00  0.00    +0.019 C 
ATOM     19  C   UNL     1      -0.308  -2.597   0.208  0.00  0.00    +0.108 C 
ENDBRANCH  10  11
ENDBRANCH   1   7
BRANCH   2  20
ATOM     20  C   UNL     1       6.023   2.006  -0.206  0.00  0.00    +0.015 C 
BRANCH  20  21
ATOM     21  N   UNL     1       7.087   0.995  -0.147  0.00  0.00    +0.385 N 
ATOM     22  H   UNL     1       7.039   0.507   0.735  0.00  0.00    -0.085 HD
ATOM     23  H   UNL     1       6.968   0.336  -0.902  0.00  0.00    -0.085 HD
BRANCH  21  24
ATOM     24  C   UNL     1       8.394   1.653  -0.272  0.00  0.00    -0.078 C 
BRANCH  24  25
ATOM     25  C   UNL     1       9.503   0.600  -0.211  0.00  0.00    +0.011 C 
BRANCH  25  26
ATOM     26  C   UNL     1      10.844   1.274  -0.340  0.00  0.00    -0.075 C 
ATOM     27  C   UNL     1      11.481   1.571   0.747  0.00  0.00    -0.028 C 
ATOM     28  C   UNL     1      12.818   2.252   0.779  0.00  0.00    +0.027 C 
ATOM     29  C   UNL     1      13.492   2.156  -0.592  0.00  0.00    +0.004 C 
ATOM     30  C   UNL     1      12.483   2.596  -1.660  0.00  0.00    +0.005 C 
ATOM     31  C   UNL     1      11.361   1.555  -1.720  0.00  0.00    +0.030 C 
ENDBRANCH  25  26
ENDBRANCH  24  25
ENDBRANCH  21  24
ENDBRANCH  20  21
ENDBRANCH   2  20
TORSDOF 7
