REMARK  Name = ZINC59852169
REMARK  5 active torsions:
REMARK  status: ('A' for Active; 'I' for Inactive)
REMARK    1  A    between atoms: C_6  and  C_7
REMARK    2  A    between atoms: C_7  and  C_9
REMARK    3  A    between atoms: C_7  and  N_12
REMARK    4  A    between atoms: C_13  and  C_15
REMARK    5  A    between atoms: C_15  and  N_16
REMARK                            x       y       z     vdW  Elec       q    Type
REMARK                         _______ _______ _______ _____ _____    ______ ____
ROOT
ATOM      1  N   UNL     1      -2.246  -0.119   0.908  0.00  0.00    -0.307 N 
ATOM      2  C   UNL     1      -3.241  -0.832   1.472  0.00  0.00    +0.231 C 
ATOM      3  O   UNL     1      -3.347  -2.017   1.235  0.00  0.00    -0.274 OA
ATOM      4  H   UNL     1      -2.162   0.829   1.097  0.00  0.00    +0.149 HD
ENDROOT
BRANCH   1   5
ATOM      5  C   UNL     1      -1.293  -0.774   0.009  0.00  0.00    +0.106 C 
BRANCH   5  11
ATOM      6  C   UNL     1      -0.017   1.378   0.010  0.00  0.00    +0.009 A 
ATOM      7  C   UNL     1       1.170   2.088   0.002  0.00  0.00    +0.050 A 
ATOM      8  C   UNL     1       2.382   1.415  -0.013  0.00  0.00    +0.162 A 
ATOM      9  C   UNL     1       2.401   0.025  -0.018  0.00  0.00    +0.162 A 
ATOM     10  C   UNL     1       1.207  -0.681  -0.011  0.00  0.00    +0.055 A 
ATOM     11  C   UNL     1       0.002  -0.004   0.002  0.00  0.00    -0.023 A 
ATOM     12  O   UNL     1       3.579  -0.656  -0.024  0.00  0.00    -0.485 OA
ATOM     13  C   UNL     1       4.746   0.081  -0.406  0.00  0.00    +0.270 C 
ATOM     14  C   UNL     1       4.733   1.422   0.340  0.00  0.00    +0.270 C 
ATOM     15  O   UNL     1       3.542   2.127  -0.024  0.00  0.00    -0.485 OA
ENDBRANCH   5  11
BRANCH   5  16
ATOM     16  C   UNL     1      -1.872  -0.811  -1.407  0.00  0.00    +0.014 C 
ATOM     17  C   UNL     1      -3.158  -0.024  -1.667  0.00  0.00    +0.006 C 
ATOM     18  C   UNL     1      -3.195  -1.552  -1.611  0.00  0.00    +0.006 C 
ENDBRANCH   5  16
ENDBRANCH   1   5
BRANCH   2  19
ATOM     19  C   UNL     1      -4.221  -0.158   2.397  0.00  0.00    +0.212 C 
BRANCH  19  20
ATOM     20  N   UNL     1      -5.197  -1.141   2.875  0.00  0.00    -0.225 N 
ATOM     21  C   UNL     1      -6.357  -1.424   2.256  0.00  0.00    +0.254 C 
ATOM     22  O   UNL     1      -6.756  -0.914   1.229  0.00  0.00    -0.270 OA
ATOM     23  C   UNL     1      -7.065  -2.461   3.035  0.00  0.00    +0.051 A 
ATOM     24  C   UNL     1      -8.272  -3.126   2.888  0.00  0.00    +0.035 A 
ATOM     25  C   UNL     1      -8.655  -4.073   3.826  0.00  0.00    +0.060 A 
ATOM     26  C   UNL     1      -7.839  -4.356   4.909  0.00  0.00    +0.060 A 
ATOM     27  C   UNL     1      -6.629  -3.698   5.068  0.00  0.00    +0.035 A 
ATOM     28  C   UNL     1      -6.235  -2.750   4.137  0.00  0.00    +0.051 A 
ATOM     29  C   UNL     1      -5.048  -1.883   3.987  0.00  0.00    +0.254 C 
ATOM     30  O   UNL     1      -4.098  -1.845   4.743  0.00  0.00    -0.270 OA
ATOM     31 CL   UNL     1      -8.335  -5.543   6.075  0.00  0.00    -0.082 Cl
ATOM     32 CL   UNL     1     -10.166  -4.907   3.643  0.00  0.00    -0.082 Cl
ENDBRANCH  19  20
ENDBRANCH   2  19
TORSDOF 5
