REMARK  Name = ZINC20494498
REMARK  6 active torsions:
REMARK  status: ('A' for Active; 'I' for Inactive)
REMARK    1  A    between atoms: C_4  and  O_29
REMARK    2  A    between atoms: C_5  and  C_7
REMARK    3  A    between atoms: N_8  and  N_9
REMARK    4  A    between atoms: C_10  and  C_12
REMARK    5  A    between atoms: N_14  and  C_21
REMARK    6  A    between atoms: C_21  and  C_22
REMARK                            x       y       z     vdW  Elec       q    Type
REMARK                         _______ _______ _______ _____ _____    ______ ____
ROOT
ATOM      1  C   UNL     1       3.619  -6.306  -0.072  0.00  0.00    +0.064 A 
ATOM      2  C   UNL     1       2.542  -7.143  -0.072  0.00  0.00    +0.100 A 
ATOM      3  N   UNL     1       2.962  -8.431  -0.083  0.00  0.00    -0.342 N 
ATOM      4  C   UNL     1       4.340  -8.488  -0.090  0.00  0.00    +0.050 A 
ATOM      5  C   UNL     1       4.816  -7.167  -0.089  0.00  0.00    +0.012 A 
ATOM      6  C   UNL     1       6.186  -6.918  -0.100  0.00  0.00    +0.011 A 
ATOM      7  C   UNL     1       7.071  -7.974  -0.115  0.00  0.00    +0.001 A 
ATOM      8  C   UNL     1       6.603  -9.279  -0.119  0.00  0.00    +0.002 A 
ATOM      9  C   UNL     1       5.250  -9.540  -0.101  0.00  0.00    +0.026 A 
ENDROOT
BRANCH   1  11
ATOM     10  N   UNL     1       2.412  -4.186  -0.047  0.00  0.00    -0.203 N 
ATOM     11  C   UNL     1       3.591  -4.838  -0.062  0.00  0.00    +0.265 C 
ATOM     12  O   UNL     1       4.634  -4.210  -0.069  0.00  0.00    -0.268 OA
ATOM     13  H   UNL     1       1.581  -4.686  -0.042  0.00  0.00    +0.178 HD
BRANCH  10  15
ATOM     14  C   UNL     1       1.250  -2.157  -0.023  0.00  0.00    +0.142 C 
ATOM     15  N   UNL     1       2.386  -2.785  -0.038  0.00  0.00    -0.187 NA
BRANCH  14  20
ATOM     16  C   UNL     1      -0.017   1.375   0.010  0.00  0.00    +0.001 A 
ATOM     17  C   UNL     1       1.169   2.089   0.002  0.00  0.00    +0.004 A 
ATOM     18  C   UNL     1       2.383   1.428  -0.013  0.00  0.00    +0.046 A 
ATOM     19  C   UNL     1       2.420   0.044  -0.021  0.00  0.00    +0.125 A 
ATOM     20  C   UNL     1       1.222  -0.684  -0.014  0.00  0.00    +0.036 A 
ATOM     21  C   UNL     1       0.002  -0.004   0.002  0.00  0.00    +0.013 A 
BRANCH  19  22
ATOM     22  O   UNL     1       3.613  -0.607  -0.037  0.00  0.00    -0.506 OA
ATOM     23  H   UNL     1       3.967  -0.800   0.842  0.00  0.00    +0.292 HD
ENDBRANCH  19  22
ENDBRANCH  14  20
ENDBRANCH  10  15
ENDBRANCH   1  11
BRANCH   3  24
ATOM     24  C   UNL     1       2.077  -9.599  -0.086  0.00  0.00    +0.157 C 
BRANCH  24  25
ATOM     25  C   UNL     1       1.879 -10.083   1.327  0.00  0.00    -0.028 A 
ATOM     26  C   UNL     1       2.742 -11.020   1.864  0.00  0.00    +0.006 A 
ATOM     27  C   UNL     1       2.561 -11.464   3.160  0.00  0.00    +0.015 A 
ATOM     28  C   UNL     1       1.516 -10.971   3.921  0.00  0.00    +0.018 A 
ATOM     29  C   UNL     1       0.653 -10.033   3.383  0.00  0.00    +0.015 A 
ATOM     30  C   UNL     1       0.838  -9.586   2.088  0.00  0.00    +0.006 A 
ATOM     31 BR   UNL     1       1.267 -11.579   5.694  0.00  0.00    -0.050 Br
ENDBRANCH  24  25
ENDBRANCH   3  24
TORSDOF 6
