REMARK  Name = ZINC32099460
REMARK  7 active torsions:
REMARK  status: ('A' for Active; 'I' for Inactive)
REMARK    1  A    between atoms: C_1  and  C_2
REMARK    2  A    between atoms: C_2  and  O_3
REMARK    3  A    between atoms: O_3  and  C_4
REMARK    4  A    between atoms: C_7  and  N_10
REMARK    5  A    between atoms: N_10  and  N_11
REMARK    6  A    between atoms: C_17  and  C_19
REMARK    7  A    between atoms: N_24  and  C_27
REMARK                            x       y       z     vdW  Elec       q    Type
REMARK                         _______ _______ _______ _____ _____    ______ ____
ROOT
ATOM      1  N   UNL     1       2.651  -6.142   2.970  0.00  0.00    -0.183 NA
ATOM      2  C   UNL     1       2.406  -7.448   3.083  0.00  0.00    +0.083 C 
ATOM      3  C   UNL     1       1.760  -8.133   2.026  0.00  0.00    +0.033 C 
ATOM      4  C   UNL     1       1.496  -9.457   2.107  0.00  0.00    +0.053 C 
ATOM      5  C   UNL     1       1.864 -10.188   3.258  0.00  0.00    +0.186 C 
ATOM      6  O   UNL     1       1.626 -11.383   3.332  0.00  0.00    -0.287 OA
ATOM      7  C   UNL     1       2.536  -9.493   4.366  0.00  0.00    +0.025 C 
ATOM      8  C   UNL     1       2.797  -8.131   4.247  0.00  0.00    +0.041 C 
ENDROOT
BRANCH   7   9
ATOM      9  C   UNL     1       2.916 -10.200   5.532  0.00  0.00    +0.030 C 
ATOM     10  C   UNL     1       2.473  -9.777   6.772  0.00  0.00    +0.102 C 
ATOM     11  C   UNL     1       2.874 -10.296   8.092  0.00  0.00    +0.266 C 
ATOM     12  O   UNL     1       3.668 -11.192   8.308  0.00  0.00    -0.268 OA
ATOM     13  N   UNL     1       2.192  -9.589   9.014  0.00  0.00    -0.223 N 
ATOM     14  N   UNL     1       1.373  -8.643   8.398  0.00  0.00    -0.184 N 
ATOM     15  C   UNL     1       1.503  -8.704   7.059  0.00  0.00    +0.272 C 
ATOM     16  O   UNL     1       0.928  -8.010   6.242  0.00  0.00    -0.268 OA
ATOM     17  H   UNL     1       2.261  -9.720   9.972  0.00  0.00    +0.174 HD
BRANCH  14  18
ATOM     18  C   UNL     1       0.537  -7.750   9.077  0.00  0.00    +0.056 A 
ATOM     19  C   UNL     1      -0.245  -6.851   8.364  0.00  0.00    +0.026 A 
ATOM     20  C   UNL     1      -1.070  -5.971   9.037  0.00  0.00    +0.017 A 
ATOM     21  C   UNL     1      -1.118  -5.985  10.420  0.00  0.00    +0.018 A 
ATOM     22  C   UNL     1      -0.340  -6.881  11.132  0.00  0.00    +0.017 A 
ATOM     23  C   UNL     1       0.483  -7.767  10.464  0.00  0.00    +0.026 A 
ATOM     24 BR   UNL     1      -2.248  -4.779  11.338  0.00  0.00    -0.050 Br
ENDBRANCH  14  18
ENDBRANCH   7   9
BRANCH   1  25
ATOM     25  N   UNL     1       2.186  -5.483   1.964  0.00  0.00    -0.237 N 
ATOM     26  H   UNL     1       1.722  -5.949   1.251  0.00  0.00    +0.174 HD
BRANCH  25  30
ATOM     27  C   UNL     1       2.674  -1.354   1.775  0.00  0.00    +0.121 A 
ATOM     28  C   UNL     1       2.010  -2.021   0.754  0.00  0.00    +0.047 A 
ATOM     29  C   UNL     1       1.848  -3.390   0.815  0.00  0.00    +0.028 A 
ATOM     30  C   UNL     1       2.350  -4.101   1.901  0.00  0.00    +0.049 A 
ATOM     31  C   UNL     1       3.014  -3.432   2.923  0.00  0.00    +0.028 A 
ATOM     32  C   UNL     1       3.180  -2.064   2.856  0.00  0.00    +0.047 A 
BRANCH  27  33
ATOM     33  O   UNL     1       2.833  -0.006   1.714  0.00  0.00    -0.492 OA
BRANCH  33  35
ATOM     34  C   UNL     1       2.563   2.162   0.680  0.00  0.00    +0.048 C 
ATOM     35  C   UNL     1       2.288   0.660   0.574  0.00  0.00    +0.225 C 
ENDBRANCH  33  35
ENDBRANCH  27  33
ENDBRANCH  25  30
ENDBRANCH   1  25
TORSDOF 6
