REMARK  Name = ZINC40454423
REMARK  10 active torsions:
REMARK  status: ('A' for Active; 'I' for Inactive)
REMARK    1  A    between atoms: C_1  and  O_2
REMARK    2  A    between atoms: O_2  and  C_3
REMARK    3  A    between atoms: C_6  and  C_11
REMARK    4  A    between atoms: C_8  and  O_9
REMARK    5  A    between atoms: O_9  and  C_10
REMARK    6  A    between atoms: C_11  and  C_13
REMARK    7  A    between atoms: C_11  and  C_27
REMARK    8  A    between atoms: C_13  and  N_14
REMARK    9  A    between atoms: N_14  and  S_15
REMARK   10  A    between atoms: S_15  and  C_18
REMARK                            x       y       z     vdW  Elec       q    Type
REMARK                         _______ _______ _______ _____ _____    ______ ____
ROOT
ATOM      1  C   UNL     1      -4.987  -2.627   0.035  0.00  0.00    +0.067 C 
ENDROOT
BRANCH   1   2
ATOM      2  C   UNL     1      -5.753  -2.232   1.272  0.00  0.00    -0.014 A 
ATOM      3  C   UNL     1      -6.132  -0.990   1.613  0.00  0.00    +0.088 A 
ATOM      4  N   UNL     1      -6.808  -1.020   2.803  0.00  0.00    -0.360 N 
ATOM      5  H   UNL     1      -7.179  -0.244   3.252  0.00  0.00    +0.165 HD
ATOM      6  C   UNL     1      -6.881  -2.314   3.267  0.00  0.00    +0.047 A 
ATOM      7  C   UNL     1      -6.229  -3.131   2.325  0.00  0.00    +0.003 A 
ATOM      8  C   UNL     1      -6.152  -4.509   2.534  0.00  0.00    +0.010 A 
ATOM      9  C   UNL     1      -6.715  -5.059   3.651  0.00  0.00    +0.001 A 
ATOM     10  C   UNL     1      -7.363  -4.258   4.581  0.00  0.00    +0.002 A 
ATOM     11  C   UNL     1      -7.442  -2.894   4.400  0.00  0.00    +0.026 A 
ENDBRANCH   1   2
BRANCH   1  15
ATOM     12  C   UNL     1      -1.201  -0.638   0.010  0.00  0.00    +0.162 A 
ATOM     13  C   UNL     1      -2.374   0.099   0.019  0.00  0.00    +0.050 A 
ATOM     14  C   UNL     1      -3.596  -0.546   0.027  0.00  0.00    +0.008 A 
ATOM     15  C   UNL     1      -3.652  -1.928   0.026  0.00  0.00    -0.035 A 
ATOM     16  C   UNL     1      -2.485  -2.669   0.017  0.00  0.00    +0.053 A 
ATOM     17  C   UNL     1      -1.257  -2.028   0.003  0.00  0.00    +0.162 A 
BRANCH  12  19
ATOM     18  C   UNL     1      -0.017   1.425   0.010  0.00  0.00    +0.277 C 
ATOM     19  O   UNL     1       0.002  -0.004   0.002  0.00  0.00    -0.491 OA
ENDBRANCH  12  19
BRANCH  17  20
ATOM     20  O   UNL     1      -0.108  -2.756  -0.012  0.00  0.00    -0.491 OA
ATOM     21  C   UNL     1      -0.242  -4.179  -0.018  0.00  0.00    +0.277 C 
ENDBRANCH  17  20
ENDBRANCH   1  15
BRANCH   1  22
ATOM     22  C   UNL     1      -5.782  -2.223  -1.208  0.00  0.00    +0.118 C 
BRANCH  22  23
ATOM     23  N   UNL     1      -7.028  -2.992  -1.262  0.00  0.00    -0.189 NA
ATOM     24  H   UNL     1      -7.137  -3.779  -0.705  0.00  0.00    +0.148 HD
BRANCH  23  25
ATOM     25  S   UNL     1      -8.252  -2.517  -2.272  0.00  0.00    +0.061 S 
ATOM     26  O   UNL     1      -9.298  -3.466  -2.117  0.00  0.00    -0.153 OA
ATOM     27  O   UNL     1      -8.445  -1.127  -2.050  0.00  0.00    -0.153 OA
BRANCH  25  28
ATOM     28  C   UNL     1      -7.659  -2.685  -3.922  0.00  0.00    +0.133 A 
ATOM     29  C   UNL     1      -8.234  -3.581  -4.759  0.00  0.00    +0.031 A 
ATOM     30  C   UNL     1      -7.791  -3.741  -6.072  0.00  0.00    +0.004 A 
ATOM     31  C   UNL     1      -6.767  -3.007  -6.567  0.00  0.00    +0.031 A 
ATOM     32  C   UNL     1      -6.115  -2.047  -5.746  0.00  0.00    +0.102 A 
ATOM     33  C   UNL     1      -6.582  -1.876  -4.375  0.00  0.00    +0.126 A 
ATOM     34  N   UNL     1      -5.902  -0.947  -3.702  0.00  0.00    -0.189 NA
ATOM     35  S   UNL     1      -4.808  -0.376  -4.734  0.00  0.00    +0.117 S 
ATOM     36  N   UNL     1      -5.098  -1.242  -6.059  0.00  0.00    -0.191 NA
ENDBRANCH  25  28
ENDBRANCH  23  25
ENDBRANCH  22  23
ENDBRANCH   1  22
TORSDOF 8
