REMARK  Name = ZINC09137954
REMARK  6 active torsions:
REMARK  status: ('A' for Active; 'I' for Inactive)
REMARK    1  A    between atoms: C_1  and  C_2
REMARK    2  A    between atoms: C_2  and  C_4
REMARK    3  A    between atoms: C_2  and  S_16
REMARK    4  A    between atoms: N_6  and  C_7
REMARK    5  A    between atoms: S_16  and  C_17
REMARK    6  A    between atoms: N_29  and  C_30
REMARK                            x       y       z     vdW  Elec       q    Type
REMARK                         _______ _______ _______ _____ _____    ______ ____
ROOT
ATOM      1  C   UNL     1       4.639   4.893   0.515  0.00  0.00    +0.029 C 
ATOM      2  C   UNL     1       3.517   5.877   0.853  0.00  0.00    +0.137 C 
ENDROOT
BRANCH   2   3
ATOM      3  C   UNL     1       3.993   7.286   0.608  0.00  0.00    +0.230 C 
ATOM      4  O   UNL     1       4.448   7.940   1.522  0.00  0.00    -0.274 OA
ATOM      5  N   UNL     1       3.912   7.819  -0.628  0.00  0.00    -0.282 N 
ATOM      6  H   UNL     1       3.617   7.273  -1.373  0.00  0.00    +0.155 HD
BRANCH   5   7
ATOM      7  C   UNL     1       4.255   9.161  -0.835  0.00  0.00    +0.071 A 
ATOM      8  C   UNL     1       3.292  10.153  -0.704  0.00  0.00    +0.065 A 
ATOM      9  C   UNL     1       3.634  11.477  -0.905  0.00  0.00    +0.042 A 
ATOM     10  C   UNL     1       4.932  11.814  -1.246  0.00  0.00    +0.044 A 
ATOM     11  C   UNL     1       5.892  10.827  -1.382  0.00  0.00    +0.042 A 
ATOM     12  C   UNL     1       5.557   9.502  -1.178  0.00  0.00    +0.065 A 
ATOM     13 CL   UNL     1       6.763   8.265  -1.348  0.00  0.00    -0.082 Cl
ATOM     14 CL   UNL     1       5.356  13.477  -1.504  0.00  0.00    -0.083 Cl
ATOM     15 CL   UNL     1       1.661   9.731  -0.283  0.00  0.00    -0.082 Cl
ENDBRANCH   5   7
ENDBRANCH   2   3
BRANCH   2  16
ATOM     16  S   UNL     1       3.055   5.691   2.593  0.00  0.00    -0.075 S 
BRANCH  16  17
ATOM     17  C   UNL     1       2.412   4.050   2.565  0.00  0.00    +0.173 A 
ATOM     18  N   UNL     1       2.399   3.377   1.432  0.00  0.00    -0.216 NA
ATOM     19  C   UNL     1       1.920   2.139   1.384  0.00  0.00    +0.117 A 
ATOM     20  C   UNL     1       1.412   1.492   2.519  0.00  0.00    +0.076 A 
ATOM     21  C   UNL     1       0.916   0.121   2.313  0.00  0.00    -0.023 A 
ATOM     22  C   UNL     1       0.996  -0.373   1.067  0.00  0.00    -0.004 A 
ATOM     23  S   UNL     1       1.727   0.929   0.102  0.00  0.00    -0.073 S 
ATOM     24  C   UNL     1       0.459  -1.776   0.976  0.00  0.00    +0.043 C 
ATOM     25  C   UNL     1      -0.376  -1.956   2.264  0.00  0.00    +0.010 C 
ATOM     26  C   UNL     1       0.300  -0.951   3.217  0.00  0.00    +0.037 C 
ATOM     27  C   UNL     1       1.433   2.246   3.734  0.00  0.00    +0.263 A 
ATOM     28  O   UNL     1       1.006   1.765   4.769  0.00  0.00    -0.267 OA
ATOM     29  N   UNL     1       1.936   3.495   3.717  0.00  0.00    -0.290 N 
ATOM     30  C   UNL     1       1.967   4.274   4.957  0.00  0.00    +0.154 C 
ENDBRANCH  16  17
ENDBRANCH   2  16
TORSDOF 4
