REMARK  Name = ZINC66760134
REMARK  7 active torsions:
REMARK  status: ('A' for Active; 'I' for Inactive)
REMARK    1  A    between atoms: C_1  and  C_2
REMARK    2  A    between atoms: C_2  and  C_29
REMARK    3  A    between atoms: C_5  and  C_23
REMARK    4  A    between atoms: C_9  and  C_11
REMARK    5  A    between atoms: C_11  and  C_12
REMARK    6  A    between atoms: C_12  and  C_14
REMARK    7  A    between atoms: C_12  and  N_19
REMARK                            x       y       z     vdW  Elec       q    Type
REMARK                         _______ _______ _______ _____ _____    ______ ____
ROOT
ATOM      1  C   UNL     1       0.001   1.496   0.324  0.00  0.00    +0.034 C 
ATOM      2  C   UNL     1       0.004  -0.009   0.050  0.00  0.00    +0.055 C 
ATOM      3  C   UNL     1       0.615  -0.282  -1.329  0.00  0.00    +0.186 C 
ATOM      4  O   UNL     1       2.005   0.050  -1.302  0.00  0.00    -0.368 OA
ATOM      5  C   UNL     1       2.776  -0.735  -0.389  0.00  0.00    +0.166 C 
ATOM      6  C   UNL     1       2.276  -0.485   1.039  0.00  0.00    +0.144 C 
ATOM      7  N   UNL     1       0.820  -0.697   1.063  0.00  0.00    -0.291 N 
ATOM      8  C   UNL     1       0.250  -1.496   1.988  0.00  0.00    +0.218 C 
ATOM      9  O   UNL     1      -0.940  -1.726   1.940  0.00  0.00    -0.276 OA
ATOM     10  C   UNL     1      -1.429  -0.543   0.094  0.00  0.00    +0.034 C 
ENDROOT
BRANCH   5  11
ATOM     11  C   UNL     1       4.228  -0.343  -0.490  0.00  0.00    -0.017 A 
ATOM     12  C   UNL     1       4.577   0.988  -0.628  0.00  0.00    +0.006 A 
ATOM     13  C   UNL     1       5.908   1.347  -0.721  0.00  0.00    +0.000 A 
ATOM     14  C   UNL     1       6.891   0.376  -0.675  0.00  0.00    +0.000 A 
ATOM     15  C   UNL     1       6.543  -0.954  -0.536  0.00  0.00    +0.000 A 
ATOM     16  C   UNL     1       5.211  -1.313  -0.439  0.00  0.00    +0.006 A 
ENDBRANCH   5  11
BRANCH   8  17
ATOM     17  C   UNL     1       1.092  -2.103   3.080  0.00  0.00    +0.123 C 
BRANCH  17  18
ATOM     18  C   UNL     1       0.208  -2.960   3.988  0.00  0.00    +0.120 C 
BRANCH  18  19
ATOM     19  N   UNL     1      -0.761  -2.104   4.676  0.00  0.00    -0.292 N 
ATOM     20  C   UNL     1      -1.926  -2.620   5.112  0.00  0.00    +0.298 C 
ATOM     21  O   UNL     1      -2.174  -3.797   4.935  0.00  0.00    -0.253 OA
ATOM     22  N   UNL     1      -2.818  -1.832   5.746  0.00  0.00    -0.313 N 
ATOM     23  H   UNL     1      -0.563  -1.165   4.818  0.00  0.00    +0.151 HD
ATOM     24  H   UNL     1      -2.620  -0.893   5.888  0.00  0.00    +0.146 HD
ATOM     25  H   UNL     1      -3.657  -2.204   6.060  0.00  0.00    +0.146 HD
ENDBRANCH  18  19
BRANCH  18  26
ATOM     26  C   UNL     1       1.068  -3.665   5.006  0.00  0.00    +0.010 A 
ATOM     27  C   UNL     1       1.521  -4.943   5.002  0.00  0.00    +0.013 A 
ATOM     28  C   UNL     1       2.306  -5.378   6.053  0.00  0.00    +0.008 A 
ATOM     29  C   UNL     1       2.599  -4.516   7.057  0.00  0.00    +0.045 A 
ATOM     30  S   UNL     1       1.760  -3.032   6.525  0.00  0.00    -0.100 S 
ENDBRANCH  18  26
ENDBRANCH  17  18
ENDBRANCH   8  17
TORSDOF 5
