REMARK  Name = ZINC38984060
REMARK  8 active torsions:
REMARK  status: ('A' for Active; 'I' for Inactive)
REMARK    1  A    between atoms: C_1  and  C_2
REMARK    2  A    between atoms: C_4  and  C_8
REMARK    3  A    between atoms: C_12  and  S_26
REMARK    4  A    between atoms: N_14  and  N_15
REMARK    5  A    between atoms: C_16  and  C_17
REMARK    6  A    between atoms: C_20  and  N_23
REMARK    7  A    between atoms: N_23  and  C_24
REMARK    8  A    between atoms: N_23  and  C_25
REMARK                            x       y       z     vdW  Elec       q    Type
REMARK                         _______ _______ _______ _____ _____    ______ ____
ROOT
ATOM      1  C   UNL     1       0.176  -4.579  -2.492  0.00  0.00    +0.206 C 
ATOM      2  N   UNL     1       0.298  -3.265  -3.164  0.00  0.00    -0.231 NA
ATOM      3  N   UNL     1       0.213  -2.286  -2.069  0.00  0.00    -0.225 NA
ATOM      4  C   UNL     1      -0.799  -2.887  -1.161  0.00  0.00    +0.231 C 
ATOM      5  N   UNL     1      -0.522  -4.338  -1.217  0.00  0.00    -0.207 N 
ATOM      6  H   UNL     1      -0.448  -3.129  -3.829  0.00  0.00    +0.143 HD
ATOM      7  H   UNL     1      -0.096  -1.388  -2.411  0.00  0.00    +0.143 HD
ENDROOT
BRANCH   1  11
ATOM      8  C   UNL     1      -0.368  -5.535  -7.080  0.00  0.00    +0.067 C 
ATOM      9  C   UNL     1      -0.677  -5.431  -5.608  0.00  0.00    +0.058 C 
ATOM     10  C   UNL     1       0.116  -5.882  -4.634  0.00  0.00    +0.029 C 
ATOM     11  C   UNL     1      -0.638  -5.539  -3.361  0.00  0.00    +0.190 C 
ATOM     12  N   UNL     1      -1.857  -4.885  -3.865  0.00  0.00    -0.177 NA
ATOM     13  N   UNL     1      -1.792  -4.864  -5.097  0.00  0.00    -0.159 NA
ENDBRANCH   1  11
BRANCH   5  14
ATOM     14  N   UNL     1      -0.856  -5.294  -0.249  0.00  0.00    -0.188 NA
ATOM     15  C   UNL     1      -0.455  -6.521  -0.384  0.00  0.00    +0.138 C 
BRANCH  15  16
ATOM     16  C   UNL     1      -0.900  -7.551   0.572  0.00  0.00    -0.005 A 
ATOM     17  C   UNL     1      -1.758  -7.210   1.621  0.00  0.00    +0.011 A 
ATOM     18  C   UNL     1      -2.172  -8.175   2.512  0.00  0.00    +0.024 A 
ATOM     19  C   UNL     1      -1.737  -9.488   2.370  0.00  0.00    +0.029 A 
ATOM     20  C   UNL     1      -0.882  -9.832   1.328  0.00  0.00    +0.024 A 
ATOM     21  C   UNL     1      -0.469  -8.873   0.429  0.00  0.00    +0.011 A 
BRANCH  19  22
ATOM     22  N   UNL     1      -2.158 -10.464   3.275  0.00  0.00    -0.336 N 
ATOM     23  C   UNL     1      -3.147 -10.131   4.303  0.00  0.00    +0.129 C 
ATOM     24  C   UNL     1      -1.611 -11.820   3.197  0.00  0.00    +0.129 C 
ENDBRANCH  19  22
ENDBRANCH  15  16
ENDBRANCH   5  14
BRANCH   4  25
ATOM     25  S   UNL     1      -0.586  -2.262   0.529  0.00  0.00    -0.138 S 
ATOM     26  H   UNL     1      -0.785  -0.937   0.413  0.00  0.00    +0.105 HD
ENDBRANCH   4  25
TORSDOF 5
