REMARK  Name = ZINC13638501
REMARK  4 active torsions:
REMARK  status: ('A' for Active; 'I' for Inactive)
REMARK    1  A    between atoms: N_10  and  C_11
REMARK    2  A    between atoms: C_11  and  C_13
REMARK    3  A    between atoms: C_13  and  S_14
REMARK    4  A    between atoms: S_14  and  C_15
REMARK                            x       y       z     vdW  Elec       q    Type
REMARK                         _______ _______ _______ _____ _____    ______ ____
ROOT
ATOM      1  C   UNL     1       2.671  -6.220   0.156  0.00  0.00    +0.175 C 
ENDROOT
BRANCH   1   2
ATOM      2  C   UNL     1       2.215  -4.787   0.055  0.00  0.00    +0.249 C 
ATOM      3  O   UNL     1       1.028  -4.524   0.068  0.00  0.00    -0.273 OA
BRANCH   2  13
ATOM      4  C   UNL     1      -0.015   1.372   0.021  0.00  0.00    +0.002 A 
ATOM      5  C   UNL     1       1.161   2.105   0.025  0.00  0.00    +0.001 A 
ATOM      6  C   UNL     1       2.374   1.440   0.013  0.00  0.00    +0.017 A 
ATOM      7  C   UNL     1       2.394   0.066  -0.002  0.00  0.00    +0.039 A 
ATOM      8  C   UNL     1       1.219  -0.701  -0.007  0.00  0.00    +0.055 A 
ATOM      9  C   UNL     1       0.003  -0.003   0.005  0.00  0.00    +0.027 A 
ATOM     10  N   UNL     1       1.443  -2.064  -0.022  0.00  0.00    -0.335 N 
ATOM     11  H   UNL     1       0.694  -2.680  -0.027  0.00  0.00    +0.168 HD
ATOM     12  C   UNL     1       2.714  -2.540  -0.032  0.00  0.00    +0.164 A 
ATOM     13  N   UNL     1       3.110  -3.811  -0.048  0.00  0.00    -0.156 NA
ATOM     14  S   UNL     1       3.675  -1.161  -0.021  0.00  0.00    -0.052 S 
ENDBRANCH   2  13
ENDBRANCH   1   2
BRANCH   1  15
ATOM     15  S   UNL     1       1.225  -7.307   0.284  0.00  0.00    -0.076 S 
BRANCH  15  16
ATOM     16  C   UNL     1       1.915  -8.925   0.393  0.00  0.00    +0.196 A 
ATOM     17  N   UNL     1       3.185  -9.204   0.385  0.00  0.00    -0.146 NA
ATOM     18  N   UNL     1       3.337 -10.593   0.490  0.00  0.00    -0.243 N 
ATOM     19  H   UNL     1       4.176 -11.080   0.508  0.00  0.00    +0.192 HD
ATOM     20  C   UNL     1       2.081 -11.136   0.562  0.00  0.00    +0.232 A 
ATOM     21  N   UNL     1       1.196 -10.095   0.506  0.00  0.00    -0.255 N 
ATOM     22  C   UNL     1      -0.079 -10.635   0.585  0.00  0.00    +0.077 A 
ATOM     23  C   UNL     1      -1.355 -10.091   0.577  0.00  0.00    +0.028 A 
ATOM     24  C   UNL     1      -2.454 -10.918   0.673  0.00  0.00    +0.002 A 
ATOM     25  C   UNL     1      -2.294 -12.292   0.778  0.00  0.00    +0.002 A 
ATOM     26  C   UNL     1      -1.036 -12.850   0.788  0.00  0.00    +0.030 A 
ATOM     27  C   UNL     1       0.089 -12.026   0.691  0.00  0.00    +0.092 A 
ATOM     28  N   UNL     1       1.423 -12.272   0.666  0.00  0.00    -0.211 NA
ENDBRANCH  15  16
ENDBRANCH   1  15
TORSDOF 4
