REMARK  Name = ZINC65531200
REMARK  5 active torsions:
REMARK  status: ('A' for Active; 'I' for Inactive)
REMARK    1  A    between atoms: N_14  and  C_17
REMARK    2  A    between atoms: C_17  and  C_18
REMARK    3  A    between atoms: C_21  and  C_24
REMARK    4  A    between atoms: C_25  and  C_26
REMARK    5  A    between atoms: C_26  and  O_27
REMARK                            x       y       z     vdW  Elec       q    Type
REMARK                         _______ _______ _______ _____ _____    ______ ____
ROOT
ATOM      1  C   UNL     1      -0.017   1.378   0.010  0.00  0.00    +0.001 A 
ATOM      2  C   UNL     1       1.168   2.093   0.002  0.00  0.00    +0.004 A 
ATOM      3  C   UNL     1       2.386   1.437  -0.007  0.00  0.00    +0.046 A 
ATOM      4  C   UNL     1       2.420   0.055  -0.011  0.00  0.00    +0.129 A 
ATOM      5  C   UNL     1       1.221  -0.672  -0.013  0.00  0.00    +0.017 A 
ATOM      6  C   UNL     1       0.002  -0.004   0.002  0.00  0.00    +0.011 A 
ATOM      7  C   UNL     1       1.296  -2.149  -0.045  0.00  0.00    +0.011 C 
ATOM      8  C   UNL     1       2.446  -2.720   0.311  0.00  0.00    +0.021 C 
ATOM      9  C   UNL     1       3.609  -1.857   0.729  0.00  0.00    +0.127 C 
ATOM     10  O   UNL     1       3.595  -0.627  -0.003  0.00  0.00    -0.481 OA
ATOM     11  C   UNL     1       4.923  -2.600   0.413  0.00  0.00    +0.050 C 
ATOM     12  C   UNL     1       6.096  -2.040   1.177  0.00  0.00    -0.014 C 
ATOM     13  C   UNL     1       6.270  -2.836   2.487  0.00  0.00    -0.078 C 
ATOM     14  N   UNL     1       5.353  -2.443   3.464  0.00  0.00    +0.382 N 
ATOM     15  C   UNL     1       3.950  -2.692   3.082  0.00  0.00    -0.074 C 
ATOM     16  C   UNL     1       3.479  -1.540   2.230  0.00  0.00    +0.034 C 
ATOM     17  H   UNL     1       5.471  -1.456   3.640  0.00  0.00    -0.081 HD
ENDROOT
BRANCH  14  18
ATOM     18  C   UNL     1       5.642  -3.177   4.704  0.00  0.00    -0.043 C 
BRANCH  18  19
ATOM     19  C   UNL     1       6.994  -2.768   5.226  0.00  0.00    -0.064 A 
ATOM     20  C   UNL     1       8.125  -3.454   4.822  0.00  0.00    +0.003 A 
ATOM     21  C   UNL     1       9.367  -3.085   5.297  0.00  0.00    +0.017 A 
ATOM     22  C   UNL     1       9.480  -2.016   6.187  0.00  0.00    +0.025 A 
ATOM     23  C   UNL     1       8.336  -1.327   6.590  0.00  0.00    +0.017 A 
ATOM     24  C   UNL     1       7.101  -1.704   6.104  0.00  0.00    +0.003 A 
BRANCH  22  25
ATOM     25  C   UNL     1      10.766  -1.627   6.684  0.00  0.00    -0.064 C 
ATOM     26  C   UNL     1      11.820  -1.308   7.091  0.00  0.00    -0.069 C 
BRANCH  26  27
ATOM     27  C   UNL     1      13.141  -0.909   7.602  0.00  0.00    +0.244 C 
BRANCH  27  28
ATOM     28  O   UNL     1      12.993   0.202   8.489  0.00  0.00    -0.383 OA
ATOM     29  H   UNL     1      13.826   0.519   8.864  0.00  0.00    +0.211 HD
ENDBRANCH  27  28
ENDBRANCH  26  27
ENDBRANCH  22  25
ENDBRANCH  18  19
ENDBRANCH  14  18
TORSDOF 5
