REMARK  Name = ZINC23411418
REMARK  9 active torsions:
REMARK  status: ('A' for Active; 'I' for Inactive)
REMARK    1  A    between atoms: C_1  and  C_2
REMARK    2  A    between atoms: C_3  and  C_30
REMARK    3  A    between atoms: C_4  and  N_29
REMARK    4  A    between atoms: C_9  and  C_10
REMARK    5  A    between atoms: C_13  and  O_16
REMARK    6  A    between atoms: O_16  and  C_17
REMARK    7  A    between atoms: C_17  and  C_18
REMARK    8  A    between atoms: C_24  and  C_28
REMARK    9  A    between atoms: C_25  and  C_26
REMARK                            x       y       z     vdW  Elec       q    Type
REMARK                         _______ _______ _______ _____ _____    ______ ____
ROOT
ATOM      1  C   UNL     1       0.109   6.658  -0.063  0.00  0.00    +0.046 C 
ATOM      2  C   UNL     1       1.591   6.833   0.147  0.00  0.00    -0.020 A 
ATOM      3  C   UNL     1       2.148   8.105   0.315  0.00  0.00    +0.095 A 
ATOM      4  C   UNL     1       3.538   8.225   0.507  0.00  0.00    +0.135 A 
ATOM      5  N   UNL     1       4.314   7.157   0.541  0.00  0.00    -0.230 NA
ATOM      6  C   UNL     1       3.824   5.930   0.381  0.00  0.00    +0.092 A 
ATOM      7  C   UNL     1       2.441   5.735   0.179  0.00  0.00    +0.013 A 
ATOM      8  C   UNL     1       2.224   4.280   0.043  0.00  0.00    -0.011 C 
ATOM      9  C   UNL     1       1.010   3.653  -0.165  0.00  0.00    +0.016 C 
ATOM     10  C   UNL     1       3.481   3.646   0.156  0.00  0.00    -0.023 C 
ATOM     11  C   UNL     1       4.457   4.600   0.358  0.00  0.00    +0.081 C 
ATOM     12  C   UNL     1       3.719   2.160   0.070  0.00  0.00    +0.046 C 
ENDROOT
BRANCH   9  13
ATOM     13  C   UNL     1       0.972   2.243  -0.549  0.00  0.00    -0.024 A 
ATOM     14  C   UNL     1       0.095   1.359   0.098  0.00  0.00    +0.011 A 
ATOM     15  C   UNL     1       0.063   0.043  -0.266  0.00  0.00    +0.046 A 
ATOM     16  C   UNL     1       0.899  -0.422  -1.277  0.00  0.00    +0.121 A 
ATOM     17  C   UNL     1       1.771   0.449  -1.923  0.00  0.00    +0.046 A 
ATOM     18  C   UNL     1       1.812   1.767  -1.568  0.00  0.00    +0.011 A 
BRANCH  16  19
ATOM     19  O   UNL     1       0.863  -1.730  -1.634  0.00  0.00    -0.487 OA
BRANCH  19  20
ATOM     20  C   UNL     1       1.747  -2.142  -2.679  0.00  0.00    +0.264 C 
BRANCH  20  21
ATOM     21  C   UNL     1       1.568  -3.616  -2.936  0.00  0.00    -0.010 A 
ATOM     22  C   UNL     1       2.336  -4.536  -2.247  0.00  0.00    +0.007 A 
ATOM     23  C   UNL     1       2.169  -5.888  -2.480  0.00  0.00    +0.000 A 
ATOM     24  C   UNL     1       1.241  -6.320  -3.409  0.00  0.00    +0.000 A 
ATOM     25  C   UNL     1       0.477  -5.400  -4.102  0.00  0.00    +0.000 A 
ATOM     26  C   UNL     1       0.640  -4.048  -3.866  0.00  0.00    +0.007 A 
ENDBRANCH  20  21
ENDBRANCH  19  20
ENDBRANCH  16  19
ENDBRANCH   9  13
BRANCH   4  27
ATOM     27  N   UNL     1       4.098   9.480   0.674  0.00  0.00    -0.342 N 
ATOM     28  H   UNL     1       5.183   9.583   0.825  0.00  0.00    +0.144 HD
ATOM     29  H   UNL     1       3.459  10.375   0.655  0.00  0.00    +0.144 HD
ENDBRANCH   4  27
BRANCH  11  30
ATOM     30  C   UNL     1       5.856   4.340   0.519  0.00  0.00    +0.102 C 
ATOM     31  N   UNL     1       6.966   4.134   0.647  0.00  0.00    -0.191 NA
ENDBRANCH  11  30
BRANCH   3  32
ATOM     32  C   UNL     1       1.316   9.271   0.290  0.00  0.00    +0.103 C 
ATOM     33  N   UNL     1       0.656  10.195   0.272  0.00  0.00    -0.191 NA
ENDBRANCH   3  32
TORSDOF 7
