REMARK  Name = ZINC05008524
REMARK  6 active torsions:
REMARK  status: ('A' for Active; 'I' for Inactive)
REMARK    1  A    between atoms: C_1  and  C_2
REMARK    2  A    between atoms: C_5  and  N_9
REMARK    3  A    between atoms: C_10  and  C_12
REMARK    4  A    between atoms: C_12  and  S_13
REMARK    5  A    between atoms: S_13  and  C_14
REMARK    6  A    between atoms: N_18  and  C_26
REMARK                            x       y       z     vdW  Elec       q    Type
REMARK                         _______ _______ _______ _____ _____    ______ ____
ROOT
ATOM      1  S   UNL     1       2.575  -0.655  -0.050  0.00  0.00    -0.115 S 
ENDROOT
BRANCH   1   2
ATOM      2  C   UNL     1       2.482   1.104  -0.053  0.00  0.00    +0.023 A 
ATOM      3  C   UNL     1       3.628   1.875  -0.062  0.00  0.00    +0.085 A 
ATOM      4  C   UNL     1       3.533   3.272  -0.064  0.00  0.00    +0.253 A 
ATOM      5  O   UNL     1       4.556   3.936  -0.072  0.00  0.00    -0.268 OA
ATOM      6  N   UNL     1       2.346   3.902  -0.058  0.00  0.00    -0.311 N 
ATOM      7  C   UNL     1       1.158   3.198  -0.049  0.00  0.00    +0.054 A 
ATOM      8  C   UNL     1       1.182   1.792  -0.046  0.00  0.00    +0.012 A 
ATOM      9  C   UNL     1      -0.014   1.073  -0.037  0.00  0.00    +0.012 A 
ATOM     10  C   UNL     1      -1.214   1.749  -0.036  0.00  0.00    +0.021 A 
ATOM     11  C   UNL     1      -1.238   3.138  -0.033  0.00  0.00    +0.043 A 
ATOM     12  C   UNL     1      -0.063   3.861  -0.043  0.00  0.00    +0.046 A 
ATOM     13 CL   UNL     1      -2.761   3.971  -0.025  0.00  0.00    -0.083 Cl
ATOM     14  C   UNL     1       2.312   5.366  -0.061  0.00  0.00    +0.152 C 
ENDBRANCH   1   2
BRANCH   1  15
ATOM     15  C   UNL     1       4.372  -0.875  -0.062  0.00  0.00    +0.170 C 
BRANCH  15  17
ATOM     16  N   UNL     1       5.983  -2.752  -0.068  0.00  0.00    -0.284 N 
ATOM     17  C   UNL     1       4.698  -2.346  -0.061  0.00  0.00    +0.227 C 
ATOM     18  O   UNL     1       3.804  -3.166  -0.053  0.00  0.00    -0.275 OA
ATOM     19  H   UNL     1       6.697  -2.099  -0.140  0.00  0.00    +0.155 HD
BRANCH  16  24
ATOM     20  C   UNL     1       7.218  -8.277   0.317  0.00  0.00    +0.044 C 
ATOM     21  C   UNL     1       6.890  -6.810   0.215  0.00  0.00    -0.049 A 
ATOM     22  C   UNL     1       5.758  -6.401  -0.466  0.00  0.00    +0.005 A 
ATOM     23  C   UNL     1       5.455  -5.057  -0.561  0.00  0.00    +0.025 A 
ATOM     24  C   UNL     1       6.288  -4.115   0.027  0.00  0.00    +0.052 A 
ATOM     25  C   UNL     1       7.428  -4.528   0.707  0.00  0.00    +0.062 A 
ATOM     26  C   UNL     1       7.723  -5.875   0.803  0.00  0.00    +0.025 A 
ATOM     27 CL   UNL     1       8.476  -3.354   1.439  0.00  0.00    -0.082 Cl
ENDBRANCH  16  24
ENDBRANCH  15  17
ENDBRANCH   1  15
TORSDOF 4
