REMARK  Name = ZINC17207435
REMARK  4 active torsions:
REMARK  status: ('A' for Active; 'I' for Inactive)
REMARK    1  A    between atoms: C_1  and  C_2
REMARK    2  A    between atoms: C_5  and  C_7
REMARK    3  A    between atoms: N_8  and  N_9
REMARK    4  A    between atoms: C_12  and  C_15
REMARK                            x       y       z     vdW  Elec       q    Type
REMARK                         _______ _______ _______ _____ _____    ______ ____
ROOT
ATOM      1  N   UNL     1       3.820  -4.119  -0.042  0.00  0.00    -0.215 N 
ATOM      2  C   UNL     1       5.188  -3.913  -0.047  0.00  0.00    +0.178 A 
ATOM      3  N   UNL     1       6.168  -4.800  -0.063  0.00  0.00    -0.224 NA
ATOM      4  C   UNL     1       7.437  -4.421  -0.066  0.00  0.00    +0.082 A 
ATOM      5  C   UNL     1       7.740  -3.089  -0.054  0.00  0.00    +0.077 A 
ATOM      6  S   UNL     1       6.100  -2.375  -0.043  0.00  0.00    -0.059 S 
ATOM      7  H   UNL     1       3.465  -5.022  -0.045  0.00  0.00    +0.176 HD
ENDROOT
BRANCH   4   8
ATOM      8  C   UNL     1       8.520  -5.435  -0.084  0.00  0.00    +0.019 A 
ATOM      9  C   UNL     1       9.854  -5.033  -0.081  0.00  0.00    +0.013 A 
ATOM     10  C   UNL     1      10.858  -5.979  -0.097  0.00  0.00    +0.021 A 
ATOM     11  C   UNL     1      10.542  -7.327  -0.115  0.00  0.00    +0.042 A 
ATOM     12  C   UNL     1       9.219  -7.733  -0.117  0.00  0.00    +0.040 A 
ATOM     13  C   UNL     1       8.206  -6.794  -0.096  0.00  0.00    +0.052 A 
ATOM     14 CL   UNL     1       6.547  -7.304  -0.093  0.00  0.00    -0.083 Cl
ATOM     15 CL   UNL     1      11.810  -8.513  -0.134  0.00  0.00    -0.083 Cl
ENDBRANCH   4   8
BRANCH   1  17
ATOM     16  C   UNL     1       1.659  -3.217  -0.025  0.00  0.00    +0.176 C 
ATOM     17  N   UNL     1       2.946  -3.023  -0.031  0.00  0.00    -0.185 NA
BRANCH  16  22
ATOM     18  C   UNL     1      -0.018   1.503   0.010  0.00  0.00    +0.086 C 
ATOM     19  C   UNL     1       0.002  -0.004   0.002  0.00  0.00    +0.103 A 
ATOM     20  C   UNL     1      -1.083  -0.804   0.003  0.00  0.00    +0.045 A 
ATOM     21  C   UNL     1      -0.618  -2.133  -0.008  0.00  0.00    +0.051 A 
ATOM     22  C   UNL     1       0.745  -2.071  -0.014  0.00  0.00    +0.148 A 
ATOM     23  O   UNL     1       1.105  -0.772  -0.013  0.00  0.00    -0.459 OA
ENDBRANCH  16  22
ENDBRANCH   1  17
TORSDOF 3
