REMARK  Name = ZINC41431453
REMARK  6 active torsions:
REMARK  status: ('A' for Active; 'I' for Inactive)
REMARK    1  A    between atoms: C_1  and  C_2
REMARK    2  A    between atoms: C_2  and  O_3
REMARK    3  A    between atoms: O_3  and  C_4
REMARK    4  A    between atoms: C_6  and  C_23
REMARK    5  A    between atoms: C_12  and  C_13
REMARK    6  A    between atoms: C_14  and  C_15
REMARK                            x       y       z     vdW  Elec       q    Type
REMARK                         _______ _______ _______ _____ _____    ______ ____
ROOT
ATOM      1  C   UNL     1       0.777  -1.808  -1.336  0.00  0.00    +0.124 A 
ATOM      2  C   UNL     1       1.423  -2.319  -2.459  0.00  0.00    +0.050 A 
ATOM      3  C   UNL     1       1.535  -3.670  -2.631  0.00  0.00    -0.033 A 
ATOM      4  C   UNL     1       1.000  -4.539  -1.679  0.00  0.00    +0.071 A 
ATOM      5  C   UNL     1       0.346  -4.036  -0.543  0.00  0.00    +0.143 A 
ATOM      6  C   UNL     1       0.246  -2.659  -0.380  0.00  0.00    +0.092 A 
ATOM      7  O   UNL     1      -0.082  -5.060   0.226  0.00  0.00    -0.451 OA
ATOM      8  C   UNL     1       0.237  -6.260  -0.312  0.00  0.00    +0.176 C 
ATOM      9  C   UNL     1      -0.054  -7.484   0.218  0.00  0.00    +0.050 C 
ATOM     10  C   UNL     1       0.952  -6.008  -1.569  0.00  0.00    +0.232 C 
ATOM     11  O   UNL     1       1.404  -6.830  -2.347  0.00  0.00    -0.283 OA
ATOM     12  C   UNL     1       2.234  -4.220  -3.847  0.00  0.00    +0.045 C 
ENDROOT
BRANCH   9  13
ATOM     13  C   UNL     1      -0.750  -7.575   1.439  0.00  0.00    +0.004 C 
ATOM     14  C   UNL     1      -1.038  -8.789   1.966  0.00  0.00    +0.008 C 
BRANCH  14  15
ATOM     15  C   UNL     1      -1.765  -8.884   3.240  0.00  0.00    -0.025 A 
ATOM     16  C   UNL     1      -2.165  -7.723   3.910  0.00  0.00    +0.008 A 
ATOM     17  C   UNL     1      -2.846  -7.820   5.104  0.00  0.00    +0.001 A 
ATOM     18  C   UNL     1      -3.134  -9.063   5.642  0.00  0.00    +0.000 A 
ATOM     19  C   UNL     1      -2.741 -10.217   4.986  0.00  0.00    +0.001 A 
ATOM     20  C   UNL     1      -2.065 -10.137   3.787  0.00  0.00    +0.008 A 
ENDBRANCH  14  15
ENDBRANCH   9  13
BRANCH   1  21
ATOM     21  O   UNL     1       0.671  -0.465  -1.174  0.00  0.00    -0.492 OA
BRANCH  21  23
ATOM     22  C   UNL     1      -0.019   1.526   0.010  0.00  0.00    +0.048 C 
ATOM     23  C   UNL     1       0.002  -0.004   0.002  0.00  0.00    +0.225 C 
ENDBRANCH  21  23
ENDBRANCH   1  21
TORSDOF 4
