REMARK  Name = ZINC20329068
REMARK  10 active torsions:
REMARK  status: ('A' for Active; 'I' for Inactive)
REMARK    1  A    between atoms: C_1  and  O_2
REMARK    2  A    between atoms: O_2  and  C_3
REMARK    3  A    between atoms: N_15  and  C_19
REMARK    4  A    between atoms: C_19  and  C_20
REMARK    5  A    between atoms: C_20  and  C_21
REMARK    6  A    between atoms: C_21  and  C_22
REMARK    7  A    between atoms: C_22  and  C_23
REMARK    8  A    between atoms: C_23  and  C_24
REMARK    9  A    between atoms: N_26  and  C_27
REMARK   10  A    between atoms: C_27  and  C_28
REMARK                            x       y       z     vdW  Elec       q    Type
REMARK                         _______ _______ _______ _____ _____    ______ ____
ROOT
ATOM      1  C   UNL     1     -14.888  -6.428   5.974  0.00  0.00    +0.121 A 
ATOM      2  C   UNL     1     -15.700  -5.296   5.984  0.00  0.00    +0.047 A 
ATOM      3  C   UNL     1     -15.145  -4.037   5.988  0.00  0.00    +0.030 A 
ATOM      4  C   UNL     1     -13.761  -3.883   5.982  0.00  0.00    +0.049 A 
ATOM      5  C   UNL     1     -12.938  -5.025   5.971  0.00  0.00    +0.027 A 
ATOM      6  C   UNL     1     -13.515  -6.299   5.968  0.00  0.00    +0.057 A 
ATOM      7  C   UNL     1     -11.558  -4.543   5.967  0.00  0.00    +0.079 A 
ATOM      8  C   UNL     1     -11.617  -3.161   5.974  0.00  0.00    +0.129 A 
ATOM      9  N   UNL     1     -12.946  -2.771   5.983  0.00  0.00    -0.349 N 
ATOM     10  H   UNL     1     -13.389  -1.764   5.990  0.00  0.00    +0.166 HD
ATOM     11  C   UNL     1     -10.400  -2.431   5.977  0.00  0.00    +0.279 A 
ATOM     12  O   UNL     1     -10.414  -1.213   5.988  0.00  0.00    -0.265 OA
ATOM     13  N   UNL     1      -9.228  -3.097   5.962  0.00  0.00    -0.287 N 
ATOM     14  C   UNL     1      -9.194  -4.441   5.955  0.00  0.00    +0.161 A 
ATOM     15  S   UNL     1      -7.680  -5.241   5.943  0.00  0.00    -0.013 S 
ATOM     16  N   UNL     1     -10.325  -5.171   5.957  0.00  0.00    -0.333 N 
ATOM     17  H   UNL     1     -10.268  -6.269   5.951  0.00  0.00    +0.168 HD
ENDROOT
BRANCH   1  19
ATOM     18  C   UNL     1     -16.880  -7.728   5.977  0.00  0.00    +0.277 C 
ATOM     19  O   UNL     1     -15.453  -7.665   5.970  0.00  0.00    -0.495 OA
ENDBRANCH   1  19
BRANCH  13  20
ATOM     20  C   UNL     1      -7.971  -2.344   5.960  0.00  0.00    +0.127 C 
BRANCH  20  21
ATOM     21  C   UNL     1      -7.541  -2.074   4.517  0.00  0.00    +0.022 C 
BRANCH  21  22
ATOM     22  C   UNL     1      -6.228  -1.288   4.515  0.00  0.00    +0.002 C 
BRANCH  22  23
ATOM     23  C   UNL     1      -5.798  -1.018   3.072  0.00  0.00    +0.009 C 
BRANCH  23  24
ATOM     24  C   UNL     1      -4.485  -0.232   3.070  0.00  0.00    +0.096 C 
BRANCH  24  25
ATOM     25  C   UNL     1      -4.061   0.034   1.649  0.00  0.00    +0.213 C 
ATOM     26  O   UNL     1      -4.741  -0.366   0.728  0.00  0.00    -0.276 OA
ATOM     27  N   UNL     1      -2.925   0.716   1.401  0.00  0.00    -0.311 N 
ATOM     28  H   UNL     1      -2.308   1.079   2.236  0.00  0.00    +0.149 HD
BRANCH  27  29
ATOM     29  C   UNL     1      -2.513   0.975   0.019  0.00  0.00    +0.139 C 
BRANCH  29  30
ATOM     30  C   UNL     1      -1.220   1.749   0.017  0.00  0.00    -0.027 A 
ATOM     31  C   UNL     1      -0.013   1.076   0.008  0.00  0.00    +0.009 A 
ATOM     32  C   UNL     1       1.176   1.782   0.000  0.00  0.00    +0.050 A 
ATOM     33  C   UNL     1       1.160   3.167   0.008  0.00  0.00    +0.166 A 
ATOM     34  C   UNL     1      -0.057   3.845   0.022  0.00  0.00    +0.167 A 
ATOM     35  C   UNL     1      -1.244   3.131   0.031  0.00  0.00    +0.054 A 
ATOM     36  O   UNL     1       0.192   5.188   0.026  0.00  0.00    -0.453 OA
ATOM     37  C   UNL     1       1.561   5.326  -0.398  0.00  0.00    +0.466 C 
ATOM     38  O   UNL     1       2.171   4.084   0.002  0.00  0.00    -0.453 OA
ENDBRANCH  29  30
ENDBRANCH  27  29
ENDBRANCH  24  25
ENDBRANCH  23  24
ENDBRANCH  22  23
ENDBRANCH  21  22
ENDBRANCH  20  21
ENDBRANCH  13  20
TORSDOF 9
