REMARK  Name = ZINC38223339
REMARK  10 active torsions:
REMARK  status: ('A' for Active; 'I' for Inactive)
REMARK    1  A    between atoms: C_1  and  O_2
REMARK    2  A    between atoms: O_2  and  C_3
REMARK    3  A    between atoms: C_6  and  C_11
REMARK    4  A    between atoms: C_8  and  O_9
REMARK    5  A    between atoms: O_9  and  C_10
REMARK    6  A    between atoms: C_13  and  C_25
REMARK    7  A    between atoms: C_18  and  C_20
REMARK    8  A    between atoms: C_20  and  C_21
REMARK    9  A    between atoms: C_21  and  C_22
REMARK   10  A    between atoms: C_22  and  O_23
REMARK                            x       y       z     vdW  Elec       q    Type
REMARK                         _______ _______ _______ _____ _____    ______ ____
ROOT
ATOM      1  C   UNL     1       2.575  -2.532   4.289  0.00  0.00    +0.055 C 
ATOM      2  C   UNL     1       3.182  -1.679   5.366  0.00  0.00    +0.088 C 
ATOM      3  C   UNL     1       3.088  -2.363   6.735  0.00  0.00    +0.148 C 
ATOM      4  N   UNL     1       3.416  -3.777   6.558  0.00  0.00    -0.223 N 
ATOM      5  C   UNL     1       3.169  -4.452   5.395  0.00  0.00    +0.227 A 
ATOM      6  N   UNL     1       3.561  -5.691   5.567  0.00  0.00    -0.311 N 
ATOM      7  C   UNL     1       4.058  -5.837   6.796  0.00  0.00    +0.130 A 
ATOM      8  N   UNL     1       3.991  -4.692   7.434  0.00  0.00    -0.155 NA
ATOM      9  N   UNL     1       2.618  -3.838   4.315  0.00  0.00    -0.217 NA
ATOM     10  H   UNL     1       3.498  -6.395   4.903  0.00  0.00    +0.170 HD
ENDROOT
BRANCH   3  11
ATOM     11  C   UNL     1       4.066  -1.728   7.690  0.00  0.00    -0.004 A 
ATOM     12  C   UNL     1       5.418  -1.738   7.402  0.00  0.00    +0.008 A 
ATOM     13  C   UNL     1       6.316  -1.156   8.278  0.00  0.00    +0.020 A 
ATOM     14  C   UNL     1       5.861  -0.562   9.442  0.00  0.00    +0.042 A 
ATOM     15  C   UNL     1       4.508  -0.551   9.729  0.00  0.00    +0.040 A 
ATOM     16  C   UNL     1       3.610  -1.129   8.850  0.00  0.00    +0.048 A 
ATOM     17 CL   UNL     1       1.911  -1.111   9.208  0.00  0.00    -0.083 Cl
ATOM     18 CL   UNL     1       6.988   0.168  10.541  0.00  0.00    -0.083 Cl
ENDBRANCH   3  11
BRANCH   1  22
ATOM     19  C   UNL     1       0.625  -0.618   1.041  0.00  0.00    +0.162 A 
ATOM     20  C   UNL     1       1.201   0.143   2.050  0.00  0.00    +0.050 A 
ATOM     21  C   UNL     1       1.835  -0.474   3.106  0.00  0.00    +0.013 A 
ATOM     22  C   UNL     1       1.899  -1.871   3.164  0.00  0.00    +0.000 A 
ATOM     23  C   UNL     1       1.318  -2.637   2.147  0.00  0.00    +0.059 A 
ATOM     24  C   UNL     1       0.680  -2.010   1.094  0.00  0.00    +0.162 A 
BRANCH  19  26
ATOM     25  C   UNL     1      -0.017   1.425   0.010  0.00  0.00    +0.277 C 
ATOM     26  O   UNL     1       0.002  -0.004   0.002  0.00  0.00    -0.491 OA
ENDBRANCH  19  26
BRANCH  24  27
ATOM     27  O   UNL     1       0.110  -2.751   0.106  0.00  0.00    -0.491 OA
ATOM     28  C   UNL     1       0.204  -4.172   0.225  0.00  0.00    +0.277 C 
ENDBRANCH  24  27
ENDBRANCH   1  22
BRANCH   7  29
ATOM     29  C   UNL     1       4.610  -7.119   7.365  0.00  0.00    +0.078 C 
BRANCH  29  30
ATOM     30  C   UNL     1       6.035  -6.880   7.869  0.00  0.00    +0.035 C 
BRANCH  30  31
ATOM     31  C   UNL     1       6.596  -8.181   8.447  0.00  0.00    +0.156 C 
BRANCH  31  32
ATOM     32  O   UNL     1       7.927  -7.959   8.918  0.00  0.00    -0.395 OA
ATOM     33  H   UNL     1       8.345  -8.743   9.298  0.00  0.00    +0.209 HD
ENDBRANCH  31  32
ENDBRANCH  30  31
ENDBRANCH  29  30
ENDBRANCH   7  29
TORSDOF 8
