REMARK  Name = ZINC13630298
REMARK  11 active torsions:
REMARK  status: ('A' for Active; 'I' for Inactive)
REMARK    1  A    between atoms: C_4  and  C_7
REMARK    2  A    between atoms: C_7  and  C_8
REMARK    3  A    between atoms: C_8  and  O_9
REMARK    4  A    between atoms: O_9  and  C_10
REMARK    5  A    between atoms: C_14  and  C_16
REMARK    6  A    between atoms: N_18  and  C_19
REMARK    7  A    between atoms: C_19  and  N_21
REMARK    8  A    between atoms: N_21  and  N_22
REMARK    9  A    between atoms: C_23  and  C_25
REMARK   10  A    between atoms: N_30  and  C_32
REMARK   11  A    between atoms: C_32  and  C_33
REMARK                            x       y       z     vdW  Elec       q    Type
REMARK                         _______ _______ _______ _____ _____    ______ ____
ROOT
ATOM      1  C   UNL     1      -3.647  -1.030   0.014  0.00  0.00    +0.153 C 
ATOM      2  S   UNL     1      -5.139  -0.191   0.025  0.00  0.00    -0.017 S 
ENDROOT
BRANCH   1   5
ATOM      3  C   UNL     1      -2.502   1.005   0.019  0.00  0.00    +0.250 C 
ATOM      4  O   UNL     1      -3.561   1.600   0.028  0.00  0.00    -0.270 OA
ATOM      5  N   UNL     1      -2.487  -0.343   0.012  0.00  0.00    -0.263 N 
ATOM      6  H   UNL     1      -1.642  -0.819   0.005  0.00  0.00    +0.157 HD
BRANCH   3  11
ATOM      7  C   UNL     1      -0.048   3.852   0.022  0.00  0.00    +0.121 A 
ATOM      8  C   UNL     1       1.159   3.165   0.008  0.00  0.00    +0.046 A 
ATOM      9  C   UNL     1       1.173   1.782   0.000  0.00  0.00    +0.004 A 
ATOM     10  C   UNL     1      -0.013   1.076   0.008  0.00  0.00    +0.013 A 
ATOM     11  C   UNL     1      -1.231   1.758   0.017  0.00  0.00    +0.041 A 
ATOM     12  C   UNL     1      -1.243   3.153   0.029  0.00  0.00    +0.058 A 
BRANCH   7  13
ATOM     13  O   UNL     1      -0.056   5.211   0.029  0.00  0.00    -0.492 OA
BRANCH  13  14
ATOM     14  C   UNL     1       1.214   5.867   0.021  0.00  0.00    +0.233 C 
BRANCH  14  15
ATOM     15  C   UNL     1       1.005   7.383   0.031  0.00  0.00    +0.076 C 
BRANCH  15  19
ATOM     16  C   UNL     1       4.800   9.344   0.006  0.00  0.00    +0.000 A 
ATOM     17  C   UNL     1       4.175   9.033  -1.187  0.00  0.00    +0.000 A 
ATOM     18  C   UNL     1       2.947   8.398  -1.179  0.00  0.00    +0.004 A 
ATOM     19  C   UNL     1       2.344   8.074   0.022  0.00  0.00    -0.044 A 
ATOM     20  C   UNL     1       2.966   8.391   1.215  0.00  0.00    +0.004 A 
ATOM     21  C   UNL     1       4.196   9.020   1.207  0.00  0.00    +0.000 A 
ENDBRANCH  15  19
ENDBRANCH  14  15
ENDBRANCH  13  14
ENDBRANCH   7  13
ENDBRANCH   3  11
ENDBRANCH   1   5
BRANCH   1  22
ATOM     22  N   UNL     1      -3.632  -2.378   0.006  0.00  0.00    -0.246 N 
ATOM     23  H   UNL     1      -4.466  -2.872   0.008  0.00  0.00    +0.172 HD
BRANCH  22  24
ATOM     24  N   UNL     1      -2.411  -3.064  -0.003  0.00  0.00    -0.235 N 
ATOM     25  C   UNL     1      -2.396  -4.412  -0.011  0.00  0.00    +0.234 C 
ATOM     26  O   UNL     1      -3.439  -5.030  -0.009  0.00  0.00    -0.274 OA
ATOM     27  H   UNL     1      -1.576  -2.570  -0.004  0.00  0.00    +0.173 HD
BRANCH  25  28
ATOM     28  C   UNL     1      -1.083  -5.151  -0.021  0.00  0.00    +0.102 C 
ATOM     29  C   UNL     1      -0.268  -4.814  -1.291  0.00  0.00    +0.110 C 
ATOM     30  C   UNL     1       0.400  -6.120  -1.661  0.00  0.00    +0.217 C 
ATOM     31  O   UNL     1       1.339  -6.230  -2.421  0.00  0.00    -0.276 OA
ATOM     32  N   UNL     1      -0.196  -7.141  -1.022  0.00  0.00    -0.293 N 
ATOM     33  C   UNL     1      -1.305  -6.671  -0.183  0.00  0.00    +0.121 C 
BRANCH  32  34
ATOM     34  C   UNL     1       0.208  -8.544  -1.147  0.00  0.00    +0.182 C 
BRANCH  34  35
ATOM     35  C   UNL     1       1.242  -8.864  -0.098  0.00  0.00    +0.122 A 
ATOM     36  C   UNL     1       0.989  -9.317   1.143  0.00  0.00    +0.046 A 
ATOM     37  C   UNL     1       2.239  -9.484   1.781  0.00  0.00    +0.041 A 
ATOM     38  C   UNL     1       3.181  -9.115   0.894  0.00  0.00    +0.195 A 
ATOM     39  O   UNL     1       2.571  -8.741  -0.242  0.00  0.00    -0.466 OA
ENDBRANCH  34  35
ENDBRANCH  32  34
ENDBRANCH  25  28
ENDBRANCH  22  24
ENDBRANCH   1  22
TORSDOF 11
