REMARK  Name = ZINC32911744
REMARK  10 active torsions:
REMARK  status: ('A' for Active; 'I' for Inactive)
REMARK    1  A    between atoms: C_1  and  C_2
REMARK    2  A    between atoms: C_7  and  C_30
REMARK    3  A    between atoms: N_12  and  C_16
REMARK    4  A    between atoms: C_16  and  N_17
REMARK    5  A    between atoms: N_17  and  C_18
REMARK    6  A    between atoms: C_18  and  C_20
REMARK    7  A    between atoms: C_18  and  C_26
REMARK    8  A    between atoms: C_26  and  C_27
REMARK    9  A    between atoms: C_26  and  C_28
REMARK   10  A    between atoms: C_26  and  C_29
REMARK                            x       y       z     vdW  Elec       q    Type
REMARK                         _______ _______ _______ _____ _____    ______ ____
ROOT
ATOM      1  C   UNL     1      -0.085   2.433  -6.815  0.00  0.00    +0.010 C 
ATOM      2  C   UNL     1      -1.026   2.872  -5.692  0.00  0.00    +0.019 C 
ATOM      3  C   UNL     1      -1.418   4.338  -5.899  0.00  0.00    +0.006 C 
ATOM      4  C   UNL     1      -0.163   5.211  -5.859  0.00  0.00    +0.001 C 
ATOM      5  C   UNL     1       0.520   5.063  -4.497  0.00  0.00    +0.006 C 
ATOM      6  C   UNL     1       0.920   3.601  -4.285  0.00  0.00    +0.019 C 
ATOM      7  C   UNL     1      -0.321   2.717  -4.349  0.00  0.00    +0.118 C 
ATOM      8  C   UNL     1       0.050   1.270  -4.114  0.00  0.00    +0.248 C 
ATOM      9  O   UNL     1       0.791   0.584  -4.784  0.00  0.00    -0.273 OA
ATOM     10  N   UNL     1      -0.618   0.904  -3.000  0.00  0.00    -0.211 N 
ATOM     11  C   UNL     1      -1.354   1.910  -2.513  0.00  0.00    +0.310 C 
ATOM     12  O   UNL     1      -2.048   1.821  -1.519  0.00  0.00    -0.252 OA
ATOM     13  N   UNL     1      -1.237   3.034  -3.246  0.00  0.00    -0.284 N 
ATOM     14  C   UNL     1       1.584   3.448  -2.915  0.00  0.00    +0.010 C 
ATOM     15  H   UNL     1      -1.669   4.042  -3.163  0.00  0.00    +0.151 HD
ENDROOT
BRANCH  10  16
ATOM     16  C   UNL     1      -0.550  -0.432  -2.402  0.00  0.00    +0.202 C 
BRANCH  16  17
ATOM     17  N   UNL     1       0.608  -0.507  -1.502  0.00  0.00    -0.293 NA
ATOM     18  H   UNL     1       1.043  -1.516  -1.548  0.00  0.00    +0.124 HD
BRANCH  17  19
ATOM     19  C   UNL     1       0.215  -0.228  -0.114  0.00  0.00    +0.091 C 
BRANCH  19  20
ATOM     20  C   UNL     1      -0.388  -1.467   0.497  0.00  0.00    -0.030 A 
ATOM     21  C   UNL     1       0.160  -2.707   0.226  0.00  0.00    +0.005 A 
ATOM     22  C   UNL     1      -0.390  -3.843   0.790  0.00  0.00    +0.000 A 
ATOM     23  C   UNL     1      -1.494  -3.740   1.616  0.00  0.00    +0.000 A 
ATOM     24  C   UNL     1      -2.045  -2.501   1.882  0.00  0.00    +0.000 A 
ATOM     25  C   UNL     1      -1.491  -1.364   1.323  0.00  0.00    +0.005 A 
ENDBRANCH  19  20
BRANCH  19  26
ATOM     26  C   UNL     1       1.447   0.189   0.691  0.00  0.00    -0.018 C 
ATOM     27  C   UNL     1       2.530  -0.884   0.559  0.00  0.00    +0.012 C 
ATOM     28  C   UNL     1       1.980   1.520   0.155  0.00  0.00    +0.012 C 
ATOM     29  C   UNL     1       1.065   0.349   2.164  0.00  0.00    +0.012 C 
ENDBRANCH  19  26
ENDBRANCH  17  19
ENDBRANCH  16  17
ENDBRANCH  10  16
TORSDOF 5
