REMARK  Name = ZINC59831234
REMARK  14 active torsions:
REMARK  status: ('A' for Active; 'I' for Inactive)
REMARK    1  A    between atoms: C_1  and  C_2
REMARK    2  A    between atoms: C_3  and  C_11
REMARK    3  A    between atoms: C_4  and  C_10
REMARK    4  A    between atoms: N_5  and  C_7
REMARK    5  A    between atoms: C_7  and  C_8
REMARK    6  A    between atoms: N_12  and  N_13
REMARK    7  A    between atoms: C_16  and  S_19
REMARK    8  A    between atoms: S_19  and  C_20
REMARK    9  A    between atoms: C_20  and  C_21
REMARK   10  A    between atoms: C_27  and  S_29
REMARK   11  A    between atoms: S_29  and  C_30
REMARK   12  A    between atoms: C_30  and  C_31
REMARK   13  A    between atoms: C_31  and  C_32
REMARK   14  A    between atoms: C_31  and  C_33
REMARK                            x       y       z     vdW  Elec       q    Type
REMARK                         _______ _______ _______ _____ _____    ______ ____
ROOT
ATOM      1  N   UNL     1      -0.034   1.333  -4.151  0.00  0.00    -0.205 N 
ATOM      2  C   UNL     1      -0.053   2.685  -4.438  0.00  0.00    +0.232 A 
ATOM      3  N   UNL     1      -0.057   3.663  -3.556  0.00  0.00    -0.186 NA
ATOM      4  C   UNL     1      -0.076   4.840  -4.191  0.00  0.00    +0.211 A 
ATOM      5  N   UNL     1      -0.086   4.626  -5.485  0.00  0.00    -0.144 NA
ATOM      6  N   UNL     1      -0.067   3.235  -5.671  0.00  0.00    -0.245 N 
ATOM      7  H   UNL     1      -0.029   0.684  -4.872  0.00  0.00    +0.177 HD
ATOM      8  H   UNL     1      -0.065   2.761  -6.517  0.00  0.00    +0.192 HD
ENDROOT
BRANCH   1  10
ATOM      9  C   UNL     1      -0.004  -0.369  -2.549  0.00  0.00    +0.141 C 
ATOM     10  N   UNL     1      -0.022   0.899  -2.818  0.00  0.00    -0.187 NA
BRANCH   9  13
ATOM     11  C   UNL     1      -0.018   1.503   0.010  0.00  0.00    +0.068 C 
ATOM     12  C   UNL     1       0.002  -0.004   0.002  0.00  0.00    +0.069 A 
ATOM     13  C   UNL     1       0.008  -0.826  -1.145  0.00  0.00    +0.038 A 
ATOM     14  C   UNL     1       0.028  -2.134  -0.712  0.00  0.00    +0.045 A 
ATOM     15  N   UNL     1       0.034  -2.111   0.636  0.00  0.00    -0.264 N 
ATOM     16  N   UNL     1       0.023  -0.776   1.055  0.00  0.00    -0.175 NA
ATOM     17  C   UNL     1       0.041  -3.363  -1.584  0.00  0.00    +0.066 C 
BRANCH  15  18
ATOM     18  C   UNL     1       0.053  -3.285   1.513  0.00  0.00    +0.170 C 
BRANCH  18  19
ATOM     19  C   UNL     1       1.481  -3.668   1.808  0.00  0.00    -0.012 C 
ATOM     20  C   UNL     1       1.889  -3.772   3.048  0.00  0.00    +0.006 C 
ENDBRANCH  18  19
ENDBRANCH  15  18
ENDBRANCH   9  13
ENDBRANCH   1  10
BRANCH   4  21
ATOM     21  S   UNL     1      -0.088   6.422  -3.415  0.00  0.00    -0.075 S 
BRANCH  21  22
ATOM     22  C   UNL     1      -0.115   7.591  -4.801  0.00  0.00    +0.173 C 
BRANCH  22  23
ATOM     23  C   UNL     1      -0.127   9.001  -4.270  0.00  0.00    +0.229 C 
ATOM     24  O   UNL     1      -0.118   9.198  -3.073  0.00  0.00    -0.275 OA
ATOM     25  N   UNL     1      -0.147  10.043  -5.124  0.00  0.00    -0.263 N 
ATOM     26  C   UNL     1      -0.158  11.346  -4.632  0.00  0.00    +0.189 A 
ATOM     27  N   UNL     1      -0.146  11.784  -3.384  0.00  0.00    -0.125 NA
ATOM     28  N   UNL     1      -0.159  13.015  -3.107  0.00  0.00    -0.133 NA
ATOM     29  C   UNL     1      -0.185  13.945  -4.050  0.00  0.00    +0.160 A 
ATOM     30  S   UNL     1      -0.184  12.907  -5.509  0.00  0.00    -0.024 S 
ATOM     31  H   UNL     1      -0.153   9.886  -6.081  0.00  0.00    +0.157 HD
BRANCH  29  32
ATOM     32  S   UNL     1      -0.207  15.701  -3.909  0.00  0.00    -0.097 S 
BRANCH  32  33
ATOM     33  C   UNL     1      -0.186  15.998  -2.120  0.00  0.00    +0.079 C 
BRANCH  33  34
ATOM     34  C   UNL     1      -0.204  17.504  -1.852  0.00  0.00    -0.007 C 
ATOM     35  C   UNL     1      -0.312  17.754  -0.347  0.00  0.00    +0.008 C 
ATOM     36  C   UNL     1       1.087  18.131  -2.382  0.00  0.00    +0.008 C 
ENDBRANCH  33  34
ENDBRANCH  32  33
ENDBRANCH  29  32
ENDBRANCH  22  23
ENDBRANCH  21  22
ENDBRANCH   4  21
TORSDOF 10
