REMARK  Name = ZINC27241577
REMARK  8 active torsions:
REMARK  status: ('A' for Active; 'I' for Inactive)
REMARK    1  A    between atoms: C_4  and  C_7
REMARK    2  A    between atoms: C_7  and  C_8
REMARK    3  A    between atoms: C_8  and  C_9
REMARK    4  A    between atoms: C_8  and  C_16
REMARK    5  A    between atoms: C_8  and  O_31
REMARK    6  A    between atoms: C_16  and  C_18
REMARK    7  A    between atoms: C_16  and  C_25
REMARK    8  A    between atoms: C_18  and  N_19
REMARK                            x       y       z     vdW  Elec       q    Type
REMARK                         _______ _______ _______ _____ _____    ______ ____
ROOT
ATOM      1  C   UNL     1      -0.895  -0.185   1.473  0.00  0.00    +0.100 C 
ENDROOT
BRANCH   1   2
ATOM      2  C   UNL     1      -0.818  -1.542   2.126  0.00  0.00    -0.015 A 
ATOM      3  C   UNL     1       0.361  -2.263   2.083  0.00  0.00    +0.007 A 
ATOM      4  C   UNL     1       0.434  -3.504   2.686  0.00  0.00    +0.015 A 
ATOM      5  C   UNL     1      -0.676  -4.030   3.323  0.00  0.00    +0.018 A 
ATOM      6  C   UNL     1      -1.857  -3.310   3.361  0.00  0.00    +0.015 A 
ATOM      7  C   UNL     1      -1.927  -2.066   2.762  0.00  0.00    +0.007 A 
ATOM      8 BR   UNL     1      -0.580  -5.732   4.141  0.00  0.00    -0.050 Br
ENDBRANCH   1   2
BRANCH   1   9
ATOM      9  O   UNL     1      -2.229   0.049   1.018  0.00  0.00    -0.383 OA
ATOM     10  H   UNL     1      -2.686  -0.628   0.281  0.00  0.00    +0.211 HD
ENDBRANCH   1   9
BRANCH   1  11
ATOM     11  C   UNL     1      -0.505   0.892   2.487  0.00  0.00    +0.075 C 
BRANCH  11  15
ATOM     12  C   UNL     1      -2.962   0.533   5.963  0.00  0.00    +0.000 A 
ATOM     13  C   UNL     1      -1.767  -0.157   5.887  0.00  0.00    +0.000 A 
ATOM     14  C   UNL     1      -0.972  -0.041   4.763  0.00  0.00    +0.004 A 
ATOM     15  C   UNL     1      -1.372   0.765   3.713  0.00  0.00    -0.044 A 
ATOM     16  C   UNL     1      -2.565   1.459   3.791  0.00  0.00    +0.004 A 
ATOM     17  C   UNL     1      -3.363   1.339   4.913  0.00  0.00    +0.000 A 
ENDBRANCH  11  15
ENDBRANCH   1  11
BRANCH   1  18
ATOM     18  C   UNL     1       0.065  -0.137   0.283  0.00  0.00    +0.039 C 
BRANCH  18  19
ATOM     19  C   UNL     1      -0.012   1.219  -0.370  0.00  0.00    -0.043 A 
ATOM     20  C   UNL     1      -1.124   1.565  -1.115  0.00  0.00    +0.004 A 
ATOM     21  C   UNL     1      -1.197   2.810  -1.711  0.00  0.00    +0.000 A 
ATOM     22  C   UNL     1      -0.154   3.706  -1.569  0.00  0.00    +0.000 A 
ATOM     23  C   UNL     1       0.960   3.358  -0.828  0.00  0.00    +0.000 A 
ATOM     24  C   UNL     1       1.031   2.115  -0.229  0.00  0.00    +0.004 A 
ENDBRANCH  18  19
BRANCH  18  25
ATOM     25  C   UNL     1      -0.325  -1.215  -0.731  0.00  0.00    -0.068 C 
BRANCH  25  26
ATOM     26  N   UNL     1       0.651  -1.230  -1.829  0.00  0.00    +0.380 N 
ATOM     27  C   UNL     1       0.088  -1.867  -3.026  0.00  0.00    -0.079 C 
ATOM     28  C   UNL     1       1.074  -1.736  -4.188  0.00  0.00    -0.019 C 
ATOM     29  C   UNL     1       2.398  -2.405  -3.806  0.00  0.00    -0.004 C 
ATOM     30  C   UNL     1       2.939  -1.755  -2.530  0.00  0.00    -0.019 C 
ATOM     31  C   UNL     1       1.899  -1.886  -1.415  0.00  0.00    -0.079 C 
ATOM     32  H   UNL     1       0.890  -0.187  -2.086  0.00  0.00    -0.082 HD
ENDBRANCH  25  26
ENDBRANCH  18  25
ENDBRANCH   1  18
TORSDOF 8
