REMARK  Name = ZINC39579330
REMARK  5 active torsions:
REMARK  status: ('A' for Active; 'I' for Inactive)
REMARK    1  A    between atoms: C_1  and  C_2
REMARK    2  A    between atoms: C_2  and  C_3
REMARK    3  A    between atoms: C_3  and  N_4
REMARK    4  A    between atoms: C_11  and  O_29
REMARK    5  A    between atoms: C_13  and  C_17
REMARK                            x       y       z     vdW  Elec       q    Type
REMARK                         _______ _______ _______ _____ _____    ______ ____
ROOT
ATOM      1  N   UNL     1      -1.413  -1.998   0.005  0.00  0.00    -0.270 N 
ATOM      2  C   UNL     1      -1.410  -2.683  -1.214  0.00  0.00    +0.042 A 
ATOM      3  C   UNL     1      -1.137  -2.000  -2.392  0.00  0.00    +0.024 A 
ATOM      4  C   UNL     1      -1.119  -2.679  -3.594  0.00  0.00    +0.002 A 
ATOM      5  C   UNL     1      -1.371  -4.039  -3.626  0.00  0.00    +0.000 A 
ATOM      6  C   UNL     1      -1.649  -4.720  -2.455  0.00  0.00    +0.008 A 
ATOM      7  C   UNL     1      -1.675  -4.044  -1.251  0.00  0.00    +0.003 A 
ATOM      8  C   UNL     1      -2.011  -4.783   0.019  0.00  0.00    +0.165 C 
ATOM      9  C   UNL     1      -1.246  -4.168   1.190  0.00  0.00    +0.174 C 
ATOM     10  C   UNL     1      -1.393  -2.670   1.169  0.00  0.00    +0.233 C 
ATOM     11  O   UNL     1      -1.499  -2.062   2.214  0.00  0.00    -0.274 OA
ENDROOT
BRANCH   9  12
ATOM     12  C   UNL     1       0.214  -4.522   1.076  0.00  0.00    +0.125 A 
ATOM     13  N   UNL     1       0.963  -4.545   2.210  0.00  0.00    -0.310 N 
ATOM     14  H   UNL     1       0.550  -4.335   3.062  0.00  0.00    +0.170 HD
ATOM     15  C   UNL     1       2.279  -4.858   2.161  0.00  0.00    +0.259 A 
ATOM     16  O   UNL     1       2.961  -4.883   3.169  0.00  0.00    -0.267 OA
ATOM     17  C   UNL     1       2.852  -5.167   0.843  0.00  0.00    +0.065 A 
ATOM     18  C   UNL     1       4.195  -5.501   0.683  0.00  0.00    +0.015 A 
ATOM     19  C   UNL     1       4.680  -5.782  -0.575  0.00  0.00    +0.001 A 
ATOM     20  C   UNL     1       3.842  -5.734  -1.682  0.00  0.00    +0.002 A 
ATOM     21  C   UNL     1       2.512  -5.406  -1.546  0.00  0.00    +0.028 A 
ATOM     22  C   UNL     1       1.997  -5.118  -0.280  0.00  0.00    +0.078 A 
ATOM     23  N   UNL     1       0.692  -4.796  -0.100  0.00  0.00    -0.233 NA
ENDBRANCH   9  12
BRANCH   8  24
ATOM     24  O   UNL     1      -1.644  -6.157  -0.118  0.00  0.00    -0.386 OA
ATOM     25  H   UNL     1      -2.094  -6.614  -0.842  0.00  0.00    +0.210 HD
ENDBRANCH   8  24
BRANCH   1  26
ATOM     26  C   UNL     1      -1.433  -0.534   0.013  0.00  0.00    +0.113 C 
BRANCH  26  28
ATOM     27  C   UNL     1      -0.019   1.526   0.010  0.00  0.00    +0.005 C 
ATOM     28  C   UNL     1       0.002  -0.004   0.002  0.00  0.00    +0.016 C 
ENDBRANCH  26  28
ENDBRANCH   1  26
TORSDOF 4
