REMARK  Name = ZINC06672916
REMARK  3 active torsions:
REMARK  status: ('A' for Active; 'I' for Inactive)
REMARK    1  A    between atoms: C_1  and  C_2
REMARK    2  A    between atoms: C_4  and  N_11
REMARK    3  A    between atoms: N_11  and  C_12
REMARK                            x       y       z     vdW  Elec       q    Type
REMARK                         _______ _______ _______ _____ _____    ______ ____
ROOT
ATOM      1  C   UNL     1       3.732   7.648   0.399  0.00  0.00    +0.067 C 
ATOM      2  C   UNL     1       3.659   6.147   0.282  0.00  0.00    +0.064 A 
ATOM      3  C   UNL     1       2.418   5.519   0.200  0.00  0.00    +0.102 A 
ATOM      4  C   UNL     1       2.371   4.142   0.093  0.00  0.00    +0.148 A 
ATOM      5  N   UNL     1       3.545   3.444   0.077  0.00  0.00    -0.181 N 
ATOM      6  C   UNL     1       4.738   4.106   0.156  0.00  0.00    +0.255 A 
ATOM      7  N   UNL     1       4.769   5.439   0.259  0.00  0.00    -0.214 NA
ATOM      8  N   UNL     1       5.698   3.188   0.113  0.00  0.00    -0.197 NA
ATOM      9  C   UNL     1       5.159   1.980   0.005  0.00  0.00    +0.247 A 
ATOM     10  N   UNL     1       3.853   2.082  -0.024  0.00  0.00    -0.151 NA
ATOM     11 CL   UNL     1       0.954   6.451   0.230  0.00  0.00    -0.078 Cl
ENDROOT
BRANCH   4  12
ATOM     12  N   UNL     1       1.162   3.484   0.010  0.00  0.00    -0.298 N 
ATOM     13  H   UNL     1       0.629   3.346   0.808  0.00  0.00    +0.154 HD
BRANCH  12  14
ATOM     14  C   UNL     1       0.704   3.017  -1.226  0.00  0.00    +0.032 A 
ATOM     15  C   UNL     1      -0.454   2.252  -1.295  0.00  0.00    +0.024 A 
ATOM     16  C   UNL     1      -0.904   1.792  -2.517  0.00  0.00    +0.017 A 
ATOM     17  C   UNL     1      -0.203   2.092  -3.671  0.00  0.00    +0.018 A 
ATOM     18  C   UNL     1       0.951   2.853  -3.606  0.00  0.00    +0.017 A 
ATOM     19  C   UNL     1       1.406   3.316  -2.387  0.00  0.00    +0.024 A 
ATOM     20 BR   UNL     1      -0.822   1.459  -5.342  0.00  0.00    -0.050 Br
ENDBRANCH  12  14
ENDBRANCH   4  12
TORSDOF 2
