REMARK  Name = ZINC51398737
REMARK  8 active torsions:
REMARK  status: ('A' for Active; 'I' for Inactive)
REMARK    1  A    between atoms: C_1  and  C_2
REMARK    2  A    between atoms: C_2  and  C_3
REMARK    3  A    between atoms: C_10  and  C_16
REMARK    4  A    between atoms: C_16  and  N_17
REMARK    5  A    between atoms: N_17  and  C_18
REMARK    6  A    between atoms: C_18  and  C_19
REMARK    7  A    between atoms: C_18  and  C_20
REMARK    8  A    between atoms: C_18  and  C_21
REMARK                            x       y       z     vdW  Elec       q    Type
REMARK                         _______ _______ _______ _____ _____    ______ ____
ROOT
ATOM      1  C   UNL     1       0.994  -0.426  -2.638  0.00  0.00    +0.075 C 
ATOM      2  C   UNL     1       0.996  -1.621  -1.661  0.00  0.00    +0.024 C 
ATOM      3  C   UNL     1      -0.446  -1.606  -1.091  0.00  0.00    +0.021 C 
ATOM      4  C   UNL     1      -0.739  -0.086  -1.024  0.00  0.00    +0.107 C 
ATOM      5  N   UNL     1      -0.090   0.477  -2.225  0.00  0.00    -0.312 N 
ATOM      6  C   UNL     1      -0.442   1.664  -2.860  0.00  0.00    +0.123 A 
ATOM      7  C   UNL     1      -1.268   1.628  -3.978  0.00  0.00    -0.023 A 
ATOM      8  C   UNL     1      -1.611   2.815  -4.600  0.00  0.00    +0.022 A 
ATOM      9  C   UNL     1      -1.114   4.003  -4.080  0.00  0.00    +0.036 A 
ATOM     10  C   UNL     1      -0.298   3.965  -2.966  0.00  0.00    +0.128 A 
ATOM     11  N   UNL     1       0.007   2.817  -2.390  0.00  0.00    -0.239 NA
ATOM     12 BR   UNL     1      -1.549   5.656  -4.888  0.00  0.00    -0.049 Br
ENDROOT
BRANCH   1  14
ATOM     13  C   UNL     1       2.380   1.393  -3.645  0.00  0.00    +0.006 C 
ATOM     14  C   UNL     1       2.336   0.306  -2.569  0.00  0.00    +0.019 C 
ENDBRANCH   1  14
BRANCH   7  15
ATOM     15  C   UNL     1      -1.783   0.313  -4.506  0.00  0.00    -0.043 C 
BRANCH  15  16
ATOM     16  N   UNL     1      -2.917  -0.134  -3.687  0.00  0.00    +0.385 N 
ATOM     17  H   UNL     1      -2.596  -0.338  -2.752  0.00  0.00    -0.085 HD
ATOM     18  H   UNL     1      -3.614   0.595  -3.651  0.00  0.00    -0.085 HD
BRANCH  16  19
ATOM     19  C   UNL     1      -3.502  -1.344  -4.279  0.00  0.00    -0.077 C 
ATOM     20  C   UNL     1      -2.464  -2.467  -4.276  0.00  0.00    -0.011 C 
ATOM     21  C   UNL     1      -4.722  -1.773  -3.461  0.00  0.00    -0.011 C 
ATOM     22  C   UNL     1      -3.932  -1.050  -5.718  0.00  0.00    -0.011 C 
ENDBRANCH  16  19
ENDBRANCH  15  16
ENDBRANCH   7  15
TORSDOF 4
