REMARK  Name = ZINC66331728
REMARK  9 active torsions:
REMARK  status: ('A' for Active; 'I' for Inactive)
REMARK    1  A    between atoms: C_1  and  C_2
REMARK    2  A    between atoms: C_3  and  C_4
REMARK    3  A    between atoms: C_4  and  O_39
REMARK    4  A    between atoms: C_9  and  C_38
REMARK    5  A    between atoms: C_11  and  C_29
REMARK    6  A    between atoms: C_19  and  O_24
REMARK    7  A    between atoms: C_32  and  N_35
REMARK    8  A    between atoms: N_35  and  C_36
REMARK    9  A    between atoms: N_35  and  C_37
REMARK                            x       y       z     vdW  Elec       q    Type
REMARK                         _______ _______ _______ _____ _____    ______ ____
ROOT
ATOM      1  C   UNL     1      -0.160  -2.208   0.660  0.00  0.00    +0.132 C 
ATOM      2  C   UNL     1       0.829  -2.641  -0.454  0.00  0.00    +0.049 C 
ATOM      3  C   UNL     1      -0.036  -3.078  -1.661  0.00  0.00    +0.008 C 
ATOM      4  C   UNL     1      -1.479  -2.822  -1.240  0.00  0.00    +0.006 C 
ATOM      5  C   UNL     1      -1.446  -2.968   0.302  0.00  0.00    +0.012 C 
ATOM      6  C   UNL     1      -2.725  -2.322   0.818  0.00  0.00    +0.023 C 
ATOM      7  C   UNL     1      -3.873  -3.275   0.456  0.00  0.00    +0.046 C 
ATOM      8  C   UNL     1      -3.740  -3.832  -0.923  0.00  0.00    -0.057 C 
ATOM      9  C   UNL     1      -4.745  -4.541  -1.445  0.00  0.00    -0.038 C 
ATOM     10  C   UNL     1      -5.986  -4.726  -0.647  0.00  0.00    +0.039 C 
ATOM     11  C   UNL     1      -7.035  -5.582  -1.334  0.00  0.00    +0.069 C 
ATOM     12  C   UNL     1      -6.968  -5.393  -2.848  0.00  0.00    +0.173 C 
ATOM     13  C   UNL     1      -5.630  -5.922  -3.358  0.00  0.00    +0.104 C 
ATOM     14  C   UNL     1      -4.485  -5.083  -2.818  0.00  0.00    +0.092 C 
ATOM     15  C   UNL     1      -3.192  -5.904  -2.809  0.00  0.00    +0.040 C 
ATOM     16  C   UNL     1      -2.041  -5.087  -2.215  0.00  0.00    +0.011 C 
ATOM     17  C   UNL     1      -2.534  -3.714  -1.804  0.00  0.00    +0.019 C 
ATOM     18  O   UNL     1      -8.041  -6.118  -3.472  0.00  0.00    -0.346 OA
ATOM     19  C   UNL     1      -9.091  -5.137  -3.655  0.00  0.00    +0.191 C 
ATOM     20  C   UNL     1      -8.276  -3.863  -3.991  0.00  0.00    +0.191 C 
ATOM     21  O   UNL     1      -7.098  -4.003  -3.171  0.00  0.00    -0.346 OA
ATOM     22  C   UNL     1      -1.350  -4.437   0.718  0.00  0.00    +0.015 C 
ENDROOT
BRANCH   7  23
ATOM     23  C   UNL     1      -3.889  -4.416   1.440  0.00  0.00    -0.040 A 
ATOM     24  C   UNL     1      -3.974  -4.156   2.796  0.00  0.00    +0.006 A 
ATOM     25  C   UNL     1      -3.989  -5.199   3.701  0.00  0.00    +0.023 A 
ATOM     26  C   UNL     1      -3.918  -6.510   3.248  0.00  0.00    +0.029 A 
ATOM     27  C   UNL     1      -3.833  -6.768   1.886  0.00  0.00    +0.023 A 
ATOM     28  C   UNL     1      -3.824  -5.720   0.986  0.00  0.00    +0.006 A 
BRANCH  26  29
ATOM     29  N   UNL     1      -3.932  -7.568   4.161  0.00  0.00    -0.336 N 
ATOM     30  C   UNL     1      -4.022  -7.294   5.597  0.00  0.00    +0.129 C 
ATOM     31  C   UNL     1      -3.857  -8.950   3.681  0.00  0.00    +0.129 C 
ENDBRANCH  26  29
ENDBRANCH   7  23
BRANCH   1  34
ATOM     32  C   UNL     1      -0.795   1.859   0.543  0.00  0.00    +0.106 C 
ATOM     33  C   UNL     1      -0.568   0.405   0.585  0.00  0.00    -0.103 C 
ATOM     34  C   UNL     1      -0.387  -0.754   0.619  0.00  0.00    -0.067 C 
ENDBRANCH   1  34
BRANCH  14  35
ATOM     35  O   UNL     1      -4.287  -3.978  -3.703  0.00  0.00    -0.384 OA
ATOM     36  H   UNL     1      -4.112  -4.234  -4.619  0.00  0.00    +0.211 HD
ENDBRANCH  14  35
BRANCH   1  37
ATOM     37  O   UNL     1       0.319  -2.606   1.947  0.00  0.00    -0.376 OA
ATOM     38  H   UNL     1       1.148  -2.181   2.206  0.00  0.00    +0.211 HD
ENDBRANCH   1  37
TORSDOF 5
