REMARK  Name = ZINC32732931
REMARK  16 active torsions:
REMARK  status: ('A' for Active; 'I' for Inactive)
REMARK    1  A    between atoms: C_1  and  C_2
REMARK    2  A    between atoms: C_2  and  C_3
REMARK    3  A    between atoms: C_6  and  C_9
REMARK    4  A    between atoms: C_9  and  C_11
REMARK    5  A    between atoms: C_9  and  N_33
REMARK    6  A    between atoms: C_11  and  N_12
REMARK    7  A    between atoms: C_13  and  C_15
REMARK    8  A    between atoms: C_15  and  C_17
REMARK    9  A    between atoms: C_15  and  N_21
REMARK   10  A    between atoms: C_17  and  C_18
REMARK   11  A    between atoms: C_18  and  S_19
REMARK   12  A    between atoms: S_19  and  C_20
REMARK   13  A    between atoms: C_22  and  C_24
REMARK   14  A    between atoms: C_28  and  N_30
REMARK   15  A    between atoms: N_33  and  C_34
REMARK   16  A    between atoms: N_33  and  C_35
REMARK                            x       y       z     vdW  Elec       q    Type
REMARK                         _______ _______ _______ _____ _____    ______ ____
ROOT
ATOM      1  N   UNL     1       3.457  -1.988   6.880  0.00  0.00    -0.315 N 
ATOM      2  C   UNL     1       3.742  -1.354   8.035  0.00  0.00    +0.233 C 
ATOM      3  O   UNL     1       3.682  -0.145   8.094  0.00  0.00    -0.274 OA
ATOM      4  H   UNL     1       3.505  -2.955   6.833  0.00  0.00    +0.149 HD
ENDROOT
BRANCH   1   5
ATOM      5  C   UNL     1       3.074  -1.215   5.696  0.00  0.00    +0.093 C 
BRANCH   5   6
ATOM      6  C   UNL     1       2.713  -2.171   4.558  0.00  0.00    -0.021 C 
BRANCH   6  10
ATOM      7  C   UNL     1       6.173  -4.404   3.422  0.00  0.00    -0.048 A 
ATOM      8  C   UNL     1       5.224  -4.974   4.249  0.00  0.00    +0.004 A 
ATOM      9  C   UNL     1       4.104  -4.251   4.616  0.00  0.00    +0.002 A 
ATOM     10  C   UNL     1       3.934  -2.958   4.157  0.00  0.00    -0.059 A 
ATOM     11  C   UNL     1       4.885  -2.388   3.331  0.00  0.00    +0.002 A 
ATOM     12  C   UNL     1       6.006  -3.109   2.967  0.00  0.00    +0.004 A 
BRANCH   7  14
ATOM     13  C   UNL     1       8.508  -4.961   4.044  0.00  0.00    +0.009 C 
ATOM     14  C   UNL     1       7.394  -5.191   3.021  0.00  0.00    +0.032 C 
ENDBRANCH   7  14
ENDBRANCH   6  10
BRANCH   6  15
ATOM     15  N   UNL     1       2.229  -1.399   3.405  0.00  0.00    +0.382 N 
ATOM     16  C   UNL     1       1.926  -2.314   2.296  0.00  0.00    -0.096 C 
ATOM     17  C   UNL     1       1.013  -0.667   3.782  0.00  0.00    -0.096 C 
ATOM     18  H   UNL     1       2.940  -0.744   3.116  0.00  0.00    -0.082 HD
ENDBRANCH   6  15
ENDBRANCH   5   6
ENDBRANCH   1   5
BRANCH   2  19
ATOM     19  C   UNL     1       4.137  -2.150   9.253  0.00  0.00    +0.160 C 
BRANCH  19  20
ATOM     20  N   UNL     1       4.394  -1.237  10.370  0.00  0.00    -0.300 N 
ATOM     21  C   UNL     1       5.214  -1.612  11.372  0.00  0.00    +0.245 C 
ATOM     22  O   UNL     1       5.740  -2.708  11.348  0.00  0.00    -0.270 OA
ATOM     23  H   UNL     1       3.973  -0.363  10.389  0.00  0.00    +0.150 HD
BRANCH  21  24
ATOM     24  C   UNL     1       5.473  -0.691  12.499  0.00  0.00    +0.039 A 
ATOM     25  C   UNL     1       4.865   0.565  12.532  0.00  0.00    +0.013 A 
ATOM     26  C   UNL     1       5.111   1.419  13.586  0.00  0.00    +0.003 A 
ATOM     27  C   UNL     1       5.958   1.033  14.610  0.00  0.00    +0.033 A 
ATOM     28  C   UNL     1       6.564  -0.210  14.584  0.00  0.00    +0.127 A 
ATOM     29  C   UNL     1       6.321  -1.077  13.538  0.00  0.00    +0.045 A 
BRANCH  28  30
ATOM     30  N   UNL     1       7.468  -0.614  15.683  0.00  0.00    +0.056 N 
ATOM     31  O   UNL     1       7.678   0.142  16.603  0.00  0.00    -0.126 OA
ATOM     32  O   UNL     1       7.998  -1.701  15.661  0.00  0.00    -0.126 OA
ENDBRANCH  28  30
ENDBRANCH  21  24
ENDBRANCH  19  20
BRANCH  19  33
ATOM     33  C   UNL     1       3.003  -3.106   9.627  0.00  0.00    +0.042 C 
BRANCH  33  34
ATOM     34  C   UNL     1       3.450  -4.000  10.785  0.00  0.00    +0.071 C 
BRANCH  34  35
ATOM     35  S   UNL     1       2.106  -5.135  11.228  0.00  0.00    -0.164 S 
ATOM     36  C   UNL     1       2.788  -6.111  12.596  0.00  0.00    +0.084 C 
ENDBRANCH  34  35
ENDBRANCH  33  34
ENDBRANCH  19  33
ENDBRANCH   2  19
TORSDOF 12
