REMARK  Name = ZINC12661461
REMARK  10 active torsions:
REMARK  status: ('A' for Active; 'I' for Inactive)
REMARK    1  A    between atoms: C_1  and  C_2
REMARK    2  A    between atoms: C_2  and  O_3
REMARK    3  A    between atoms: O_3  and  C_4
REMARK    4  A    between atoms: C_6  and  C_24
REMARK    5  A    between atoms: N_9  and  C_10
REMARK    6  A    between atoms: C_15  and  N_16
REMARK    7  A    between atoms: C_19  and  C_23
REMARK    8  A    between atoms: C_21  and  C_22
REMARK    9  A    between atoms: C_27  and  O_30
REMARK   10  A    between atoms: O_30  and  C_31
REMARK                            x       y       z     vdW  Elec       q    Type
REMARK                         _______ _______ _______ _____ _____    ______ ____
ROOT
ATOM      1  C   UNL     1      -3.730   7.959  -0.348  0.00  0.00    +0.132 A 
ATOM      2  C   UNL     1      -4.314   6.729  -0.270  0.00  0.00    +0.055 A 
ATOM      3  C   UNL     1      -3.728   5.458  -0.116  0.00  0.00    -0.012 A 
ATOM      4  C   UNL     1      -2.410   5.068  -0.002  0.00  0.00    +0.037 A 
ATOM      5  C   UNL     1      -1.241   5.863   0.002  0.00  0.00    +0.076 A 
ATOM      6  N   UNL     1      -0.087   5.223   0.133  0.00  0.00    -0.245 NA
ATOM      7  C   UNL     1      -1.172   7.330  -0.131  0.00  0.00    +0.052 A 
ATOM      8  C   UNL     1      -2.299   8.273  -0.289  0.00  0.00    +0.067 A 
ATOM      9  C   UNL     1      -1.739   9.505  -0.369  0.00  0.00    +0.113 A 
ATOM     10  O   UNL     1      -0.407   9.374  -0.273  0.00  0.00    -0.464 OA
ATOM     11  C   UNL     1      -0.053   8.087  -0.132  0.00  0.00    +0.112 A 
ATOM     12  C   UNL     1       1.357   7.572   0.004  0.00  0.00    +0.087 C 
ATOM     13  C   UNL     1      -2.487  10.803  -0.537  0.00  0.00    +0.087 C 
ENDROOT
BRANCH   6  14
ATOM     14  C   UNL     1      -0.060   3.858   0.137  0.00  0.00    +0.085 A 
ATOM     15  C   UNL     1      -0.093   3.159   1.346  0.00  0.00    +0.029 A 
ATOM     16  C   UNL     1      -0.072   1.778   1.342  0.00  0.00    +0.002 A 
ATOM     17  C   UNL     1      -0.006   1.084   0.147  0.00  0.00    +0.002 A 
ATOM     18  C   UNL     1       0.027   1.765  -1.058  0.00  0.00    +0.025 A 
ATOM     19  C   UNL     1       0.001   3.150  -1.074  0.00  0.00    +0.050 A 
BRANCH  19  20
ATOM     20  N   UNL     1       0.034   3.839  -2.290  0.00  0.00    -0.356 N 
ATOM     21  H   UNL     1       0.076   3.347  -3.125  0.00  0.00    +0.142 HD
ATOM     22  H   UNL     1       0.016   4.808  -2.298  0.00  0.00    +0.142 HD
ENDBRANCH  19  20
ENDBRANCH   6  14
BRANCH   3  23
ATOM     23  C   UNL     1      -4.699   4.342  -0.073  0.00  0.00    -0.017 A 
ATOM     24  C   UNL     1      -5.999   4.563   0.383  0.00  0.00    +0.012 A 
ATOM     25  C   UNL     1      -6.902   3.522   0.417  0.00  0.00    +0.046 A 
ATOM     26  C   UNL     1      -6.516   2.252   0.008  0.00  0.00    +0.120 A 
ATOM     27  C   UNL     1      -5.220   2.027  -0.441  0.00  0.00    +0.046 A 
ATOM     28  C   UNL     1      -4.314   3.064  -0.482  0.00  0.00    +0.012 A 
BRANCH  26  29
ATOM     29  O   UNL     1      -7.406   1.227   0.048  0.00  0.00    -0.495 OA
ATOM     30  C   UNL     1      -8.721   1.529   0.521  0.00  0.00    +0.277 C 
ENDBRANCH  26  29
ENDBRANCH   3  23
BRANCH   1  31
ATOM     31  O   UNL     1      -4.569   9.012  -0.497  0.00  0.00    -0.491 OA
BRANCH  31  33
ATOM     32  C   UNL     1      -5.845  10.596  -1.802  0.00  0.00    +0.048 C 
ATOM     33  C   UNL     1      -4.893   9.399  -1.834  0.00  0.00    +0.226 C 
ENDBRANCH  31  33
ENDBRANCH   1  31
TORSDOF 6
