REMARK  Name = ZINC66738567
REMARK  8 active torsions:
REMARK  status: ('A' for Active; 'I' for Inactive)
REMARK    1  A    between atoms: C_1  and  C_2
REMARK    2  A    between atoms: C_2  and  C_4
REMARK    3  A    between atoms: C_2  and  O_6
REMARK    4  A    between atoms: O_6  and  C_7
REMARK    5  A    between atoms: C_10  and  C_13
REMARK    6  A    between atoms: N_24  and  C_25
REMARK    7  A    between atoms: C_28  and  O_31
REMARK    8  A    between atoms: O_31  and  C_32
REMARK                            x       y       z     vdW  Elec       q    Type
REMARK                         _______ _______ _______ _____ _____    ______ ____
ROOT
ATOM      1  C   UNL     1       6.434  -0.818  -0.898  0.00  0.00    +0.198 C 
ATOM      2  N   UNL     1       6.839  -1.310   0.423  0.00  0.00    -0.321 N 
ATOM      3  C   UNL     1       6.565  -2.631   0.759  0.00  0.00    +0.041 A 
ATOM      4  C   UNL     1       6.357  -3.022   2.071  0.00  0.00    +0.024 A 
ATOM      5  C   UNL     1       6.098  -4.348   2.357  0.00  0.00    +0.002 A 
ATOM      6  C   UNL     1       6.046  -5.291   1.342  0.00  0.00    +0.001 A 
ATOM      7  C   UNL     1       6.247  -4.918   0.030  0.00  0.00    +0.015 A 
ATOM      8  C   UNL     1       6.503  -3.583  -0.274  0.00  0.00    +0.058 A 
ATOM      9  C   UNL     1       6.701  -3.130  -1.662  0.00  0.00    +0.254 C 
ATOM     10  O   UNL     1       6.818  -3.941  -2.561  0.00  0.00    -0.270 OA
ATOM     11  N   UNL     1       6.749  -1.812  -1.925  0.00  0.00    -0.244 N 
ATOM     12  H   UNL     1       7.290  -0.724   1.051  0.00  0.00    +0.148 HD
ENDROOT
BRANCH   1  16
ATOM     13  C   UNL     1       2.227  -0.067  -0.900  0.00  0.00    +0.122 A 
ATOM     14  C   UNL     1       2.955   0.063   0.273  0.00  0.00    +0.046 A 
ATOM     15  C   UNL     1       4.315  -0.181   0.271  0.00  0.00    +0.010 A 
ATOM     16  C   UNL     1       4.950  -0.554  -0.899  0.00  0.00    -0.009 A 
ATOM     17  C   UNL     1       4.227  -0.683  -2.070  0.00  0.00    +0.010 A 
ATOM     18  C   UNL     1       2.866  -0.447  -2.072  0.00  0.00    +0.046 A 
BRANCH  13  19
ATOM     19  O   UNL     1       0.889   0.172  -0.901  0.00  0.00    -0.475 OA
BRANCH  19  21
ATOM     20  C   UNL     1       0.424   1.929   0.691  0.00  0.00    +0.068 C 
ATOM     21  C   UNL     1       0.278   0.442   0.362  0.00  0.00    +0.271 C 
BRANCH  21  22
ATOM     22  C   UNL     1      -1.150   0.091   0.301  0.00  0.00    +0.107 C 
ATOM     23  N   UNL     1      -2.253  -0.179   0.254  0.00  0.00    -0.193 NA
ENDBRANCH  21  22
ENDBRANCH  19  21
ENDBRANCH  13  19
ENDBRANCH   1  16
BRANCH  11  24
ATOM     24  C   UNL     1       7.107  -1.385  -3.209  0.00  0.00    +0.039 A 
ATOM     25  C   UNL     1       8.203  -0.551  -3.384  0.00  0.00    +0.027 A 
ATOM     26  C   UNL     1       8.555  -0.130  -4.651  0.00  0.00    +0.047 A 
ATOM     27  C   UNL     1       7.814  -0.541  -5.750  0.00  0.00    +0.120 A 
ATOM     28  C   UNL     1       6.719  -1.374  -5.576  0.00  0.00    +0.047 A 
ATOM     29  C   UNL     1       6.369  -1.800  -4.310  0.00  0.00    +0.027 A 
BRANCH  27  30
ATOM     30  O   UNL     1       8.162  -0.126  -6.997  0.00  0.00    -0.495 OA
ATOM     31  C   UNL     1       7.354  -0.587  -8.082  0.00  0.00    +0.277 C 
ENDBRANCH  27  30
ENDBRANCH  11  24
TORSDOF 6
