REMARK  Name = ZINC22418528
REMARK  6 active torsions:
REMARK  status: ('A' for Active; 'I' for Inactive)
REMARK    1  A    between atoms: C_1  and  C_2
REMARK    2  A    between atoms: C_2  and  C_27
REMARK    3  A    between atoms: N_7  and  C_16
REMARK    4  A    between atoms: N_9  and  C_10
REMARK    5  A    between atoms: C_16  and  C_17
REMARK    6  A    between atoms: C_17  and  C_18
REMARK                            x       y       z     vdW  Elec       q    Type
REMARK                         _______ _______ _______ _____ _____    ______ ____
ROOT
ATOM      1  C   UNL     1      -0.448   7.324  -3.217  0.00  0.00    +0.011 C 
ATOM      2  C   UNL     1       0.657   6.358  -3.650  0.00  0.00    -0.023 C 
ATOM      3  C   UNL     1       0.478   5.018  -2.933  0.00  0.00    +0.058 C 
ATOM      4  C   UNL     1      -0.846   4.409  -3.319  0.00  0.00    +0.016 C 
ATOM      5  C   UNL     1      -1.394   4.639  -4.532  0.00  0.00    +0.026 C 
ATOM      6  C   UNL     1      -2.721   4.030  -4.915  0.00  0.00    +0.126 C 
ATOM      7  N   UNL     1      -3.022   2.875  -4.062  0.00  0.00    -0.282 NA
ATOM      8  C   UNL     1      -2.883   3.237  -2.645  0.00  0.00    +0.192 C 
ATOM      9  N   UNL     1      -1.482   3.608  -2.410  0.00  0.00    -0.317 N 
ATOM     10  C   UNL     1      -0.749   5.459  -5.473  0.00  0.00    +0.162 C 
ATOM     11  O   UNL     1      -1.264   5.640  -6.559  0.00  0.00    -0.292 OA
ATOM     12  C   UNL     1       0.567   6.116  -5.160  0.00  0.00    +0.086 C 
ATOM     13  C   UNL     1       2.024   6.950  -3.300  0.00  0.00    +0.011 C 
ENDROOT
BRANCH   9  14
ATOM     14  C   UNL     1      -0.773   3.123  -1.223  0.00  0.00    +0.074 C 
ATOM     15  C   UNL     1      -0.753   1.593  -1.232  0.00  0.00    +0.022 C 
ATOM     16  C   UNL     1      -0.013   1.086   0.008  0.00  0.00    +0.002 C 
ATOM     17  C   UNL     1      -0.729   1.579   1.267  0.00  0.00    +0.000 C 
ATOM     18  C   UNL     1      -0.750   3.109   1.275  0.00  0.00    +0.002 C 
ATOM     19  C   UNL     1      -1.490   3.616   0.036  0.00  0.00    +0.022 C 
ENDBRANCH   9  14
BRANCH   7  20
ATOM     20  C   UNL     1      -4.365   2.349  -4.343  0.00  0.00    +0.091 C 
BRANCH  20  21
ATOM     21  C   UNL     1      -5.414   3.386  -3.935  0.00  0.00    +0.050 C 
BRANCH  21  22
ATOM     22  C   UNL     1      -6.792   2.846  -4.223  0.00  0.00    -0.046 A 
ATOM     23  C   UNL     1      -7.382   3.079  -5.451  0.00  0.00    +0.003 A 
ATOM     24  C   UNL     1      -8.644   2.580  -5.717  0.00  0.00    +0.000 A 
ATOM     25  C   UNL     1      -9.319   1.857  -4.751  0.00  0.00    +0.000 A 
ATOM     26  C   UNL     1      -8.730   1.629  -3.521  0.00  0.00    +0.000 A 
ATOM     27  C   UNL     1      -7.466   2.124  -3.257  0.00  0.00    +0.003 A 
ENDBRANCH  21  22
ENDBRANCH  20  21
ENDBRANCH   7  20
TORSDOF 4
