REMARK  Name = ZINC03640831
REMARK  11 active torsions:
REMARK  status: ('A' for Active; 'I' for Inactive)
REMARK    1  A    between atoms: C_1  and  C_2
REMARK    2  A    between atoms: C_2  and  O_3
REMARK    3  A    between atoms: O_3  and  C_4
REMARK    4  A    between atoms: C_6  and  C_12
REMARK    5  A    between atoms: C_9  and  O_10
REMARK    6  A    between atoms: O_10  and  C_11
REMARK    7  A    between atoms: C_12  and  C_14
REMARK    8  A    between atoms: C_12  and  N_26
REMARK    9  A    between atoms: C_20  and  C_25
REMARK   10  A    between atoms: C_23  and  O_24
REMARK   11  A    between atoms: N_26  and  C_27
REMARK                            x       y       z     vdW  Elec       q    Type
REMARK                         _______ _______ _______ _____ _____    ______ ____
ROOT
ATOM      1  C   UNL     1       4.797   4.114  -0.022  0.00  0.00    +0.136 C 
ENDROOT
BRANCH   1   2
ATOM      2  C   UNL     1       3.521   3.317  -0.109  0.00  0.00    +0.021 A 
ATOM      3  C   UNL     1       3.579   1.926  -0.080  0.00  0.00    +0.010 A 
ATOM      4  C   UNL     1       2.444   1.176  -0.157  0.00  0.00    +0.010 A 
ATOM      5  C   UNL     1       1.196   1.811  -0.267  0.00  0.00    +0.004 A 
ATOM      6  C   UNL     1       0.002   1.071  -0.349  0.00  0.00    +0.012 A 
ATOM      7  C   UNL     1      -1.174   1.755  -0.460  0.00  0.00    +0.023 A 
ATOM      8  C   UNL     1      -1.169   3.148  -0.480  0.00  0.00    +0.039 A 
ATOM      9  N   UNL     1      -0.054   3.834  -0.403  0.00  0.00    -0.248 NA
ATOM     10  C   UNL     1       1.130   3.226  -0.297  0.00  0.00    +0.113 A 
ATOM     11  C   UNL     1       2.326   3.969  -0.216  0.00  0.00    +0.148 A 
ATOM     12  C   UNL     1      -2.478   3.886  -0.599  0.00  0.00    +0.065 C 
BRANCH  11  13
ATOM     13  O   UNL     1       2.290   5.327  -0.242  0.00  0.00    -0.504 OA
ATOM     14  H   UNL     1       2.350   5.705  -1.131  0.00  0.00    +0.292 HD
ENDBRANCH  11  13
ENDBRANCH   1   2
BRANCH   1  17
ATOM     15  C   UNL     1       5.618   6.003  -3.189  0.00  0.00    +0.162 A 
ATOM     16  C   UNL     1       5.166   5.711  -1.912  0.00  0.00    +0.055 A 
ATOM     17  C   UNL     1       5.289   4.429  -1.411  0.00  0.00    -0.019 A 
ATOM     18  C   UNL     1       5.867   3.436  -2.180  0.00  0.00    +0.009 A 
ATOM     19  C   UNL     1       6.314   3.718  -3.457  0.00  0.00    +0.050 A 
ATOM     20  C   UNL     1       6.194   5.002  -3.965  0.00  0.00    +0.162 A 
BRANCH  20  21
ATOM     21  O   UNL     1       6.640   5.282  -5.219  0.00  0.00    -0.491 OA
ATOM     22  C   UNL     1       7.220   4.206  -5.957  0.00  0.00    +0.277 C 
ENDBRANCH  20  21
BRANCH  15  23
ATOM     23  O   UNL     1       5.497   7.264  -3.683  0.00  0.00    -0.489 OA
BRANCH  23  25
ATOM     24  C   UNL     1       4.847   9.588  -3.554  0.00  0.00    +0.048 C 
ATOM     25  C   UNL     1       4.895   8.240  -2.831  0.00  0.00    +0.226 C 
ENDBRANCH  23  25
ENDBRANCH  15  23
ENDBRANCH   1  17
BRANCH   1  26
ATOM     26  N   UNL     1       5.812   3.334   0.691  0.00  0.00    -0.320 N 
ATOM     27  H   UNL     1       6.487   2.846   0.193  0.00  0.00    +0.148 HD
BRANCH  26  28
ATOM     28  C   UNL     1       5.809   3.294   2.080  0.00  0.00    +0.097 A 
ATOM     29  C   UNL     1       4.906   4.078   2.791  0.00  0.00    +0.041 A 
ATOM     30  C   UNL     1       4.914   4.028   4.173  0.00  0.00    +0.005 A 
ATOM     31  C   UNL     1       5.829   3.192   4.801  0.00  0.00    +0.018 A 
ATOM     32  C   UNL     1       6.696   2.442   4.033  0.00  0.00    +0.084 A 
ATOM     33  N   UNL     1       6.713   2.461   2.673  0.00  0.00    -0.350 N 
ATOM     34  H   UNL     1       7.364   1.885   2.128  0.00  0.00    +0.166 HD
ENDBRANCH  26  28
ENDBRANCH   1  26
TORSDOF 8
