REMARK  Name = ZINC13627697
REMARK  5 active torsions:
REMARK  status: ('A' for Active; 'I' for Inactive)
REMARK    1  A    between atoms: C_1  and  C_2
REMARK    2  A    between atoms: C_12  and  C_13
REMARK    3  A    between atoms: C_13  and  C_14
REMARK    4  A    between atoms: N_16  and  C_17
REMARK    5  A    between atoms: C_27  and  C_28
REMARK                            x       y       z     vdW  Elec       q    Type
REMARK                         _______ _______ _______ _____ _____    ______ ____
ROOT
ATOM      1  C   UNL     1       2.418  -4.614  -0.045  0.00  0.00    +0.045 C 
ATOM      2  C   UNL     1       0.988  -4.139  -0.029  0.00  0.00    -0.029 A 
ATOM      3  C   UNL     1       0.671  -2.708  -0.018  0.00  0.00    +0.022 A 
ATOM      4  C   UNL     1       1.686  -1.751  -0.023  0.00  0.00    +0.024 A 
ATOM      5  C   UNL     1       1.352  -0.406  -0.013  0.00  0.00    +0.029 A 
ATOM      6  C   UNL     1       0.002  -0.004   0.002  0.00  0.00    +0.139 A 
ATOM      7  C   UNL     1      -1.003  -0.961   0.007  0.00  0.00    +0.093 A 
ATOM      8  C   UNL     1      -0.681  -2.307  -0.003  0.00  0.00    +0.143 A 
ATOM      9  O   UNL     1      -1.657  -3.243   0.001  0.00  0.00    -0.422 OA
ATOM     10  C   UNL     1      -1.371  -4.554  -0.009  0.00  0.00    +0.341 A 
ATOM     11  O   UNL     1      -2.284  -5.359  -0.004  0.00  0.00    -0.245 OA
ATOM     12  C   UNL     1      -0.041  -5.024  -0.024  0.00  0.00    +0.049 A 
ATOM     13  O   UNL     1      -0.016   1.345   0.009  0.00  0.00    -0.462 OA
ATOM     14  C   UNL     1       1.230   1.848   0.000  0.00  0.00    +0.204 A 
ATOM     15  C   UNL     1       2.135   0.845  -0.014  0.00  0.00    +0.028 A 
ENDROOT
BRANCH  15  16
ATOM     16  C   UNL     1       3.612   0.975  -0.028  0.00  0.00    -0.014 A 
ATOM     17  C   UNL     1       4.386   0.263   0.887  0.00  0.00    +0.010 A 
ATOM     18  C   UNL     1       5.760   0.383   0.866  0.00  0.00    +0.020 A 
ATOM     19  C   UNL     1       6.370   1.217  -0.055  0.00  0.00    +0.041 A 
ATOM     20  C   UNL     1       5.606   1.930  -0.963  0.00  0.00    +0.020 A 
ATOM     21  C   UNL     1       4.232   1.813  -0.954  0.00  0.00    +0.010 A 
ATOM     22 CL   UNL     1       8.100   1.369  -0.072  0.00  0.00    -0.084 Cl
ENDBRANCH  15  16
BRANCH  12  23
ATOM     23  C   UNL     1       0.237  -6.505  -0.035  0.00  0.00    +0.138 C 
BRANCH  23  24
ATOM     24  C   UNL     1       0.316  -6.991  -1.460  0.00  0.00    +0.218 C 
ATOM     25  O   UNL     1       0.162  -6.211  -2.375  0.00  0.00    -0.275 OA
ATOM     26  N   UNL     1       0.557  -8.292  -1.716  0.00  0.00    -0.307 N 
ATOM     27  H   UNL     1       0.681  -8.916  -0.983  0.00  0.00    +0.149 HD
BRANCH  26  28
ATOM     28  C   UNL     1       0.634  -8.764  -3.100  0.00  0.00    +0.119 C 
ATOM     29  C   UNL     1       1.559 -10.009  -3.166  0.00  0.00    +0.197 C 
ATOM     30  S   UNL     1       0.657 -10.959  -4.462  0.00  0.00    -0.008 S 
ATOM     31  O   UNL     1       0.467 -12.310  -4.065  0.00  0.00    -0.170 OA
ATOM     32  O   UNL     1       1.125 -10.625  -5.761  0.00  0.00    -0.170 OA
ATOM     33  C   UNL     1      -0.938 -10.175  -4.301  0.00  0.00    +0.132 C 
ATOM     34  C   UNL     1      -0.740  -9.101  -3.583  0.00  0.00    +0.015 C 
ENDBRANCH  26  28
ENDBRANCH  23  24
ENDBRANCH  12  23
TORSDOF 4
