REMARK  Name = ZINC12245001
REMARK  7 active torsions:
REMARK  status: ('A' for Active; 'I' for Inactive)
REMARK    1  A    between atoms: C_4  and  C_22
REMARK    2  A    between atoms: C_5  and  O_14
REMARK    3  A    between atoms: O_14  and  C_15
REMARK    4  A    between atoms: C_15  and  C_16
REMARK    5  A    between atoms: C_22  and  N_64
REMARK    6  A    between atoms: C_23  and  C_24
REMARK    7  A    between atoms: C_23  and  N_64
REMARK                            x       y       z     vdW  Elec       q    Type
REMARK                         _______ _______ _______ _____ _____    ______ ____
ROOT
ATOM      1  C   UNL     1      -4.233  -1.690  -2.612  0.00  0.00    +0.014 A 
ATOM      2  C   UNL     1      -3.824  -0.615  -1.811  0.00  0.00    +0.001 A 
ATOM      3  C   UNL     1      -2.513  -0.102  -1.883  0.00  0.00    +0.017 A 
ATOM      4  C   UNL     1      -2.186   0.947  -1.076  0.00  0.00    -0.002 A 
ATOM      5  C   UNL     1      -3.142   1.481  -0.203  0.00  0.00    +0.217 A 
ATOM      6  N   UNL     1      -4.365   1.001  -0.144  0.00  0.00    -0.213 NA
ATOM      7  C   UNL     1      -4.745  -0.028  -0.910  0.00  0.00    +0.075 A 
ATOM      8  C   UNL     1      -6.050  -0.541  -0.838  0.00  0.00    +0.032 A 
ATOM      9  C   UNL     1      -6.418  -1.590  -1.631  0.00  0.00    -0.042 A 
ATOM     10  C   UNL     1      -5.509  -2.165  -2.519  0.00  0.00    -0.043 A 
ATOM     11  C   UNL     1      -6.180  -3.298  -3.267  0.00  0.00    +0.036 C 
ATOM     12  C   UNL     1      -7.694  -3.074  -3.071  0.00  0.00    +0.009 C 
ATOM     13  C   UNL     1      -7.748  -2.307  -1.733  0.00  0.00    +0.036 C 
ENDROOT
BRANCH   5  14
ATOM     14  O   UNL     1      -2.799   2.522   0.596  0.00  0.00    -0.476 OA
BRANCH  14  15
ATOM     15  C   UNL     1      -3.811   3.030   1.468  0.00  0.00    +0.234 C 
BRANCH  15  16
ATOM     16  C   UNL     1      -3.243   4.192   2.285  0.00  0.00    +0.027 C 
ATOM     17  C   UNL     1      -2.136   3.675   3.206  0.00  0.00    +0.007 C 
ATOM     18  C   UNL     1      -1.569   4.838   4.023  0.00  0.00    +0.000 C 
ATOM     19  C   UNL     1      -2.683   5.462   4.865  0.00  0.00    +0.000 C 
ATOM     20  C   UNL     1      -3.790   5.979   3.944  0.00  0.00    +0.000 C 
ATOM     21  C   UNL     1      -4.358   4.816   3.127  0.00  0.00    +0.007 C 
ENDBRANCH  15  16
ENDBRANCH  14  15
ENDBRANCH   5  14
BRANCH   4  22
ATOM     22  C   UNL     1      -0.795   1.527  -1.120  0.00  0.00    -0.041 C 
BRANCH  22  23
ATOM     23  N   UNL     1      -0.015   0.998   0.015  0.00  0.00    +0.382 N 
ATOM     24  H   UNL     1       0.032  -0.025  -0.054  0.00  0.00    -0.085 HD
ATOM     25  H   UNL     1      -0.475   1.261   0.894  0.00  0.00    -0.085 HD
BRANCH  23  26
ATOM     26  C   UNL     1       1.353   1.550  -0.003  0.00  0.00    -0.077 C 
BRANCH  26  27
ATOM     27  C   UNL     1       2.136   0.985   1.184  0.00  0.00    -0.006 C 
ATOM     28  C   UNL     1       1.534   1.504   2.499  0.00  0.00    +0.026 C 
ATOM     29  C   UNL     1       2.497   1.207   3.674  0.00  0.00    +0.166 C 
ATOM     30  S   UNL     1       4.143   1.195   2.854  0.00  0.00    -0.031 S 
ATOM     31  O   UNL     1       4.711  -0.101   2.977  0.00  0.00    -0.174 OA
ATOM     32  O   UNL     1       4.884   2.328   3.288  0.00  0.00    -0.174 OA
ATOM     33  C   UNL     1       3.616   1.457   1.108  0.00  0.00    +0.167 C 
ENDBRANCH  26  27
ENDBRANCH  23  26
ENDBRANCH  22  23
ENDBRANCH   4  22
TORSDOF 7
