REMARK  Name = ZINC36484913
REMARK  8 active torsions:
REMARK  status: ('A' for Active; 'I' for Inactive)
REMARK    1  A    between atoms: C_4  and  C_7
REMARK    2  A    between atoms: C_7  and  C_9
REMARK    3  A    between atoms: C_7  and  N_18
REMARK    4  A    between atoms: N_11  and  C_12
REMARK    5  A    between atoms: N_18  and  C_19
REMARK    6  A    between atoms: C_26  and  C_28
REMARK    7  A    between atoms: C_29  and  O_35
REMARK    8  A    between atoms: C_33  and  O_34
REMARK                            x       y       z     vdW  Elec       q    Type
REMARK                         _______ _______ _______ _____ _____    ______ ____
ROOT
ATOM      1  N   UNL     1       3.348  -2.035  -0.965  0.00  0.00    -0.251 N 
ATOM      2  C   UNL     1       4.571  -2.547  -1.212  0.00  0.00    +0.259 C 
ATOM      3  O   UNL     1       5.539  -2.125  -0.610  0.00  0.00    -0.269 OA
ENDROOT
BRANCH   1   4
ATOM      4  C   UNL     1       2.249  -2.454  -1.721  0.00  0.00    +0.039 A 
ATOM      5  C   UNL     1       1.600  -3.642  -1.407  0.00  0.00    +0.023 A 
ATOM      6  C   UNL     1       0.515  -4.053  -2.155  0.00  0.00    +0.003 A 
ATOM      7  C   UNL     1       0.073  -3.285  -3.216  0.00  0.00    +0.020 A 
ATOM      8  C   UNL     1       0.717  -2.102  -3.533  0.00  0.00    +0.043 A 
ATOM      9  C   UNL     1       1.801  -1.682  -2.784  0.00  0.00    +0.043 A 
ATOM     10 CL   UNL     1       0.160  -1.140  -4.867  0.00  0.00    -0.083 Cl
ENDBRANCH   1   4
BRANCH   2  11
ATOM     11  C   UNL     1       4.733  -3.616  -2.211  0.00  0.00    +0.120 A 
ATOM     12  C   UNL     1       5.030  -3.297  -3.544  0.00  0.00    +0.133 A 
ATOM     13  C   UNL     1       5.182  -4.311  -4.476  0.00  0.00    +0.046 A 
ATOM     14  C   UNL     1       5.041  -5.633  -4.095  0.00  0.00    +0.007 A 
ATOM     15  C   UNL     1       4.748  -5.958  -2.784  0.00  0.00    +0.046 A 
ATOM     16  C   UNL     1       4.598  -4.960  -1.835  0.00  0.00    +0.133 A 
BRANCH  16  17
ATOM     17  O   UNL     1       4.316  -5.282  -0.547  0.00  0.00    -0.506 OA
ATOM     18  H   UNL     1       3.370  -5.333  -0.353  0.00  0.00    +0.292 HD
ENDBRANCH  16  17
BRANCH  12  19
ATOM     19  O   UNL     1       5.168  -2.001  -3.920  0.00  0.00    -0.506 OA
ATOM     20  H   UNL     1       6.072  -1.664  -3.846  0.00  0.00    +0.292 HD
ENDBRANCH  12  19
ENDBRANCH   2  11
BRANCH   1  21
ATOM     21  C   UNL     1       3.171  -1.041   0.096  0.00  0.00    +0.197 C 
BRANCH  21  25
ATOM     22  C   UNL     1      -0.854   0.389   0.047  0.00  0.00    +0.000 A 
ATOM     23  C   UNL     1       0.196   1.273  -0.119  0.00  0.00    +0.000 A 
ATOM     24  C   UNL     1       1.498   0.811  -0.103  0.00  0.00    +0.006 A 
ATOM     25  C   UNL     1       1.751  -0.536   0.080  0.00  0.00    -0.018 A 
ATOM     26  C   UNL     1       0.702  -1.420   0.246  0.00  0.00    +0.006 A 
ATOM     27  C   UNL     1      -0.601  -0.958   0.229  0.00  0.00    +0.000 A 
ENDBRANCH  21  25
BRANCH  21  28
ATOM     28  C   UNL     1       3.464  -1.674   1.432  0.00  0.00    +0.239 C 
ATOM     29  O   UNL     1       3.788  -2.841   1.492  0.00  0.00    -0.273 OA
ATOM     30  N   UNL     1       3.365  -0.943   2.560  0.00  0.00    -0.311 N 
ATOM     31  H   UNL     1       3.105  -0.009   2.512  0.00  0.00    +0.149 HD
BRANCH  30  32
ATOM     32  C   UNL     1       3.649  -1.558   3.859  0.00  0.00    +0.073 C 
ATOM     33  C   UNL     1       2.392  -2.259   4.377  0.00  0.00    +0.022 C 
ATOM     34  C   UNL     1       2.689  -2.902   5.734  0.00  0.00    +0.002 C 
ATOM     35  C   UNL     1       3.117  -1.820   6.728  0.00  0.00    +0.000 C 
ATOM     36  C   UNL     1       4.374  -1.119   6.209  0.00  0.00    +0.002 C 
ATOM     37  C   UNL     1       4.077  -0.476   4.853  0.00  0.00    +0.022 C 
ENDBRANCH  30  32
ENDBRANCH  21  28
ENDBRANCH   1  21
TORSDOF 8
