REMARK  Name = ZINC12375405
REMARK  6 active torsions:
REMARK  status: ('A' for Active; 'I' for Inactive)
REMARK    1  A    between atoms: C_4  and  N_11
REMARK    2  A    between atoms: C_5  and  C_7
REMARK    3  A    between atoms: C_14  and  C_21
REMARK    4  A    between atoms: C_16  and  C_19
REMARK    5  A    between atoms: C_17  and  N_18
REMARK    6  A    between atoms: C_24  and  N_26
REMARK                            x       y       z     vdW  Elec       q    Type
REMARK                         _______ _______ _______ _____ _____    ______ ____
ROOT
ATOM      1  N   UNL     1      -2.513   3.881   0.023  0.00  0.00    -0.260 N 
ATOM      2  C   UNL     1      -1.306   3.233   0.010  0.00  0.00    +0.024 C 
ATOM      3  C   UNL     1      -1.249   1.884   0.018  0.00  0.00    +0.026 C 
ATOM      4  C   UNL     1      -2.508   1.056   0.061  0.00  0.00    +0.104 C 
ATOM      5  C   UNL     1      -3.702   1.866  -0.350  0.00  0.00    +0.077 C 
ATOM      6  C   UNL     1      -3.663   3.223  -0.350  0.00  0.00    +0.107 C 
ATOM      7  C   UNL     1      -0.014   1.211   0.009  0.00  0.00    +0.162 C 
ATOM      8  O   UNL     1       0.002  -0.004   0.002  0.00  0.00    -0.292 OA
ATOM      9  C   UNL     1       1.286   1.967   0.000  0.00  0.00    +0.080 C 
ATOM     10  C   UNL     1       1.081   3.319   0.692  0.00  0.00    +0.014 C 
ATOM     11  C   UNL     1      -0.047   4.064  -0.025  0.00  0.00    +0.052 C 
ENDROOT
BRANCH   1  15
ATOM     12  C   UNL     1      -2.704   7.873   1.202  0.00  0.00    +0.001 A 
ATOM     13  C   UNL     1      -2.501   7.555  -0.128  0.00  0.00    +0.002 A 
ATOM     14  C   UNL     1      -2.437   6.233  -0.522  0.00  0.00    +0.024 A 
ATOM     15  C   UNL     1      -2.577   5.222   0.419  0.00  0.00    +0.051 A 
ATOM     16  C   UNL     1      -2.787   5.544   1.754  0.00  0.00    +0.076 A 
ATOM     17  C   UNL     1      -2.845   6.868   2.142  0.00  0.00    +0.014 A 
BRANCH  16  18
ATOM     18  C   UNL     1      -2.946   4.450   2.778  0.00  0.00    +0.419 C 
ATOM     19  F   UNL     1      -3.145   5.018   4.041  0.00  0.00    -0.166 F 
ATOM     20  F   UNL     1      -4.049   3.656   2.445  0.00  0.00    -0.166 F 
ATOM     21  F   UNL     1      -1.792   3.659   2.799  0.00  0.00    -0.166 F 
ENDBRANCH  16  18
ENDBRANCH   1  15
BRANCH   4  22
ATOM     22  C   UNL     1      -2.719   0.541   1.462  0.00  0.00    +0.005 A 
ATOM     23  C   UNL     1      -2.769  -0.740   1.902  0.00  0.00    +0.014 A 
ATOM     24  C   UNL     1      -2.971  -0.979   3.249  0.00  0.00    +0.041 A 
ATOM     25  C   UNL     1      -3.125   0.075   4.087  0.00  0.00    +0.164 A 
ATOM     26  S   UNL     1      -2.977   1.460   2.971  0.00  0.00    -0.068 S 
BRANCH  25  27
ATOM     27  N   UNL     1      -3.357   0.077   5.549  0.00  0.00    +0.063 N 
ATOM     28  O   UNL     1      -3.431  -0.977   6.155  0.00  0.00    -0.126 OA
ATOM     29  O   UNL     1      -3.473   1.132   6.146  0.00  0.00    -0.126 OA
ENDBRANCH  25  27
ENDBRANCH   4  22
BRANCH   6  30
ATOM     30  N   UNL     1      -4.774   3.941  -0.724  0.00  0.00    -0.345 N 
ATOM     31  H   UNL     1      -4.747   4.911  -0.724  0.00  0.00    +0.144 HD
ATOM     32  H   UNL     1      -5.585   3.479  -0.987  0.00  0.00    +0.144 HD
ENDBRANCH   6  30
BRANCH   5  33
ATOM     33  C   UNL     1      -4.903   1.196  -0.749  0.00  0.00    +0.099 C 
ATOM     34  N   UNL     1      -5.856   0.664  -1.066  0.00  0.00    -0.191 NA
ENDBRANCH   5  33
TORSDOF 6
