REMARK  Name = ZINC44879797
REMARK  9 active torsions:
REMARK  status: ('A' for Active; 'I' for Inactive)
REMARK    1  A    between atoms: C_1  and  C_2
REMARK    2  A    between atoms: N_8  and  S_32
REMARK    3  A    between atoms: C_10  and  C_13
REMARK    4  A    between atoms: N_15  and  C_16
REMARK    5  A    between atoms: C_16  and  C_17
REMARK    6  A    between atoms: C_20  and  C_23
REMARK    7  A    between atoms: C_23  and  N_24
REMARK    8  A    between atoms: C_28  and  C_31
REMARK    9  A    between atoms: S_32  and  C_35
REMARK                            x       y       z     vdW  Elec       q    Type
REMARK                         _______ _______ _______ _____ _____    ______ ____
ROOT
ATOM      1  C   UNL     1      -0.018   1.503   0.010  0.00  0.00    +0.044 C 
ATOM      2  C   UNL     1       0.002  -0.004   0.002  0.00  0.00    -0.048 A 
ATOM      3  C   UNL     1       0.006  -0.688  -1.199  0.00  0.00    +0.007 A 
ATOM      4  C   UNL     1       0.024  -2.070  -1.215  0.00  0.00    +0.048 A 
ATOM      5  C   UNL     1       0.038  -2.778  -0.022  0.00  0.00    +0.144 A 
ATOM      6  C   UNL     1       0.037  -2.087   1.186  0.00  0.00    +0.093 A 
ATOM      7  C   UNL     1       0.023  -0.701   1.196  0.00  0.00    +0.031 A 
ATOM      8  N   UNL     1       0.060  -2.799   2.396  0.00  0.00    -0.195 N 
ATOM      9  C   UNL     1      -0.229  -4.242   2.346  0.00  0.00    +0.186 C 
ATOM     10  C   UNL     1       0.501  -4.820   1.125  0.00  0.00    +0.277 C 
ATOM     11  O   UNL     1       0.051  -4.137  -0.047  0.00  0.00    -0.476 OA
ENDROOT
BRANCH  10  12
ATOM     12  C   UNL     1       0.198  -6.291   1.004  0.00  0.00    +0.256 C 
ATOM     13  O   UNL     1      -0.422  -6.706   0.048  0.00  0.00    -0.272 OA
ATOM     14  N   UNL     1       0.615  -7.146   1.959  0.00  0.00    -0.308 N 
ATOM     15  H   UNL     1       1.110  -6.815   2.724  0.00  0.00    +0.149 HD
BRANCH  14  16
ATOM     16  C   UNL     1       0.320  -8.576   1.841  0.00  0.00    +0.139 C 
BRANCH  16  17
ATOM     17  C   UNL     1       0.891  -9.307   3.029  0.00  0.00    -0.030 A 
ATOM     18  C   UNL     1       2.182  -9.800   2.982  0.00  0.00    +0.005 A 
ATOM     19  C   UNL     1       2.707 -10.470   4.071  0.00  0.00    +0.002 A 
ATOM     20  C   UNL     1       1.941 -10.646   5.208  0.00  0.00    -0.064 A 
ATOM     21  C   UNL     1       0.650 -10.152   5.256  0.00  0.00    +0.002 A 
ATOM     22  C   UNL     1       0.127  -9.479   4.168  0.00  0.00    +0.005 A 
BRANCH  20  23
ATOM     23  C   UNL     1       2.512 -11.377   6.396  0.00  0.00    -0.043 C 
BRANCH  23  24
ATOM     24  N   UNL     1       3.175 -10.418   7.289  0.00  0.00    +0.383 N 
ATOM     25  C   UNL     1       4.326  -9.823   6.598  0.00  0.00    -0.078 C 
ATOM     26  C   UNL     1       4.972  -8.764   7.494  0.00  0.00    -0.018 C 
ATOM     27  C   UNL     1       5.440  -9.421   8.795  0.00  0.00    -0.001 C 
ATOM     28  C   UNL     1       4.246 -10.102   9.470  0.00  0.00    -0.031 C 
ATOM     29  C   UNL     1       3.627 -11.111   8.501  0.00  0.00    -0.075 C 
ATOM     30  C   UNL     1       4.717 -10.827  10.732  0.00  0.00    +0.005 C 
ATOM     31  H   UNL     1       2.524  -9.690   7.542  0.00  0.00    -0.081 HD
ENDBRANCH  23  24
ENDBRANCH  20  23
ENDBRANCH  16  17
ENDBRANCH  14  16
ENDBRANCH  10  12
BRANCH   8  32
ATOM     32  S   UNL     1       0.400  -2.043   3.829  0.00  0.00    +0.075 S 
ATOM     33  O   UNL     1       0.888  -3.044   4.711  0.00  0.00    -0.150 OA
ATOM     34  O   UNL     1       1.151  -0.880   3.506  0.00  0.00    -0.150 OA
BRANCH  32  35
ATOM     35  C   UNL     1      -1.130  -1.484   4.500  0.00  0.00    +0.109 A 
ATOM     36  C   UNL     1      -1.607  -0.226   4.179  0.00  0.00    +0.029 A 
ATOM     37  C   UNL     1      -2.808   0.212   4.705  0.00  0.00    +0.002 A 
ATOM     38  C   UNL     1      -3.532  -0.607   5.551  0.00  0.00    +0.000 A 
ATOM     39  C   UNL     1      -3.056  -1.864   5.871  0.00  0.00    +0.002 A 
ATOM     40  C   UNL     1      -1.857  -2.304   5.341  0.00  0.00    +0.029 A 
ENDBRANCH  32  35
ENDBRANCH   8  32
TORSDOF 7
