REMARK  Name = ZINC08016731
REMARK  6 active torsions:
REMARK  status: ('A' for Active; 'I' for Inactive)
REMARK    1  A    between atoms: C_1  and  C_2
REMARK    2  A    between atoms: C_8  and  C_10
REMARK    3  A    between atoms: N_12  and  N_13
REMARK    4  A    between atoms: N_13  and  C_14
REMARK    5  A    between atoms: C_14  and  N_16
REMARK    6  A    between atoms: N_16  and  C_17
REMARK                            x       y       z     vdW  Elec       q    Type
REMARK                         _______ _______ _______ _____ _____    ______ ____
ROOT
ATOM      1  C   UNL     1       1.920  -5.253   2.763  0.00  0.00    +0.267 C 
ATOM      2  O   UNL     1       2.864  -4.985   3.483  0.00  0.00    -0.268 OA
ATOM      3  N   UNL     1       1.530  -6.534   2.610  0.00  0.00    -0.231 N 
ATOM      4  H   UNL     1       0.778  -6.747   2.037  0.00  0.00    +0.173 HD
ENDROOT
BRANCH   1  12
ATOM      5  C   UNL     1      -0.019   1.526   0.010  0.00  0.00    +0.008 C 
ATOM      6  C   UNL     1       0.002  -0.004   0.002  0.00  0.00    -0.009 C 
ATOM      7  C   UNL     1      -1.435  -0.532   0.004  0.00  0.00    +0.009 C 
ATOM      8  C   UNL     1      -1.407  -2.041  -0.277  0.00  0.00    +0.043 C 
ATOM      9  C   UNL     1      -0.379  -2.671   0.616  0.00  0.00    -0.006 A 
ATOM     10  C   UNL     1       0.599  -2.027   1.315  0.00  0.00    -0.036 A 
ATOM     11  C   UNL     1       1.440  -2.819   2.083  0.00  0.00    +0.024 A 
ATOM     12  C   UNL     1       1.205  -4.181   2.063  0.00  0.00    +0.076 A 
ATOM     13  S   UNL     1      -0.193  -4.294   0.962  0.00  0.00    -0.088 S 
ATOM     14  C   UNL     1       0.742  -0.509   1.241  0.00  0.00    +0.039 C 
ENDBRANCH   1  12
BRANCH   3  15
ATOM     15  N   UNL     1       2.213  -7.558   3.280  0.00  0.00    -0.246 N 
ATOM     16  H   UNL     1       2.966  -7.345   3.853  0.00  0.00    +0.172 HD
BRANCH  15  17
ATOM     17  C   UNL     1       1.824  -8.839   3.127  0.00  0.00    +0.147 C 
ATOM     18  S   UNL     1       2.658 -10.091   3.945  0.00  0.00    -0.017 S 
BRANCH  17  19
ATOM     19  N   UNL     1       0.778  -9.135   2.330  0.00  0.00    -0.323 N 
ATOM     20  H   UNL     1       0.305  -8.426   1.867  0.00  0.00    +0.148 HD
BRANCH  19  21
ATOM     21  C   UNL     1       0.355 -10.528   2.164  0.00  0.00    +0.072 C 
ATOM     22  C   UNL     1       1.140 -11.185   1.010  0.00  0.00    +0.022 C 
ATOM     23  C   UNL     1       0.104 -12.108   0.323  0.00  0.00    +0.002 C 
ATOM     24  C   UNL     1      -1.198 -11.273   0.392  0.00  0.00    +0.002 C 
ATOM     25  C   UNL     1      -1.132 -10.584   1.771  0.00  0.00    +0.022 C 
ENDBRANCH  19  21
ENDBRANCH  17  19
ENDBRANCH  15  17
ENDBRANCH   3  15
TORSDOF 5
