REMARK  Name = ZINC34757961
REMARK  7 active torsions:
REMARK  status: ('A' for Active; 'I' for Inactive)
REMARK    1  A    between atoms: C_1  and  C_2
REMARK    2  A    between atoms: C_2  and  C_4
REMARK    3  A    between atoms: C_4  and  N_5
REMARK    4  A    between atoms: C_18  and  S_20
REMARK    5  A    between atoms: S_20  and  C_21
REMARK    6  A    between atoms: C_21  and  C_22
REMARK    7  A    between atoms: N_24  and  C_25
REMARK                            x       y       z     vdW  Elec       q    Type
REMARK                         _______ _______ _______ _____ _____    ______ ____
ROOT
ATOM      1  N   UNL     1      -1.025  -0.215   2.294  0.00  0.00    +0.384 N 
ATOM      2  C   UNL     1      -1.215  -0.179   3.749  0.00  0.00    -0.059 C 
ATOM      3  C   UNL     1      -2.527  -0.883   4.110  0.00  0.00    +0.088 C 
ATOM      4  N   UNL     1      -3.616  -0.263   3.340  0.00  0.00    -0.318 N 
ATOM      5  C   UNL     1      -3.439  -0.110   1.887  0.00  0.00    +0.088 C 
ATOM      6  C   UNL     1      -2.083   0.558   1.632  0.00  0.00    -0.059 C 
ATOM      7  C   UNL     1      -4.775   0.164   3.963  0.00  0.00    +0.134 A 
ATOM      8  C   UNL     1      -5.915  -0.685   4.026  0.00  0.00    +0.051 A 
ATOM      9  C   UNL     1      -6.068  -2.049   3.492  0.00  0.00    -0.025 A 
ATOM     10  C   UNL     1      -7.255  -2.645   3.682  0.00  0.00    -0.004 A 
ATOM     11  S   UNL     1      -8.233  -1.455   4.571  0.00  0.00    -0.073 S 
ATOM     12  C   UNL     1      -7.038  -0.152   4.683  0.00  0.00    +0.115 A 
ATOM     13  N   UNL     1      -7.023   1.060   5.204  0.00  0.00    -0.214 NA
ATOM     14  C   UNL     1      -5.933   1.810   5.116  0.00  0.00    +0.191 A 
ATOM     15  N   UNL     1      -4.836   1.366   4.514  0.00  0.00    -0.206 NA
ATOM     16  C   UNL     1      -7.298  -4.029   3.091  0.00  0.00    +0.043 C 
ATOM     17  C   UNL     1      -6.102  -4.071   2.115  0.00  0.00    +0.010 C 
ATOM     18  C   UNL     1      -5.159  -3.019   2.731  0.00  0.00    +0.037 C 
ATOM     19  H   UNL     1      -1.061  -1.173   1.976  0.00  0.00    -0.081 HD
ENDROOT
BRANCH   1  20
ATOM     20  C   UNL     1       0.283   0.361   1.958  0.00  0.00    -0.048 C 
BRANCH  20  22
ATOM     21  C   UNL     1       1.828  -1.734   1.761  0.00  0.00    +0.036 C 
ATOM     22  C   UNL     1       1.376  -0.512   2.519  0.00  0.00    -0.096 C 
ATOM     23  C   UNL     1       1.933  -0.209   3.665  0.00  0.00    +0.005 C 
ENDBRANCH  20  22
ENDBRANCH   1  20
BRANCH  14  24
ATOM     24  S   UNL     1      -5.937   3.426   5.819  0.00  0.00    -0.077 S 
BRANCH  24  25
ATOM     25  C   UNL     1      -7.601   3.595   6.521  0.00  0.00    +0.173 C 
BRANCH  25  26
ATOM     26  C   UNL     1      -7.740   4.951   7.163  0.00  0.00    +0.227 C 
ATOM     27  O   UNL     1      -6.809   5.728   7.147  0.00  0.00    -0.275 OA
ATOM     28  N   UNL     1      -8.900   5.301   7.753  0.00  0.00    -0.285 N 
ATOM     29  H   UNL     1      -9.619   4.655   7.832  0.00  0.00    +0.155 HD
BRANCH  28  30
ATOM     30  C   UNL     1      -9.068   6.598   8.253  0.00  0.00    +0.033 A 
ATOM     31  C   UNL     1      -9.816   6.809   9.403  0.00  0.00    +0.023 A 
ATOM     32  C   UNL     1      -9.979   8.090   9.893  0.00  0.00    +0.002 A 
ATOM     33  C   UNL     1      -9.398   9.161   9.240  0.00  0.00    +0.000 A 
ATOM     34  C   UNL     1      -8.653   8.954   8.094  0.00  0.00    +0.002 A 
ATOM     35  C   UNL     1      -8.481   7.675   7.602  0.00  0.00    +0.023 A 
ENDBRANCH  28  30
ENDBRANCH  25  26
ENDBRANCH  24  25
ENDBRANCH  14  24
TORSDOF 6
