REMARK  Name = ZINC63801442
REMARK  10 active torsions:
REMARK  status: ('A' for Active; 'I' for Inactive)
REMARK    1  A    between atoms: C_1  and  O_2
REMARK    2  A    between atoms: O_2  and  C_3
REMARK    3  A    between atoms: C_6  and  C_9
REMARK    4  A    between atoms: C_9  and  C_11
REMARK    5  A    between atoms: C_9  and  C_23
REMARK    6  A    between atoms: C_11  and  N_12
REMARK    7  A    between atoms: N_12  and  C_13
REMARK    8  A    between atoms: C_13  and  C_14
REMARK    9  A    between atoms: C_14  and  C_16
REMARK   10  A    between atoms: C_14  and  O_22
REMARK                            x       y       z     vdW  Elec       q    Type
REMARK                         _______ _______ _______ _____ _____    ______ ____
ROOT
ATOM      1  C   UNL     1      -4.981  -2.629   0.035  0.00  0.00    +0.030 C 
ENDROOT
BRANCH   1   2
ATOM      2  C   UNL     1      -5.085  -3.493   1.265  0.00  0.00    -0.036 C 
ATOM      3  C   UNL     1      -6.013  -3.404   2.245  0.00  0.00    -0.001 A 
ATOM      4  C   UNL     1      -7.158  -2.509   2.452  0.00  0.00    +0.010 A 
ATOM      5  C   UNL     1      -7.923  -2.666   3.557  0.00  0.00    +0.001 A 
ATOM      6  C   UNL     1      -7.649  -3.660   4.507  0.00  0.00    +0.002 A 
ATOM      7  C   UNL     1      -6.615  -4.519   4.386  0.00  0.00    +0.026 A 
ATOM      8  C   UNL     1      -5.746  -4.445   3.263  0.00  0.00    +0.043 A 
ATOM      9  N   UNL     1      -4.694  -5.151   2.926  0.00  0.00    -0.380 N 
ATOM     10  C   UNL     1      -4.178  -4.640   1.651  0.00  0.00    +0.145 C 
ATOM     11  H   UNL     1      -4.322  -5.889   3.432  0.00  0.00    +0.160 HD
ENDBRANCH   1   2
BRANCH   1  15
ATOM     12  C   UNL     1      -1.200  -0.637   0.010  0.00  0.00    +0.120 A 
ATOM     13  C   UNL     1      -2.375   0.101   0.019  0.00  0.00    +0.046 A 
ATOM     14  C   UNL     1      -3.596  -0.545   0.027  0.00  0.00    +0.008 A 
ATOM     15  C   UNL     1      -3.648  -1.927   0.026  0.00  0.00    -0.042 A 
ATOM     16  C   UNL     1      -2.479  -2.665   0.017  0.00  0.00    +0.008 A 
ATOM     17  C   UNL     1      -1.255  -2.024   0.003  0.00  0.00    +0.046 A 
BRANCH  12  19
ATOM     18  C   UNL     1      -0.017   1.425   0.010  0.00  0.00    +0.277 C 
ATOM     19  O   UNL     1       0.002  -0.004   0.002  0.00  0.00    -0.495 OA
ENDBRANCH  12  19
ENDBRANCH   1  15
BRANCH   1  20
ATOM     20  C   UNL     1      -5.105  -3.504  -1.214  0.00  0.00    -0.070 C 
BRANCH  20  21
ATOM     21  N   UNL     1      -6.449  -4.094  -1.267  0.00  0.00    +0.382 N 
ATOM     22  H   UNL     1      -6.601  -4.659  -0.445  0.00  0.00    -0.086 HD
ATOM     23  H   UNL     1      -7.139  -3.358  -1.302  0.00  0.00    -0.086 HD
BRANCH  21  24
ATOM     24  C   UNL     1      -6.569  -4.934  -2.467  0.00  0.00    -0.046 C 
BRANCH  24  25
ATOM     25  C   UNL     1      -7.968  -5.549  -2.522  0.00  0.00    +0.128 C 
BRANCH  25  26
ATOM     26  C   UNL     1      -8.091  -6.410  -3.752  0.00  0.00    -0.021 A 
ATOM     27  C   UNL     1      -7.665  -7.725  -3.721  0.00  0.00    +0.006 A 
ATOM     28  C   UNL     1      -7.777  -8.515  -4.850  0.00  0.00    +0.000 A 
ATOM     29  C   UNL     1      -8.316  -7.990  -6.010  0.00  0.00    +0.000 A 
ATOM     30  C   UNL     1      -8.743  -6.676  -6.041  0.00  0.00    +0.000 A 
ATOM     31  C   UNL     1      -8.634  -5.887  -4.910  0.00  0.00    +0.006 A 
ENDBRANCH  25  26
BRANCH  25  32
ATOM     32  O   UNL     1      -8.183  -6.349  -1.357  0.00  0.00    -0.389 OA
ATOM     33  H   UNL     1      -7.555  -7.077  -1.259  0.00  0.00    +0.210 HD
ENDBRANCH  25  32
ENDBRANCH  24  25
ENDBRANCH  21  24
ENDBRANCH  20  21
ENDBRANCH   1  20
TORSDOF 9
