REMARK  Name = ZINC09050827
REMARK  7 active torsions:
REMARK  status: ('A' for Active; 'I' for Inactive)
REMARK    1  A    between atoms: C_1  and  C_2
REMARK    2  A    between atoms: C_2  and  C_4
REMARK    3  A    between atoms: C_2  and  C_19
REMARK    4  A    between atoms: N_21  and  C_22
REMARK    5  A    between atoms: C_22  and  C_23
REMARK    6  A    between atoms: C_23  and  C_24
REMARK    7  A    between atoms: C_27  and  O_30
REMARK                            x       y       z     vdW  Elec       q    Type
REMARK                         _______ _______ _______ _____ _____    ______ ____
ROOT
ATOM      1  C   UNL     1      -3.362   3.483  -1.200  0.00  0.00    +0.022 C 
ATOM      2  C   UNL     1      -2.557   3.863   0.044  0.00  0.00    +0.102 C 
ENDROOT
BRANCH   2   3
ATOM      3  C   UNL     1      -1.236   3.137   0.028  0.00  0.00    -0.034 A 
ATOM      4  C   UNL     1      -1.214   1.751   0.017  0.00  0.00    +0.005 A 
ATOM      5  C   UNL     1      -0.013   1.076   0.008  0.00  0.00    +0.011 A 
ATOM      6  C   UNL     1       1.183   1.791   0.000  0.00  0.00    +0.007 A 
ATOM      7  C   UNL     1       2.603   1.393  -0.014  0.00  0.00    +0.009 A 
ATOM      8  C   UNL     1       3.253   0.162  -0.026  0.00  0.00    +0.030 A 
ATOM      9  C   UNL     1       4.631   0.115  -0.038  0.00  0.00    +0.042 A 
ATOM     10  C   UNL     1       5.370   1.290  -0.039  0.00  0.00    +0.022 A 
ATOM     11  C   UNL     1       4.739   2.514  -0.028  0.00  0.00    +0.027 A 
ATOM     12  C   UNL     1       3.349   2.581  -0.015  0.00  0.00    +0.048 A 
ATOM     13  N   UNL     1       2.468   3.649  -0.002  0.00  0.00    -0.354 N 
ATOM     14  H   UNL     1       2.729   4.583   0.001  0.00  0.00    +0.166 HD
ATOM     15  C   UNL     1       1.162   3.193   0.008  0.00  0.00    +0.048 A 
ATOM     16  C   UNL     1      -0.061   3.857   0.022  0.00  0.00    +0.030 A 
ATOM     17 CL   UNL     1       5.445  -1.419  -0.053  0.00  0.00    -0.084 Cl
ENDBRANCH   2   3
BRANCH   2  18
ATOM     18  C   UNL     1      -3.328   3.476   1.279  0.00  0.00    +0.220 C 
ATOM     19  O   UNL     1      -2.853   2.688   2.069  0.00  0.00    -0.275 OA
ATOM     20  N   UNL     1      -4.547   4.005   1.506  0.00  0.00    -0.315 N 
ATOM     21  H   UNL     1      -4.928   4.635   0.874  0.00  0.00    +0.149 HD
BRANCH  20  22
ATOM     22  C   UNL     1      -5.297   3.628   2.707  0.00  0.00    +0.109 C 
BRANCH  22  23
ATOM     23  C   UNL     1      -6.638   4.365   2.723  0.00  0.00    +0.054 C 
BRANCH  23  24
ATOM     24  C   UNL     1      -7.409   3.978   3.958  0.00  0.00    -0.046 A 
ATOM     25  C   UNL     1      -8.272   2.898   3.923  0.00  0.00    +0.007 A 
ATOM     26  C   UNL     1      -8.976   2.538   5.055  0.00  0.00    +0.045 A 
ATOM     27  C   UNL     1      -8.825   3.267   6.226  0.00  0.00    +0.117 A 
ATOM     28  C   UNL     1      -7.963   4.354   6.257  0.00  0.00    +0.045 A 
ATOM     29  C   UNL     1      -7.257   4.707   5.123  0.00  0.00    +0.007 A 
BRANCH  27  30
ATOM     30  O   UNL     1      -9.521   2.918   7.340  0.00  0.00    -0.507 OA
ATOM     31  H   UNL     1     -10.383   3.348   7.416  0.00  0.00    +0.292 HD
ENDBRANCH  27  30
ENDBRANCH  23  24
ENDBRANCH  22  23
ENDBRANCH  20  22
ENDBRANCH   2  18
TORSDOF 6
