REMARK  Name = ZINC08453804
REMARK  3 active torsions:
REMARK  status: ('A' for Active; 'I' for Inactive)
REMARK    1  A    between atoms: C_3  and  C_9
REMARK    2  A    between atoms: C_4  and  O_8
REMARK    3  A    between atoms: N_10  and  N_11
REMARK                            x       y       z     vdW  Elec       q    Type
REMARK                         _______ _______ _______ _____ _____    ______ ____
ROOT
ATOM      1  N   UNL     1       5.988   2.251  -0.044  0.00  0.00    -0.205 N 
ATOM      2  C   UNL     1       7.193   1.577  -0.059  0.00  0.00    +0.241 A 
ATOM      3  N   UNL     1       7.211   0.247  -0.071  0.00  0.00    -0.180 NA
ATOM      4  C   UNL     1       8.371  -0.401  -0.086  0.00  0.00    +0.224 A 
ATOM      5  N   UNL     1       9.513   0.279  -0.087  0.00  0.00    -0.181 NA
ATOM      6  C   UNL     1       9.496   1.608  -0.075  0.00  0.00    +0.224 A 
ATOM      7  N   UNL     1       8.336   2.257  -0.067  0.00  0.00    -0.180 NA
ATOM      8  N   UNL     1      10.682   2.314  -0.076  0.00  0.00    -0.299 N 
ATOM      9  C   UNL     1      11.926   1.579  -0.097  0.00  0.00    +0.108 C 
ATOM     10  C   UNL     1      12.377   1.279   1.354  0.00  0.00    +0.019 C 
ATOM     11  C   UNL     1      12.832   2.513   2.012  0.00  0.00    +0.002 C 
ATOM     12  C   UNL     1      11.751   3.579   2.165  0.00  0.00    +0.002 C 
ATOM     13  C   UNL     1      11.671   4.396   0.899  0.00  0.00    +0.019 C 
ATOM     14  C   UNL     1      10.627   3.789  -0.063  0.00  0.00    +0.108 C 
ATOM     15  N   UNL     1       8.390  -1.781  -0.099  0.00  0.00    -0.299 N 
ATOM     16  C   UNL     1       9.668  -2.457  -0.108  0.00  0.00    +0.108 C 
ATOM     17  C   UNL     1      10.132  -2.670  -1.570  0.00  0.00    +0.019 C 
ATOM     18  C   UNL     1       9.306  -3.697  -2.224  0.00  0.00    +0.002 C 
ATOM     19  C   UNL     1       7.830  -3.332  -2.346  0.00  0.00    +0.002 C 
ATOM     20  C   UNL     1       7.116  -3.704  -1.069  0.00  0.00    +0.019 C 
ATOM     21  C   UNL     1       7.104  -2.506  -0.096  0.00  0.00    +0.108 C 
ATOM     22  H   UNL     1       5.975   3.221  -0.039  0.00  0.00    +0.177 HD
ENDROOT
BRANCH   1  24
ATOM     23  C   UNL     1       3.652   2.168  -0.022  0.00  0.00    +0.142 C 
ATOM     24  N   UNL     1       4.785   1.534  -0.036  0.00  0.00    -0.187 NA
BRANCH  23  27
ATOM     25  C   UNL     1      -0.017   1.381   0.010  0.00  0.00    +0.016 A 
ATOM     26  C   UNL     1       1.165   2.092   0.002  0.00  0.00    +0.014 A 
ATOM     27  C   UNL     1       2.386   1.414  -0.013  0.00  0.00    +0.036 A 
ATOM     28  C   UNL     1       2.400   0.012  -0.021  0.00  0.00    +0.127 A 
ATOM     29  C   UNL     1       1.205  -0.687  -0.013  0.00  0.00    +0.061 A 
ATOM     30  C   UNL     1       0.002  -0.004   0.002  0.00  0.00    +0.021 A 
ATOM     31 BR   UNL     1      -1.625  -0.967   0.013  0.00  0.00    -0.050 Br
BRANCH  28  32
ATOM     32  O   UNL     1       3.582  -0.657  -0.036  0.00  0.00    -0.506 OA
ATOM     33  H   UNL     1       3.933  -0.856   0.843  0.00  0.00    +0.292 HD
ENDBRANCH  28  32
ENDBRANCH  23  27
ENDBRANCH   1  24
TORSDOF 3
