REMARK  Name = ZINC64407651
REMARK  7 active torsions:
REMARK  status: ('A' for Active; 'I' for Inactive)
REMARK    1  A    between atoms: C_1  and  C_2
REMARK    2  A    between atoms: C_5  and  C_8
REMARK    3  A    between atoms: N_13  and  C_16
REMARK    4  A    between atoms: C_16  and  C_17
REMARK    5  A    between atoms: N_19  and  C_20
REMARK    6  A    between atoms: C_20  and  C_21
REMARK    7  A    between atoms: C_21  and  C_22
REMARK                            x       y       z     vdW  Elec       q    Type
REMARK                         _______ _______ _______ _____ _____    ______ ____
ROOT
ATOM      1  C   UNL     1      -0.180  -8.335   1.146  0.00  0.00    +0.204 C 
ENDROOT
BRANCH   1   6
ATOM      2  C   UNL     1       0.059  -4.275  -0.021  0.00  0.00    +0.094 C 
ATOM      3  C   UNL     1      -1.351  -4.810   0.244  0.00  0.00    +0.119 C 
ATOM      4  C   UNL     1      -1.282  -6.286   0.527  0.00  0.00    +0.219 C 
ATOM      5  O   UNL     1      -2.300  -6.942   0.459  0.00  0.00    -0.275 OA
ATOM      6  N   UNL     1      -0.139  -6.900   0.850  0.00  0.00    -0.280 N 
ATOM      7  C   UNL     1       1.146  -6.214   0.923  0.00  0.00    +0.193 C 
ATOM      8  N   UNL     1       0.955  -4.764   1.039  0.00  0.00    -0.294 NA
ATOM      9  H   UNL     1       1.839  -4.278   1.019  0.00  0.00    +0.124 HD
BRANCH   2  14
ATOM     10  C   UNL     1      -0.018   1.503   0.010  0.00  0.00    +0.044 C 
ATOM     11  C   UNL     1       0.002  -0.004   0.002  0.00  0.00    -0.050 A 
ATOM     12  C   UNL     1       0.006  -0.689  -1.199  0.00  0.00    +0.003 A 
ATOM     13  C   UNL     1       0.025  -2.071  -1.206  0.00  0.00    +0.005 A 
ATOM     14  C   UNL     1       0.040  -2.768  -0.013  0.00  0.00    -0.030 A 
ATOM     15  C   UNL     1       0.037  -2.084   1.188  0.00  0.00    +0.005 A 
ATOM     16  C   UNL     1       0.023  -0.702   1.195  0.00  0.00    +0.003 A 
ENDBRANCH   2  14
ENDBRANCH   1   6
BRANCH   1  17
ATOM     17  C   UNL     1       0.038  -9.116  -0.124  0.00  0.00    +0.230 C 
ATOM     18  O   UNL     1       0.211  -8.532  -1.173  0.00  0.00    -0.274 OA
ATOM     19  N   UNL     1       0.042 -10.463  -0.095  0.00  0.00    -0.314 N 
ATOM     20  H   UNL     1      -0.096 -10.930   0.744  0.00  0.00    +0.149 HD
BRANCH  19  21
ATOM     21  C   UNL     1       0.254 -11.223  -1.329  0.00  0.00    +0.108 C 
BRANCH  21  22
ATOM     22  C   UNL     1       0.211 -12.720  -1.020  0.00  0.00    +0.052 C 
BRANCH  22  23
ATOM     23  C   UNL     1       0.429 -13.502  -2.291  0.00  0.00    -0.040 C 
ATOM     24  C   UNL     1       1.601 -14.002  -2.747  0.00  0.00    -0.001 A 
ATOM     25  C   UNL     1       2.969 -13.968  -2.218  0.00  0.00    +0.010 A 
ATOM     26  C   UNL     1       3.958 -14.572  -2.917  0.00  0.00    +0.001 A 
ATOM     27  C   UNL     1       3.708 -15.227  -4.131  0.00  0.00    +0.002 A 
ATOM     28  C   UNL     1       2.477 -15.300  -4.680  0.00  0.00    +0.026 A 
ATOM     29  C   UNL     1       1.363 -14.700  -4.030  0.00  0.00    +0.043 A 
ATOM     30  N   UNL     1       0.095 -14.634  -4.355  0.00  0.00    -0.380 N 
ATOM     31  C   UNL     1      -0.618 -13.891  -3.310  0.00  0.00    +0.144 C 
ATOM     32  H   UNL     1      -0.306 -15.016  -5.152  0.00  0.00    +0.160 HD
ENDBRANCH  22  23
ENDBRANCH  21  22
ENDBRANCH  19  21
ENDBRANCH   1  17
TORSDOF 6
