REMARK  Name = ZINC38984668
REMARK  9 active torsions:
REMARK  status: ('A' for Active; 'I' for Inactive)
REMARK    1  A    between atoms: C_1  and  C_2
REMARK    2  A    between atoms: C_4  and  C_16
REMARK    3  A    between atoms: C_6  and  C_14
REMARK    4  A    between atoms: C_7  and  N_13
REMARK    5  A    between atoms: C_19  and  O_36
REMARK    6  A    between atoms: C_20  and  C_22
REMARK    7  A    between atoms: C_22  and  N_23
REMARK    8  A    between atoms: N_26  and  C_29
REMARK    9  A    between atoms: O_36  and  C_37
REMARK                            x       y       z     vdW  Elec       q    Type
REMARK                         _______ _______ _______ _____ _____    ______ ____
ROOT
ATOM      1  C   UNL     1      -3.174  -0.592  -1.219  0.00  0.00    -0.034 A 
ATOM      2  C   UNL     1      -3.148  -1.767  -1.948  0.00  0.00    +0.008 A 
ATOM      3  C   UNL     1      -3.781  -1.834  -3.175  0.00  0.00    +0.046 A 
ATOM      4  C   UNL     1      -4.443  -0.722  -3.674  0.00  0.00    +0.121 A 
ATOM      5  C   UNL     1      -4.467   0.455  -2.941  0.00  0.00    -0.022 A 
ATOM      6  C   UNL     1      -3.838   0.516  -1.713  0.00  0.00    +0.010 A 
ENDROOT
BRANCH   1  10
ATOM      7  C   UNL     1       0.037   1.469  -0.035  0.00  0.00    +0.067 C 
ATOM      8  C   UNL     1       0.054  -0.038  -0.050  0.00  0.00    +0.066 C 
ATOM      9  C   UNL     1      -1.013  -0.799  -0.041  0.00  0.00    +0.030 C 
ATOM     10  C   UNL     1      -2.483  -0.522   0.118  0.00  0.00    +0.098 C 
ATOM     11  C   UNL     1      -3.005  -1.609   1.040  0.00  0.00    +0.097 C 
ATOM     12  C   UNL     1      -2.242  -2.663   1.396  0.00  0.00    +0.195 C 
ATOM     13  O   UNL     1      -0.966  -2.889   1.037  0.00  0.00    -0.448 OA
ATOM     14  C   UNL     1      -0.483  -2.230  -0.137  0.00  0.00    +0.343 C 
ATOM     15  N   UNL     1       0.968  -2.021  -0.098  0.00  0.00    -0.138 NA
ATOM     16  N   UNL     1       1.177  -0.801  -0.081  0.00  0.00    -0.155 NA
BRANCH  12  17
ATOM     17  N   UNL     1      -2.828  -3.600   2.210  0.00  0.00    -0.329 N 
ATOM     18  H   UNL     1      -3.747  -3.484   2.498  0.00  0.00    +0.145 HD
ATOM     19  H   UNL     1      -2.324  -4.377   2.496  0.00  0.00    +0.145 HD
ENDBRANCH  12  17
BRANCH  11  20
ATOM     20  C   UNL     1      -4.342  -1.513   1.544  0.00  0.00    +0.101 C 
ATOM     21  N   UNL     1      -5.402  -1.437   1.944  0.00  0.00    -0.191 NA
ENDBRANCH  11  20
ENDBRANCH   1  10
BRANCH   4  22
ATOM     22  O   UNL     1      -5.065  -0.785  -4.881  0.00  0.00    -0.495 OA
ATOM     23  C   UNL     1      -4.998  -2.030  -5.581  0.00  0.00    +0.277 C 
ENDBRANCH   4  22
BRANCH   5  24
ATOM     24  C   UNL     1      -5.185   1.665  -3.481  0.00  0.00    -0.039 C 
BRANCH  24  25
ATOM     25  N   UNL     1      -4.384   2.272  -4.552  0.00  0.00    +0.384 N 
ATOM     26  C   UNL     1      -3.123   2.774  -3.993  0.00  0.00    -0.059 C 
ATOM     27  C   UNL     1      -2.237   3.304  -5.125  0.00  0.00    +0.086 C 
ATOM     28  N   UNL     1      -3.003   4.303  -5.887  0.00  0.00    -0.333 N 
ATOM     29  C   UNL     1      -4.352   3.938  -6.348  0.00  0.00    +0.086 C 
ATOM     30  C   UNL     1      -5.137   3.378  -5.157  0.00  0.00    -0.059 C 
ATOM     31  H   UNL     1      -4.184   1.578  -5.256  0.00  0.00    -0.081 HD
BRANCH  28  32
ATOM     32  C   UNL     1      -2.465   5.562  -6.166  0.00  0.00    +0.030 A 
ATOM     33  C   UNL     1      -1.237   5.928  -5.629  0.00  0.00    +0.026 A 
ATOM     34  C   UNL     1      -0.707   7.173  -5.906  0.00  0.00    +0.040 A 
ATOM     35  C   UNL     1      -1.398   8.056  -6.719  0.00  0.00    +0.124 A 
ATOM     36  C   UNL     1      -2.621   7.693  -7.256  0.00  0.00    +0.040 A 
ATOM     37  C   UNL     1      -3.153   6.447  -6.985  0.00  0.00    +0.026 A 
ATOM     38  F   UNL     1      -0.877   9.273  -6.988  0.00  0.00    -0.205 F 
ENDBRANCH  28  32
ENDBRANCH  24  25
ENDBRANCH   5  24
TORSDOF 7
