REMARK  Name = ZINC63217389
REMARK  7 active torsions:
REMARK  status: ('A' for Active; 'I' for Inactive)
REMARK    1  A    between atoms: C_1  and  C_2
REMARK    2  A    between atoms: C_6  and  N_8
REMARK    3  A    between atoms: C_9  and  C_11
REMARK    4  A    between atoms: C_11  and  S_12
REMARK    5  A    between atoms: S_12  and  C_13
REMARK    6  A    between atoms: C_16  and  C_21
REMARK    7  A    between atoms: N_17  and  C_18
REMARK                            x       y       z     vdW  Elec       q    Type
REMARK                         _______ _______ _______ _____ _____    ______ ____
ROOT
ATOM      1  C   UNL     1       0.318  -2.372   7.725  0.00  0.00    +0.193 A 
ATOM      2  N   UNL     1       0.240  -3.694   7.782  0.00  0.00    -0.122 NA
ATOM      3  N   UNL     1      -0.043  -4.069   8.979  0.00  0.00    -0.129 NA
ATOM      4  C   UNL     1      -0.164  -3.007   9.763  0.00  0.00    +0.163 A 
ATOM      5  N   UNL     1       0.070  -1.895   8.976  0.00  0.00    -0.299 N 
ENDROOT
BRANCH   4   6
ATOM      6  C   UNL     1      -0.468  -3.012  11.134  0.00  0.00    +0.025 C 
ATOM      7  C   UNL     1      -0.697  -4.125  11.943  0.00  0.00    +0.006 A 
ATOM      8  C   UNL     1      -0.698  -5.511  11.679  0.00  0.00    +0.010 A 
ATOM      9  C   UNL     1      -0.959  -6.388  12.683  0.00  0.00    +0.001 A 
ATOM     10  C   UNL     1      -1.228  -5.952  13.983  0.00  0.00    +0.002 A 
ATOM     11  C   UNL     1      -1.244  -4.636  14.307  0.00  0.00    +0.026 A 
ATOM     12  C   UNL     1      -0.979  -3.661  13.311  0.00  0.00    +0.043 A 
ATOM     13  N   UNL     1      -0.935  -2.344  13.370  0.00  0.00    -0.380 N 
ATOM     14  C   UNL     1      -0.610  -1.811  12.043  0.00  0.00    +0.152 C 
ATOM     15  H   UNL     1      -1.088  -1.812  14.166  0.00  0.00    +0.160 HD
ENDBRANCH   4   6
BRANCH   5  16
ATOM     16  C   UNL     1       0.053  -0.492   9.399  0.00  0.00    +0.091 C 
ATOM     17  C   UNL     1      -0.053   0.574   8.306  0.00  0.00    +0.027 C 
ATOM     18  C   UNL     1       1.269   0.367   9.047  0.00  0.00    +0.027 C 
ENDBRANCH   5  16
BRANCH   1  19
ATOM     19  S   UNL     1       0.682  -1.410   6.295  0.00  0.00    -0.077 S 
BRANCH  19  20
ATOM     20  C   UNL     1       0.903  -2.643   4.982  0.00  0.00    +0.173 C 
BRANCH  20  22
ATOM     21  N   UNL     1       1.429  -2.664   2.565  0.00  0.00    -0.269 N 
ATOM     22  C   UNL     1       1.223  -1.944   3.686  0.00  0.00    +0.229 C 
ATOM     23  O   UNL     1       1.296  -0.734   3.651  0.00  0.00    -0.275 OA
ATOM     24  H   UNL     1       1.371  -3.631   2.593  0.00  0.00    +0.156 HD
BRANCH  21  30
ATOM     25  C   UNL     1       2.159   1.461   0.240  0.00  0.00    +0.067 C 
ATOM     26  C   UNL     1       2.082  -0.044   0.222  0.00  0.00    +0.059 A 
ATOM     27  C   UNL     1       2.304  -0.724  -0.961  0.00  0.00    +0.063 A 
ATOM     28  C   UNL     1       2.232  -2.111  -0.972  0.00  0.00    +0.045 A 
ATOM     29  C   UNL     1       1.938  -2.766   0.212  0.00  0.00    +0.082 A 
ATOM     30  C   UNL     1       1.726  -2.017   1.365  0.00  0.00    +0.144 A 
ATOM     31  N   UNL     1       1.809  -0.696   1.335  0.00  0.00    -0.234 NA
ATOM     32 CL   UNL     1       1.834  -4.498   0.258  0.00  0.00    -0.080 Cl
ATOM     33 CL   UNL     1       2.668   0.146  -2.418  0.00  0.00    -0.082 Cl
ENDBRANCH  21  30
ENDBRANCH  20  22
ENDBRANCH  19  20
ENDBRANCH   1  19
TORSDOF 6
