REMARK  Name = ZINC38680670
REMARK  9 active torsions:
REMARK  status: ('A' for Active; 'I' for Inactive)
REMARK    1  A    between atoms: C_1  and  C_2
REMARK    2  A    between atoms: C_2  and  O_3
REMARK    3  A    between atoms: O_3  and  C_4
REMARK    4  A    between atoms: C_9  and  C_10
REMARK    5  A    between atoms: C_10  and  O_12
REMARK    6  A    between atoms: O_12  and  C_13
REMARK    7  A    between atoms: C_20  and  N_34
REMARK    8  A    between atoms: C_21  and  C_32
REMARK    9  A    between atoms: C_22  and  C_24
REMARK                            x       y       z     vdW  Elec       q    Type
REMARK                         _______ _______ _______ _____ _____    ______ ____
ROOT
ATOM      1  C   UNL     1       3.151  -1.051   5.373  0.00  0.00    +0.135 A 
ATOM      2  C   UNL     1       2.904   0.296   5.144  0.00  0.00    +0.047 A 
ATOM      3  C   UNL     1       3.373   1.244   6.032  0.00  0.00    +0.012 A 
ATOM      4  C   UNL     1       4.089   0.857   7.151  0.00  0.00    +0.008 A 
ATOM      5  C   UNL     1       4.339  -0.486   7.384  0.00  0.00    +0.138 A 
ATOM      6  C   UNL     1       3.863  -1.441   6.495  0.00  0.00    +0.093 A 
ATOM      7  O   UNL     1       5.039  -0.884   8.475  0.00  0.00    -0.441 OA
ATOM      8  C   UNL     1       5.819  -0.006   9.128  0.00  0.00    +0.199 C 
ATOM      9  C   UNL     1       5.657   1.331   8.996  0.00  0.00    +0.098 C 
ATOM     10  C   UNL     1       4.591   1.907   8.107  0.00  0.00    +0.102 C 
ENDROOT
BRANCH  10  11
ATOM     11  C   UNL     1       3.446   2.398   8.955  0.00  0.00    +0.019 A 
ATOM     12  C   UNL     1       2.755   1.514   9.766  0.00  0.00    +0.129 A 
ATOM     13  C   UNL     1       1.704   1.967  10.544  0.00  0.00    +0.039 A 
ATOM     14  C   UNL     1       1.344   3.301  10.511  0.00  0.00    +0.004 A 
ATOM     15  C   UNL     1       2.034   4.184   9.701  0.00  0.00    +0.020 A 
ATOM     16  C   UNL     1       3.089   3.734   8.927  0.00  0.00    +0.048 A 
ATOM     17 CL   UNL     1       3.960   4.845   7.916  0.00  0.00    -0.083 Cl
ATOM     18  F   UNL     1       3.107   0.210   9.797  0.00  0.00    -0.205 F 
ENDBRANCH  10  11
BRANCH   8  19
ATOM     19  N   UNL     1       6.808  -0.480   9.954  0.00  0.00    -0.328 N 
ATOM     20  H   UNL     1       6.935  -1.436  10.059  0.00  0.00    +0.145 HD
ATOM     21  H   UNL     1       7.379   0.141  10.432  0.00  0.00    +0.145 HD
ENDBRANCH   8  19
BRANCH   9  22
ATOM     22  C   UNL     1       6.521   2.216   9.719  0.00  0.00    +0.101 C 
ATOM     23  N   UNL     1       7.206   2.918  10.292  0.00  0.00    -0.191 NA
ENDBRANCH   9  22
BRANCH   1  24
ATOM     24  O   UNL     1       2.690  -1.985   4.500  0.00  0.00    -0.422 OA
BRANCH  24  25
ATOM     25  C   UNL     1       1.595  -2.689   4.847  0.00  0.00    +0.348 C 
ATOM     26  O   UNL     1       1.102  -2.543   5.948  0.00  0.00    -0.244 OA
BRANCH  25  32
ATOM     27  C   UNL     1      -0.147  -4.370   4.246  0.00  0.00    +0.134 A 
ATOM     28  C   UNL     1      -0.707  -5.253   3.335  0.00  0.00    +0.046 A 
ATOM     29  C   UNL     1      -0.141  -5.411   2.086  0.00  0.00    +0.004 A 
ATOM     30  C   UNL     1       0.989  -4.692   1.732  0.00  0.00    +0.001 A 
ATOM     31  C   UNL     1       1.559  -3.810   2.624  0.00  0.00    +0.018 A 
ATOM     32  C   UNL     1       0.993  -3.635   3.890  0.00  0.00    +0.101 A 
BRANCH  27  33
ATOM     33  O   UNL     1      -0.702  -4.213   5.474  0.00  0.00    -0.491 OA
BRANCH  33  35
ATOM     34  C   UNL     1      -2.342  -4.685   7.185  0.00  0.00    +0.048 C 
ATOM     35  C   UNL     1      -1.862  -4.995   5.766  0.00  0.00    +0.226 C 
ENDBRANCH  33  35
ENDBRANCH  27  33
ENDBRANCH  25  32
ENDBRANCH  24  25
ENDBRANCH   1  24
TORSDOF 8
