REMARK  Name = ZINC37725312
REMARK  12 active torsions:
REMARK  status: ('A' for Active; 'I' for Inactive)
REMARK    1  A    between atoms: C_1  and  C_2
REMARK    2  A    between atoms: C_2  and  C_3
REMARK    3  A    between atoms: C_3  and  C_5
REMARK    4  A    between atoms: C_3  and  N_6
REMARK    5  A    between atoms: C_7  and  C_9
REMARK    6  A    between atoms: C_9  and  C_11
REMARK    7  A    between atoms: C_9  and  O_12
REMARK    8  A    between atoms: O_12  and  C_13
REMARK    9  A    between atoms: C_18  and  C_19
REMARK   10  A    between atoms: C_19  and  C_20
REMARK   11  A    between atoms: C_20  and  C_22
REMARK   12  A    between atoms: C_20  and  N_23
REMARK                            x       y       z     vdW  Elec       q    Type
REMARK                         _______ _______ _______ _____ _____    ______ ____
ROOT
ATOM      1  C   UNL     1       6.192   0.022   3.627  0.00  0.00    +0.125 A 
ATOM      2  C   UNL     1       6.932  -0.197   2.474  0.00  0.00    +0.047 A 
ATOM      3  C   UNL     1       8.255  -0.580   2.566  0.00  0.00    +0.019 A 
ATOM      4  C   UNL     1       8.844  -0.745   3.807  0.00  0.00    +0.018 A 
ATOM      5  C   UNL     1       8.108  -0.528   4.958  0.00  0.00    +0.022 A 
ATOM      6  C   UNL     1       6.785  -0.138   4.870  0.00  0.00    -0.006 A 
ATOM      7 BR   UNL     1      10.656  -1.270   3.930  0.00  0.00    -0.050 Br
ENDROOT
BRANCH   1   8
ATOM      8  O   UNL     1       4.889   0.400   3.538  0.00  0.00    -0.480 OA
BRANCH   8   9
ATOM      9  C   UNL     1       4.312   0.439   2.232  0.00  0.00    +0.255 C 
ATOM     10  C   UNL     1       4.633   1.782   1.573  0.00  0.00    +0.062 C 
BRANCH   9  12
ATOM     11  N   UNL     1       2.070   0.179   1.220  0.00  0.00    -0.310 N 
ATOM     12  C   UNL     1       2.818   0.275   2.337  0.00  0.00    +0.254 C 
ATOM     13  O   UNL     1       2.288   0.229   3.427  0.00  0.00    -0.272 OA
ATOM     14  H   UNL     1       2.494   0.216   0.348  0.00  0.00    +0.149 HD
BRANCH  11  15
ATOM     15  C   UNL     1       0.618   0.019   1.322  0.00  0.00    +0.070 C 
ATOM     16  C   UNL     1       0.279  -1.462   1.500  0.00  0.00    +0.028 C 
BRANCH  15  18
ATOM     17  C   UNL     1       0.191   2.052  -0.066  0.00  0.00    +0.005 C 
ATOM     18  C   UNL     1      -0.044   0.545   0.046  0.00  0.00    +0.018 C 
ENDBRANCH  15  18
ENDBRANCH  11  15
ENDBRANCH   9  12
ENDBRANCH   8   9
ENDBRANCH   1   8
BRANCH   6  19
ATOM     19  C   UNL     1       5.986   0.105   6.125  0.00  0.00    +0.022 C 
BRANCH  19  20
ATOM     20  C   UNL     1       5.214  -1.163   6.492  0.00  0.00    -0.074 C 
ATOM     21  C   UNL     1       4.502  -0.958   7.830  0.00  0.00    -0.014 C 
BRANCH  20  22
ATOM     22  N   UNL     1       4.221  -1.452   5.449  0.00  0.00    +0.380 N 
ATOM     23  H   UNL     1       4.691  -1.588   4.566  0.00  0.00    -0.090 HD
ATOM     24  H   UNL     1       3.712  -2.289   5.691  0.00  0.00    -0.090 HD
ATOM     25  H   UNL     1       3.579  -0.678   5.372  0.00  0.00    -0.090 HD
ENDBRANCH  20  22
ENDBRANCH  19  20
ENDBRANCH   6  19
TORSDOF 8
