REMARK  Name = ZINC39675224
REMARK  9 active torsions:
REMARK  status: ('A' for Active; 'I' for Inactive)
REMARK    1  A    between atoms: C_1  and  C_2
REMARK    2  A    between atoms: C_2  and  C_4
REMARK    3  A    between atoms: C_2  and  N_14
REMARK    4  A    between atoms: C_4  and  C_5
REMARK    5  A    between atoms: C_5  and  C_6
REMARK    6  A    between atoms: C_9  and  O_12
REMARK    7  A    between atoms: O_12  and  C_13
REMARK    8  A    between atoms: C_15  and  C_17
REMARK    9  A    between atoms: C_28  and  C_30
REMARK                            x       y       z     vdW  Elec       q    Type
REMARK                         _______ _______ _______ _____ _____    ______ ____
ROOT
ATOM      1  C   UNL     1       1.308  -1.379   3.954  0.00  0.00    +0.100 C 
ATOM      2  C   UNL     1       2.318  -0.217   4.079  0.00  0.00    +0.121 C 
ATOM      3  N   UNL     1       1.701   0.712   5.055  0.00  0.00    -0.296 N 
ATOM      4  C   UNL     1       1.094  -0.176   6.076  0.00  0.00    +0.115 C 
ATOM      5  C   UNL     1       0.509  -1.351   5.268  0.00  0.00    -0.004 C 
ATOM      6  C   UNL     1      -0.970  -1.109   4.982  0.00  0.00    -0.010 C 
ATOM      7  C   UNL     1      -1.751  -1.141   6.299  0.00  0.00    -0.082 C 
ATOM      8  N   UNL     1      -1.565  -2.444   6.949  0.00  0.00    +0.379 N 
ATOM      9  C   UNL     1      -0.153  -2.630   7.303  0.00  0.00    -0.082 C 
ATOM     10  C   UNL     1       0.696  -2.660   6.029  0.00  0.00    -0.010 C 
ATOM     11  C   UNL     1       1.694   2.059   5.023  0.00  0.00    +0.247 C 
ATOM     12  O   UNL     1       2.128   2.646   4.050  0.00  0.00    -0.270 OA
ATOM     13  H   UNL     1      -2.129  -2.486   7.784  0.00  0.00    -0.086 HD
ATOM     14  H   UNL     1      -1.851  -3.177   6.317  0.00  0.00    -0.086 HD
ENDROOT
BRANCH  11  15
ATOM     15  C   UNL     1       1.158   2.824   6.169  0.00  0.00    +0.038 A 
ATOM     16  C   UNL     1       1.066   2.227   7.428  0.00  0.00    +0.013 A 
ATOM     17  C   UNL     1       0.565   2.945   8.494  0.00  0.00    +0.002 A 
ATOM     18  C   UNL     1       0.155   4.254   8.318  0.00  0.00    +0.015 A 
ATOM     19  C   UNL     1       0.243   4.853   7.073  0.00  0.00    +0.019 A 
ATOM     20  C   UNL     1       0.749   4.147   5.999  0.00  0.00    +0.028 A 
ATOM     21 BR   UNL     1      -0.322   6.643   6.844  0.00  0.00    -0.050 Br
ENDBRANCH  11  15
BRANCH   1  23
ATOM     22  N   UNL     1      -0.207  -2.204   2.181  0.00  0.00    -0.312 N 
ATOM     23  C   UNL     1       0.392  -1.155   2.779  0.00  0.00    +0.218 C 
ATOM     24  O   UNL     1       0.194  -0.030   2.370  0.00  0.00    -0.275 OA
ATOM     25  H   UNL     1      -0.049  -3.104   2.508  0.00  0.00    +0.149 HD
BRANCH  22  27
ATOM     26  C   UNL     1      -0.270  -1.915  -0.246  0.00  0.00    +0.028 C 
ATOM     27  C   UNL     1      -1.097  -1.986   1.038  0.00  0.00    +0.070 C 
BRANCH  27  28
ATOM     28  C   UNL     1      -2.094  -3.143   0.940  0.00  0.00    +0.026 C 
BRANCH  28  29
ATOM     29  C   UNL     1      -3.005  -3.138   2.169  0.00  0.00    +0.037 C 
BRANCH  29  30
ATOM     30  C   UNL     1      -3.986  -4.278   2.072  0.00  0.00    -0.047 A 
ATOM     31  C   UNL     1      -5.205  -4.088   1.448  0.00  0.00    +0.007 A 
ATOM     32  C   UNL     1      -6.106  -5.131   1.358  0.00  0.00    +0.046 A 
ATOM     33  C   UNL     1      -5.787  -6.370   1.894  0.00  0.00    +0.120 A 
ATOM     34  C   UNL     1      -4.563  -6.558   2.520  0.00  0.00    +0.046 A 
ATOM     35  C   UNL     1      -3.663  -5.513   2.603  0.00  0.00    +0.007 A 
BRANCH  33  36
ATOM     36  O   UNL     1      -6.673  -7.397   1.808  0.00  0.00    -0.495 OA
ATOM     37  C   UNL     1      -6.277  -8.645   2.382  0.00  0.00    +0.277 C 
ENDBRANCH  33  36
ENDBRANCH  29  30
ENDBRANCH  28  29
ENDBRANCH  27  28
ENDBRANCH  22  27
ENDBRANCH   1  23
TORSDOF 7
