REMARK  Name = ZINC14198559
REMARK  4 active torsions:
REMARK  status: ('A' for Active; 'I' for Inactive)
REMARK    1  A    between atoms: C_1  and  S_2
REMARK    2  A    between atoms: S_2  and  N_5
REMARK    3  A    between atoms: C_12  and  C_14
REMARK    4  A    between atoms: C_14  and  C_16
REMARK                            x       y       z     vdW  Elec       q    Type
REMARK                         _______ _______ _______ _____ _____    ______ ____
ROOT
ATOM      1  N   UNL     1       6.734   5.123  -0.471  0.00  0.00    -0.207 N 
ATOM      2  C   UNL     1       7.914   4.260  -0.571  0.00  0.00    +0.136 C 
ATOM      3  C   UNL     1       7.370   2.824  -0.498  0.00  0.00    +0.058 C 
ATOM      4  C   UNL     1       5.873   2.993  -0.358  0.00  0.00    -0.023 A 
ATOM      5  C   UNL     1       5.584   4.353  -0.350  0.00  0.00    +0.054 A 
ATOM      6  C   UNL     1       4.252   4.768  -0.229  0.00  0.00    +0.026 A 
ATOM      7  C   UNL     1       3.243   3.842  -0.120  0.00  0.00    +0.014 A 
ATOM      8  C   UNL     1       3.545   2.477  -0.130  0.00  0.00    +0.026 A 
ATOM      9  C   UNL     1       4.876   2.066  -0.244  0.00  0.00    +0.017 A 
ENDROOT
BRANCH   1  11
ATOM     10  C   UNL     1       6.942   7.270   1.240  0.00  0.00    +0.218 C 
ATOM     11  S   UNL     1       6.767   6.779  -0.498  0.00  0.00    +0.043 S 
ATOM     12  O   UNL     1       7.946   7.106  -1.220  0.00  0.00    -0.155 OA
ATOM     13  O   UNL     1       5.488   7.159  -0.987  0.00  0.00    -0.155 OA
ENDBRANCH   1  11
BRANCH   8  14
ATOM     14  C   UNL     1       2.466   1.476  -0.013  0.00  0.00    +0.228 C 
ATOM     15  O   UNL     1       2.740   0.295   0.090  0.00  0.00    -0.283 OA
BRANCH  14  16
ATOM     16  C   UNL     1       1.062   1.907  -0.021  0.00  0.00    +0.176 A 
ATOM     17  C   UNL     1      -0.012   1.072  -0.022  0.00  0.00    +0.061 A 
ATOM     18  C   UNL     1      -1.193   1.934  -0.037  0.00  0.00    +0.022 A 
ATOM     19  C   UNL     1      -2.571   1.698  -0.035  0.00  0.00    +0.027 A 
ATOM     20  C   UNL     1      -3.438   2.753  -0.043  0.00  0.00    +0.019 A 
ATOM     21  C   UNL     1      -2.960   4.058  -0.047  0.00  0.00    +0.019 A 
ATOM     22  C   UNL     1      -1.605   4.311  -0.043  0.00  0.00    +0.048 A 
ATOM     23  C   UNL     1      -0.703   3.253  -0.034  0.00  0.00    +0.136 A 
ATOM     24  O   UNL     1       0.643   3.189  -0.029  0.00  0.00    -0.452 OA
ATOM     25 BR   UNL     1      -5.303   2.437  -0.049  0.00  0.00    -0.050 Br
ENDBRANCH  14  16
ENDBRANCH   8  14
TORSDOF 3
