REMARK  Name = ZINC36301599
REMARK  7 active torsions:
REMARK  status: ('A' for Active; 'I' for Inactive)
REMARK    1  A    between atoms: C_1  and  C_2
REMARK    2  A    between atoms: C_5  and  C_30
REMARK    3  A    between atoms: N_8  and  C_10
REMARK    4  A    between atoms: C_10  and  C_11
REMARK    5  A    between atoms: C_14  and  C_17
REMARK    6  A    between atoms: N_25  and  C_26
REMARK    7  A    between atoms: C_26  and  C_27
REMARK                            x       y       z     vdW  Elec       q    Type
REMARK                         _______ _______ _______ _____ _____    ______ ____
ROOT
ATOM      1  C   UNL     1       2.161   0.185   3.672  0.00  0.00    -0.064 A 
ATOM      2  C   UNL     1       2.538   1.458   4.063  0.00  0.00    +0.002 A 
ATOM      3  C   UNL     1       1.933   2.057   5.148  0.00  0.00    +0.012 A 
ATOM      4  C   UNL     1       0.938   1.378   5.852  0.00  0.00    +0.018 A 
ATOM      5  C   UNL     1       0.561   0.095   5.452  0.00  0.00    +0.012 A 
ATOM      6  C   UNL     1       1.171  -0.491   4.362  0.00  0.00    +0.002 A 
ENDROOT
BRANCH   4   7
ATOM      7  C   UNL     1       0.285   2.014   7.016  0.00  0.00    +0.142 A 
ATOM      8  N   UNL     1      -0.906   1.712   7.471  0.00  0.00    -0.228 NA
ATOM      9  C   UNL     1      -1.193   2.485   8.546  0.00  0.00    +0.090 A 
ATOM     10  C   UNL     1      -2.301   2.578   9.396  0.00  0.00    +0.030 A 
ATOM     11  C   UNL     1      -2.298   3.479  10.422  0.00  0.00    +0.002 A 
ATOM     12  C   UNL     1      -1.206   4.308  10.633  0.00  0.00    +0.002 A 
ATOM     13  C   UNL     1      -0.103   4.235   9.809  0.00  0.00    +0.028 A 
ATOM     14  C   UNL     1      -0.086   3.325   8.761  0.00  0.00    +0.070 A 
ATOM     15  N   UNL     1       0.836   3.004   7.784  0.00  0.00    -0.313 N 
BRANCH  15  16
ATOM     16  C   UNL     1       2.157   3.612   7.602  0.00  0.00    +0.248 C 
BRANCH  16  17
ATOM     17  C   UNL     1       2.021   4.877   6.794  0.00  0.00    +0.375 C 
ATOM     18  O   UNL     1       0.922   5.237   6.406  0.00  0.00    -0.244 OA
ATOM     19  O   UNL     1       3.009   5.540   6.528  0.00  0.00    -0.244 OA
ENDBRANCH  16  17
ENDBRANCH  15  16
ENDBRANCH   4   7
BRANCH   1  20
ATOM     20  C   UNL     1       2.827  -0.463   2.486  0.00  0.00    -0.043 C 
BRANCH  20  26
ATOM     21  C   UNL     1      -0.174   1.230   0.050  0.00  0.00    +0.005 C 
ATOM     22  C   UNL     1      -0.064  -0.295   0.099  0.00  0.00    -0.031 C 
ATOM     23  C   UNL     1       0.648  -0.797  -1.161  0.00  0.00    +0.003 C 
ATOM     24  C   UNL     1       2.075  -0.241  -1.184  0.00  0.00    -0.031 C 
ATOM     25  C   UNL     1       2.800  -0.658   0.097  0.00  0.00    -0.075 C 
ATOM     26  N   UNL     1       2.085  -0.126   1.264  0.00  0.00    +0.383 N 
ATOM     27  C   UNL     1       0.739  -0.711   1.333  0.00  0.00    -0.075 C 
ATOM     28  C   UNL     1       2.820  -0.798  -2.399  0.00  0.00    +0.005 C 
ATOM     29  H   UNL     1       2.011   0.877   1.183  0.00  0.00    -0.081 HD
ENDBRANCH  20  26
ENDBRANCH   1  20
TORSDOF 5
