REMARK  Name = ZINC29379561
REMARK  8 active torsions:
REMARK  status: ('A' for Active; 'I' for Inactive)
REMARK    1  A    between atoms: C_1  and  C_2
REMARK    2  A    between atoms: C_2  and  C_3
REMARK    3  A    between atoms: C_3  and  C_4
REMARK    4  A    between atoms: C_4  and  C_5
REMARK    5  A    between atoms: C_5  and  C_29
REMARK    6  A    between atoms: N_8  and  C_12
REMARK    7  A    between atoms: C_12  and  C_13
REMARK    8  A    between atoms: C_17  and  C_26
REMARK                            x       y       z     vdW  Elec       q    Type
REMARK                         _______ _______ _______ _____ _____    ______ ____
ROOT
ATOM      1  C   UNL     1       1.431   1.782  -0.006  0.00  0.00    +0.138 C 
ATOM      2  C   UNL     1      -0.023   1.355  -0.003  0.00  0.00    +0.251 C 
ATOM      3  O   UNL     1      -0.998   2.076  -0.010  0.00  0.00    -0.272 OA
ATOM      4  N   UNL     1      -0.008   0.007   0.004  0.00  0.00    -0.215 N 
ATOM      5  C   UNL     1       1.241  -0.472   0.005  0.00  0.00    +0.310 C 
ATOM      6  O   UNL     1       1.510  -1.657   0.011  0.00  0.00    -0.252 OA
ATOM      7  N   UNL     1       2.167   0.505  -0.000  0.00  0.00    -0.281 N 
ATOM      8  H   UNL     1       3.267   0.504  -0.001  0.00  0.00    +0.152 HD
ENDROOT
BRANCH   1   9
ATOM      9  C   UNL     1       1.750   2.571  -1.250  0.00  0.00    -0.015 A 
ATOM     10  C   UNL     1       1.608   3.946  -1.250  0.00  0.00    +0.009 A 
ATOM     11  C   UNL     1       1.905   4.671  -2.389  0.00  0.00    +0.039 A 
ATOM     12  C   UNL     1       2.334   4.019  -3.533  0.00  0.00    +0.123 A 
ATOM     13  C   UNL     1       2.470   2.641  -3.533  0.00  0.00    +0.039 A 
ATOM     14  C   UNL     1       2.177   1.918  -2.392  0.00  0.00    +0.009 A 
ATOM     15  F   UNL     1       2.619   4.726  -4.647  0.00  0.00    -0.205 F 
ENDBRANCH   1   9
BRANCH   1  16
ATOM     16  C   UNL     1       1.757   2.596   1.247  0.00  0.00    +0.040 C 
BRANCH  16  17
ATOM     17  C   UNL     1       1.596   1.712   2.486  0.00  0.00    +0.003 C 
BRANCH  17  19
ATOM     18  C   UNL     1       1.760   1.642   4.978  0.00  0.00    +0.004 C 
ATOM     19  C   UNL     1       1.921   2.526   3.740  0.00  0.00    -0.003 C 
ENDBRANCH  17  19
ENDBRANCH  16  17
ENDBRANCH   1  16
BRANCH   4  20
ATOM     20  C   UNL     1      -1.210  -0.829   0.009  0.00  0.00    +0.214 C 
BRANCH  20  21
ATOM     21  C   UNL     1      -1.623  -1.124  -1.410  0.00  0.00    +0.238 C 
ATOM     22  O   UNL     1      -1.031  -0.606  -2.334  0.00  0.00    -0.274 OA
ATOM     23  N   UNL     1      -2.650  -1.962  -1.653  0.00  0.00    -0.263 N 
ATOM     24  C   UNL     1      -3.444  -2.534  -0.553  0.00  0.00    +0.168 C 
ATOM     25  C   UNL     1      -3.696  -4.013  -0.882  0.00  0.00    +0.276 C 
ATOM     26  O   UNL     1      -4.374  -4.096  -2.137  0.00  0.00    -0.476 OA
ATOM     27  C   UNL     1      -3.861  -3.394  -3.182  0.00  0.00    +0.143 A 
ATOM     28  C   UNL     1      -3.003  -2.318  -2.967  0.00  0.00    +0.078 A 
ATOM     29  C   UNL     1      -2.496  -1.604  -4.040  0.00  0.00    +0.027 A 
ATOM     30  C   UNL     1      -2.844  -1.959  -5.330  0.00  0.00    +0.002 A 
ATOM     31  C   UNL     1      -3.697  -3.025  -5.548  0.00  0.00    +0.004 A 
ATOM     32  C   UNL     1      -4.201  -3.749  -4.479  0.00  0.00    +0.047 A 
BRANCH  25  33
ATOM     33  C   UNL     1      -4.548  -4.632   0.195  0.00  0.00    +0.253 C 
ATOM     34  O   UNL     1      -5.664  -5.029  -0.068  0.00  0.00    -0.272 OA
ATOM     35  N   UNL     1      -4.072  -4.744   1.451  0.00  0.00    -0.326 N 
ATOM     36  H   UNL     1      -4.694  -5.196   2.237  0.00  0.00    +0.145 HD
ATOM     37  H   UNL     1      -3.060  -4.384   1.690  0.00  0.00    +0.145 HD
ENDBRANCH  25  33
ENDBRANCH  20  21
ENDBRANCH   4  20
TORSDOF 7
