REMARK  Name = ZINC39443872
REMARK  7 active torsions:
REMARK  status: ('A' for Active; 'I' for Inactive)
REMARK    1  A    between atoms: C_1  and  C_2
REMARK    2  A    between atoms: C_5  and  C_17
REMARK    3  A    between atoms: C_7  and  C_16
REMARK    4  A    between atoms: N_23  and  C_24
REMARK    5  A    between atoms: C_24  and  C_25
REMARK    6  A    between atoms: C_24  and  C_26
REMARK    7  A    between atoms: C_24  and  C_27
REMARK                            x       y       z     vdW  Elec       q    Type
REMARK                         _______ _______ _______ _____ _____    ______ ____
ROOT
ATOM      1  C   UNL     1      -0.019   1.526   0.010  0.00  0.00    +0.028 C 
ATOM      2  C   UNL     1       0.002  -0.004   0.002  0.00  0.00    +0.074 C 
ATOM      3  C   UNL     1       0.754  -0.526   1.245  0.00  0.00    +0.033 C 
ATOM      4  C   UNL     1       2.180  -0.800   0.699  0.00  0.00    +0.058 C 
ATOM      5  C   UNL     1       1.873  -1.302  -0.734  0.00  0.00    +0.082 C 
ATOM      6  N   UNL     1       0.724  -0.488  -1.184  0.00  0.00    -0.294 N 
ATOM      7  C   UNL     1       0.384  -0.224  -2.498  0.00  0.00    +0.214 A 
ATOM      8  H   UNL     1      -1.323   0.959  -2.355  0.00  0.00    +0.192 HD
ATOM      9  N   UNL     1       1.024  -0.653  -3.565  0.00  0.00    -0.202 NA
ATOM     10  C   UNL     1       0.415  -0.205  -4.664  0.00  0.00    +0.246 A 
ATOM     11  N   UNL     1      -0.618   0.514  -4.318  0.00  0.00    -0.160 NA
ATOM     12  N   UNL     1      -0.666   0.514  -2.915  0.00  0.00    -0.247 N 
ATOM     13  C   UNL     1       3.079  -1.075  -1.648  0.00  0.00    +0.029 C 
ENDROOT
BRANCH   4  14
ATOM     14  C   UNL     1       2.872  -1.867   1.508  0.00  0.00    +0.056 C 
ATOM     15  N   UNL     1       3.140  -2.981   0.947  0.00  0.00    -0.155 NA
ATOM     16  N   UNL     1       3.748  -4.086   1.520  0.00  0.00    -0.127 NA
ATOM     17  C   UNL     1       3.805  -4.296   2.817  0.00  0.00    +0.176 C 
ATOM     18  S   UNL     1       3.053  -3.114   3.897  0.00  0.00    -0.083 S 
ATOM     19  C   UNL     1       3.223  -1.568   2.945  0.00  0.00    +0.130 C 
ATOM     20  N   UNL     1       4.434  -5.408   3.321  0.00  0.00    -0.318 N 
ATOM     21  H   UNL     1       4.470  -5.552   4.279  0.00  0.00    +0.148 HD
BRANCH  20  22
ATOM     22  C   UNL     1       5.051  -6.376   2.410  0.00  0.00    +0.026 C 
ATOM     23  C   UNL     1       6.135  -5.680   1.585  0.00  0.00    +0.031 C 
ATOM     24  C   UNL     1       5.678  -7.511   3.222  0.00  0.00    +0.031 C 
ATOM     25  C   UNL     1       3.985  -6.947   1.474  0.00  0.00    +0.031 C 
ENDBRANCH  20  22
ENDBRANCH   4  14
TORSDOF 2
