REMARK  Name = ZINC05993375
REMARK  7 active torsions:
REMARK  status: ('A' for Active; 'I' for Inactive)
REMARK    1  A    between atoms: C_6  and  C_7
REMARK    2  A    between atoms: N_9  and  N_10
REMARK    3  A    between atoms: C_11  and  C_13
REMARK    4  A    between atoms: C_13  and  S_14
REMARK    5  A    between atoms: S_14  and  C_15
REMARK    6  A    between atoms: C_18  and  C_21
REMARK    7  A    between atoms: N_19  and  N_20
REMARK                            x       y       z     vdW  Elec       q    Type
REMARK                         _______ _______ _______ _____ _____    ______ ____
ROOT
ATOM      1  N   UNL     1       2.366   1.217  -0.014  0.00  0.00    -0.233 N 
ATOM      2  C   UNL     1       3.524   1.907  -0.021  0.00  0.00    +0.239 C 
ATOM      3  O   UNL     1       3.508   3.120  -0.015  0.00  0.00    -0.273 OA
ATOM      4  H   UNL     1       2.379   0.247  -0.019  0.00  0.00    +0.173 HD
ENDROOT
BRANCH   1   7
ATOM      5  C   UNL     1      -0.014   1.211   0.009  0.00  0.00    +0.260 C 
ATOM      6  O   UNL     1       0.002  -0.004   0.002  0.00  0.00    -0.269 OA
ATOM      7  N   UNL     1       1.143   1.901   0.001  0.00  0.00    -0.230 N 
ATOM      8  H   UNL     1       1.130   2.871   0.007  0.00  0.00    +0.173 HD
BRANCH   5  14
ATOM      9  C   UNL     1      -1.326   3.329   0.032  0.00  0.00    +0.014 A 
ATOM     10  C   UNL     1      -2.533   3.996   0.036  0.00  0.00    +0.021 A 
ATOM     11  C   UNL     1      -3.721   3.285   0.038  0.00  0.00    +0.041 A 
ATOM     12  C   UNL     1      -3.706   1.900   0.030  0.00  0.00    +0.021 A 
ATOM     13  C   UNL     1      -2.505   1.221   0.021  0.00  0.00    +0.014 A 
ATOM     14  C   UNL     1      -1.304   1.933   0.019  0.00  0.00    +0.038 A 
ATOM     15 CL   UNL     1      -5.236   4.132   0.049  0.00  0.00    -0.084 Cl
ENDBRANCH   5  14
ENDBRANCH   1   7
BRANCH   2  16
ATOM     16  C   UNL     1       4.839   1.171  -0.038  0.00  0.00    +0.174 C 
BRANCH  16  17
ATOM     17  S   UNL     1       6.199   2.366  -0.044  0.00  0.00    -0.075 S 
BRANCH  17  18
ATOM     18  C   UNL     1       7.574   1.265  -0.064  0.00  0.00    +0.209 A 
ATOM     19  N   UNL     1       7.523  -0.047  -0.064  0.00  0.00    -0.121 NA
ATOM     20  N   UNL     1       8.714  -0.530  -0.083  0.00  0.00    -0.123 NA
ATOM     21  C   UNL     1       9.589   0.436  -0.086  0.00  0.00    +0.255 A 
ATOM     22  N   UNL     1       8.894   1.614  -0.074  0.00  0.00    -0.220 N 
BRANCH  21  23
ATOM     23  C   UNL     1      11.088   0.284  -0.101  0.00  0.00    +0.454 C 
ATOM     24  F   UNL     1      11.420  -1.029  -0.452  0.00  0.00    -0.163 F 
ATOM     25  F   UNL     1      11.637   1.169  -1.035  0.00  0.00    -0.163 F 
ATOM     26  F   UNL     1      11.598   0.570   1.170  0.00  0.00    -0.163 F 
ENDBRANCH  21  23
BRANCH  22  27
ATOM     27  N   UNL     1       9.413   2.878  -0.073  0.00  0.00    -0.295 N 
ATOM     28  H   UNL     1       9.559   3.207   0.869  0.00  0.00    +0.163 HD
ATOM     29  H   UNL     1      10.268   2.918  -0.607  0.00  0.00    +0.163 HD
ENDBRANCH  22  27
ENDBRANCH  17  18
ENDBRANCH  16  17
ENDBRANCH   2  16
TORSDOF 7
