REMARK  Name = ZINC04675476
REMARK  4 active torsions:
REMARK  status: ('A' for Active; 'I' for Inactive)
REMARK    1  A    between atoms: C_3  and  N_18
REMARK    2  A    between atoms: N_7  and  N_8
REMARK    3  A    between atoms: C_9  and  C_10
REMARK    4  A    between atoms: C_13  and  O_17
REMARK                            x       y       z     vdW  Elec       q    Type
REMARK                         _______ _______ _______ _____ _____    ______ ____
ROOT
ATOM      1  C   UNL     1      -0.058   1.103   0.279  0.00  0.00    +0.022 A 
ATOM      2  C   UNL     1      -1.221   1.858   0.356  0.00  0.00    +0.038 A 
ATOM      3  C   UNL     1      -1.148   3.213   0.086  0.00  0.00    +0.167 A 
ATOM      4  C   UNL     1       0.079   3.768  -0.264  0.00  0.00    +0.169 A 
ATOM      5  N   UNL     1       1.166   3.013  -0.332  0.00  0.00    -0.237 NA
ATOM      6  C   UNL     1       1.126   1.719  -0.074  0.00  0.00    +0.113 A 
ATOM      7  N   UNL     1       0.166   5.126  -0.544  0.00  0.00    -0.219 N 
ATOM      8  H   UNL     1      -0.641   5.658  -0.618  0.00  0.00    +0.176 HD
ENDROOT
BRANCH   3   9
ATOM      9  N   UNL     1      -2.360   4.059   0.162  0.00  0.00    +0.060 N 
ATOM     10  O   UNL     1      -2.285   5.193   0.601  0.00  0.00    -0.126 OA
ATOM     11  O   UNL     1      -3.433   3.622  -0.215  0.00  0.00    -0.126 OA
ENDBRANCH   3   9
BRANCH   7  12
ATOM     12  N   UNL     1       1.420   5.726  -0.718  0.00  0.00    -0.189 NA
ATOM     13  C   UNL     1       1.501   6.995  -0.979  0.00  0.00    +0.138 C 
BRANCH  13  14
ATOM     14  C   UNL     1       2.821   7.627  -1.163  0.00  0.00    -0.004 A 
ATOM     15  C   UNL     1       3.985   6.863  -1.050  0.00  0.00    +0.013 A 
ATOM     16  C   UNL     1       5.217   7.457  -1.226  0.00  0.00    +0.047 A 
ATOM     17  C   UNL     1       5.302   8.814  -1.506  0.00  0.00    +0.131 A 
ATOM     18  C   UNL     1       4.147   9.579  -1.615  0.00  0.00    +0.060 A 
ATOM     19  C   UNL     1       2.910   8.993  -1.444  0.00  0.00    +0.028 A 
ATOM     20 BR   UNL     1       4.271  11.427  -1.995  0.00  0.00    -0.047 Br
BRANCH  17  21
ATOM     21  O   UNL     1       6.518   9.396  -1.673  0.00  0.00    -0.506 OA
ATOM     22  H   UNL     1       6.905   9.741  -0.857  0.00  0.00    +0.292 HD
ENDBRANCH  17  21
ENDBRANCH  13  14
ENDBRANCH   7  12
TORSDOF 4
