REMARK  Name = ZINC40719523
REMARK  9 active torsions:
REMARK  status: ('A' for Active; 'I' for Inactive)
REMARK    1  A    between atoms: C_1  and  C_2
REMARK    2  A    between atoms: C_2  and  N_3
REMARK    3  A    between atoms: C_7  and  C_9
REMARK    4  A    between atoms: C_9  and  N_10
REMARK    5  A    between atoms: N_10  and  C_11
REMARK    6  A    between atoms: C_11  and  C_12
REMARK    7  A    between atoms: C_15  and  O_18
REMARK    8  A    between atoms: O_18  and  C_19
REMARK    9  A    between atoms: C_19  and  C_20
REMARK                            x       y       z     vdW  Elec       q    Type
REMARK                         _______ _______ _______ _____ _____    ______ ____
ROOT
ATOM      1  C   UNL     1      -3.782  -2.102   0.928  0.00  0.00    -0.064 A 
ATOM      2  C   UNL     1      -4.043  -0.915   1.587  0.00  0.00    +0.005 A 
ATOM      3  C   UNL     1      -5.326  -0.405   1.613  0.00  0.00    +0.046 A 
ATOM      4  C   UNL     1      -6.354  -1.085   0.976  0.00  0.00    +0.121 A 
ATOM      5  C   UNL     1      -6.090  -2.275   0.315  0.00  0.00    +0.046 A 
ATOM      6  C   UNL     1      -4.804  -2.779   0.288  0.00  0.00    +0.005 A 
ENDROOT
BRANCH   1   7
ATOM      7  C   UNL     1      -2.381  -2.657   0.902  0.00  0.00    -0.047 C 
BRANCH   7   8
ATOM      8  N   UNL     1      -1.667  -2.129  -0.268  0.00  0.00    +0.383 N 
ATOM      9  H   UNL     1      -1.629  -1.122  -0.212  0.00  0.00    -0.085 HD
ATOM     10  H   UNL     1      -2.152  -2.402  -1.109  0.00  0.00    -0.085 HD
BRANCH   8  11
ATOM     11  C   UNL     1      -0.301  -2.670  -0.293  0.00  0.00    -0.063 C 
BRANCH  11  16
ATOM     12  N   UNL     1       1.874  -2.509  -1.429  0.00  0.00    -0.301 NA
ATOM     13  C   UNL     1       2.134  -3.215  -2.702  0.00  0.00    +0.084 C 
ATOM     14  C   UNL     1       1.107  -2.623  -3.699  0.00  0.00    +0.017 C 
ATOM     15  C   UNL     1      -0.136  -2.430  -2.791  0.00  0.00    +0.018 C 
ATOM     16  C   UNL     1       0.482  -2.023  -1.437  0.00  0.00    +0.040 C 
BRANCH  12  18
ATOM     17  C   UNL     1       3.597  -3.778  -0.238  0.00  0.00    +0.020 C 
ATOM     18  C   UNL     1       2.118  -3.391  -0.280  0.00  0.00    +0.081 C 
ENDBRANCH  12  18
ENDBRANCH  11  16
ENDBRANCH   8  11
ENDBRANCH   7   8
ENDBRANCH   1   7
BRANCH   4  19
ATOM     19  O   UNL     1      -7.618  -0.585   1.000  0.00  0.00    -0.487 OA
BRANCH  19  20
ATOM     20  C   UNL     1      -8.626  -1.338   0.323  0.00  0.00    +0.267 C 
BRANCH  20  21
ATOM     21  C   UNL     1      -9.952  -0.635   0.456  0.00  0.00    +0.026 A 
ATOM     22  C   UNL     1     -10.780  -0.917   1.527  0.00  0.00    +0.049 A 
ATOM     23  C   UNL     1     -11.998  -0.271   1.649  0.00  0.00    +0.020 A 
ATOM     24  C   UNL     1     -12.387   0.655   0.700  0.00  0.00    +0.003 A 
ATOM     25  C   UNL     1     -11.560   0.937  -0.371  0.00  0.00    +0.020 A 
ATOM     26  C   UNL     1     -10.340   0.297  -0.491  0.00  0.00    +0.049 A 
ATOM     27 CL   UNL     1      -9.298   0.657  -1.832  0.00  0.00    -0.083 Cl
ATOM     28 CL   UNL     1     -10.292  -2.081   2.719  0.00  0.00    -0.083 Cl
ENDBRANCH  20  21
ENDBRANCH  19  20
ENDBRANCH   4  19
TORSDOF 8
