REMARK  Name = ZINC56770985
REMARK  9 active torsions:
REMARK  status: ('A' for Active; 'I' for Inactive)
REMARK    1  A    between atoms: C_1  and  C_2
REMARK    2  A    between atoms: C_2  and  C_4
REMARK    3  A    between atoms: C_2  and  N_12
REMARK    4  A    between atoms: C_4  and  C_5
REMARK    5  A    between atoms: C_8  and  O_11
REMARK    6  A    between atoms: N_15  and  C_16
REMARK    7  A    between atoms: N_15  and  C_17
REMARK    8  A    between atoms: C_17  and  C_19
REMARK    9  A    between atoms: C_17  and  C_20
REMARK                            x       y       z     vdW  Elec       q    Type
REMARK                         _______ _______ _______ _____ _____    ______ ____
ROOT
ATOM      1  N   UNL     1      -1.115  -0.593  -0.305  0.00  0.00    -0.296 N 
ATOM      2  C   UNL     1      -1.929  -0.789  -1.361  0.00  0.00    +0.303 C 
ATOM      3  O   UNL     1      -1.484  -0.723  -2.491  0.00  0.00    -0.253 OA
ATOM      4  N   UNL     1      -3.235  -1.057  -1.166  0.00  0.00    -0.282 N 
ATOM      5  C   UNL     1      -3.771  -1.137   0.195  0.00  0.00    +0.134 C 
ATOM      6  H   UNL     1      -1.470  -0.645   0.597  0.00  0.00    +0.151 HD
ENDROOT
BRANCH   1   8
ATOM      7  C   UNL     1       0.487   1.200  -0.750  0.00  0.00    +0.028 C 
ATOM      8  C   UNL     1       0.304  -0.301  -0.517  0.00  0.00    +0.076 C 
BRANCH   8   9
ATOM      9  C   UNL     1       1.103  -0.727   0.717  0.00  0.00    +0.057 C 
BRANCH   9  10
ATOM     10  C   UNL     1       1.023  -2.223   0.875  0.00  0.00    -0.045 A 
ATOM     11  C   UNL     1       0.003  -2.785   1.620  0.00  0.00    +0.007 A 
ATOM     12  C   UNL     1      -0.073  -4.157   1.766  0.00  0.00    +0.045 A 
ATOM     13  C   UNL     1       0.876  -4.971   1.165  0.00  0.00    +0.117 A 
ATOM     14  C   UNL     1       1.899  -4.405   0.418  0.00  0.00    +0.045 A 
ATOM     15  C   UNL     1       1.967  -3.033   0.270  0.00  0.00    +0.007 A 
BRANCH  13  16
ATOM     16  O   UNL     1       0.805  -6.320   1.309  0.00  0.00    -0.507 OA
ATOM     17  H   UNL     1       0.282  -6.761   0.625  0.00  0.00    +0.292 HD
ENDBRANCH  13  16
ENDBRANCH   9  10
ENDBRANCH   8   9
ENDBRANCH   1   8
BRANCH   4  18
ATOM     18  C   UNL     1      -4.119  -1.270  -2.315  0.00  0.00    +0.106 C 
ATOM     19  C   UNL     1      -4.628  -2.713  -2.306  0.00  0.00    +0.033 C 
BRANCH  18  20
ATOM     20  C   UNL     1      -5.288  -0.324  -2.231  0.00  0.00    -0.009 A 
ATOM     21  C   UNL     1      -6.527  -0.789  -1.829  0.00  0.00    +0.007 A 
ATOM     22  C   UNL     1      -7.599   0.079  -1.752  0.00  0.00    +0.000 A 
ATOM     23  C   UNL     1      -7.435   1.412  -2.077  0.00  0.00    +0.001 A 
ATOM     24  C   UNL     1      -6.198   1.879  -2.478  0.00  0.00    +0.020 A 
ATOM     25  C   UNL     1      -5.122   1.012  -2.550  0.00  0.00    +0.046 A 
ATOM     26 CL   UNL     1      -3.566   1.598  -3.048  0.00  0.00    -0.083 Cl
ENDBRANCH  18  20
ENDBRANCH   4  18
TORSDOF 6
