REMARK  Name = ZINC26379056
REMARK  8 active torsions:
REMARK  status: ('A' for Active; 'I' for Inactive)
REMARK    1  A    between atoms: C_1  and  C_2
REMARK    2  A    between atoms: C_2  and  C_4
REMARK    3  A    between atoms: C_2  and  N_14
REMARK    4  A    between atoms: C_8  and  N_10
REMARK    5  A    between atoms: C_11  and  C_13
REMARK    6  A    between atoms: N_17  and  C_18
REMARK    7  A    between atoms: N_17  and  C_19
REMARK    8  A    between atoms: C_19  and  C_20
REMARK                            x       y       z     vdW  Elec       q    Type
REMARK                         _______ _______ _______ _____ _____    ______ ____
ROOT
ATOM      1  C   UNL     1      -6.549   1.696  -1.811  0.00  0.00    +0.033 C 
ATOM      2  C   UNL     1      -6.090   1.681  -0.352  0.00  0.00    +0.102 C 
ENDROOT
BRANCH   2   3
ATOM      3  C   UNL     1      -4.752   0.994  -0.254  0.00  0.00    -0.026 A 
ATOM      4  C   UNL     1      -4.684  -0.388  -0.253  0.00  0.00    +0.005 A 
ATOM      5  C   UNL     1      -3.458  -1.022  -0.163  0.00  0.00    +0.002 A 
ATOM      6  C   UNL     1      -2.298  -0.278  -0.079  0.00  0.00    +0.023 A 
ATOM      7  C   UNL     1      -2.364   1.109  -0.073  0.00  0.00    +0.034 A 
ATOM      8  C   UNL     1      -3.596   1.744  -0.164  0.00  0.00    +0.028 A 
BRANCH   7   9
ATOM      9  N   UNL     1      -1.191   1.867   0.018  0.00  0.00    -0.286 N 
ATOM     10  C   UNL     1      -0.146   1.407   0.735  0.00  0.00    +0.214 C 
ATOM     11  O   UNL     1      -0.256   0.386   1.380  0.00  0.00    -0.276 OA
ATOM     12  C   UNL     1       1.159   2.160   0.732  0.00  0.00    +0.109 C 
ATOM     13  H   UNL     1      -1.121   2.837  -0.496  0.00  0.00    +0.155 HD
ENDBRANCH   7   9
ENDBRANCH   2   3
BRANCH   2  14
ATOM     14  N   UNL     1      -7.071   0.959   0.462  0.00  0.00    -0.293 N 
ATOM     15  C   UNL     1      -8.152   1.604   0.944  0.00  0.00    +0.303 C 
ATOM     16  O   UNL     1      -8.312   2.785   0.704  0.00  0.00    -0.253 OA
ATOM     17  N   UNL     1      -9.054   0.939   1.693  0.00  0.00    -0.284 N 
ATOM     18  C   UNL     1      -8.860  -0.484   1.982  0.00  0.00    +0.134 C 
ATOM     19  H   UNL     1      -6.925  -0.110   0.679  0.00  0.00    +0.151 HD
BRANCH  17  20
ATOM     20  C   UNL     1     -10.229   1.640   2.217  0.00  0.00    +0.151 C 
BRANCH  20  21
ATOM     21  C   UNL     1     -11.357   1.543   1.222  0.00  0.00    +0.009 A 
ATOM     22  C   UNL     1     -12.322   0.597   1.117  0.00  0.00    +0.014 A 
ATOM     23  C   UNL     1     -13.268   0.712   0.115  0.00  0.00    +0.028 A 
ATOM     24  C   UNL     1     -13.200   1.768  -0.734  0.00  0.00    +0.078 A 
ATOM     25  S   UNL     1     -11.773   2.647  -0.118  0.00  0.00    -0.080 S 
ATOM     26 CL   UNL     1     -14.236   2.167  -2.068  0.00  0.00    -0.076 Cl
ENDBRANCH  20  21
ENDBRANCH  17  20
ENDBRANCH   2  14
TORSDOF 5
