REMARK  Name = ZINC49150053
REMARK  6 active torsions:
REMARK  status: ('A' for Active; 'I' for Inactive)
REMARK    1  A    between atoms: C_1  and  C_2
REMARK    2  A    between atoms: C_2  and  C_3
REMARK    3  A    between atoms: C_4  and  C_20
REMARK    4  A    between atoms: N_8  and  S_9
REMARK    5  A    between atoms: S_9  and  C_12
REMARK    6  A    between atoms: C_16  and  N_18
REMARK                            x       y       z     vdW  Elec       q    Type
REMARK                         _______ _______ _______ _____ _____    ______ ____
ROOT
ATOM      1  S   UNL     1       1.268  -1.814  -5.918  0.00  0.00    +0.101 S 
ATOM      2  O   UNL     1       2.220  -0.783  -6.141  0.00  0.00    -0.146 OA
ATOM      3  O   UNL     1       1.646  -3.132  -5.545  0.00  0.00    -0.146 OA
ENDROOT
BRANCH   1   9
ATOM      4  C   UNL     1       0.707  -0.490  -1.238  0.00  0.00    +0.027 A 
ATOM      5  C   UNL     1       2.004  -0.794  -1.188  0.00  0.00    +0.009 A 
ATOM      6  S   UNL     1       2.336  -1.301  -2.868  0.00  0.00    -0.053 S 
ATOM      7  C   UNL     1       0.690  -1.065  -3.523  0.00  0.00    +0.192 A 
ATOM      8  N   UNL     1       0.015  -0.623  -2.406  0.00  0.00    -0.336 N 
ATOM      9  N   UNL     1       0.244  -1.265  -4.739  0.00  0.00    -0.103 NA
ATOM     10  C   UNL     1       2.949  -0.726  -0.016  0.00  0.00    +0.053 C 
ATOM     11  H   UNL     1      -0.929  -0.408  -2.450  0.00  0.00    +0.168 HD
BRANCH   4  13
ATOM     12  C   UNL     1      -0.019   1.526   0.010  0.00  0.00    +0.010 C 
ATOM     13  C   UNL     1       0.002  -0.004   0.002  0.00  0.00    +0.050 C 
ENDBRANCH   4  13
ENDBRANCH   1   9
BRANCH   1  14
ATOM     14  C   UNL     1       0.327  -1.960  -7.400  0.00  0.00    +0.114 A 
ATOM     15  C   UNL     1      -0.323  -3.146  -7.691  0.00  0.00    +0.030 A 
ATOM     16  C   UNL     1      -1.062  -3.265  -8.853  0.00  0.00    +0.024 A 
ATOM     17  C   UNL     1      -1.155  -2.199  -9.728  0.00  0.00    +0.062 A 
ATOM     18  C   UNL     1      -0.503  -1.006  -9.438  0.00  0.00    +0.045 A 
ATOM     19  C   UNL     1       0.234  -0.889  -8.266  0.00  0.00    +0.053 A 
ATOM     20 CL   UNL     1      -2.082  -2.349 -11.187  0.00  0.00    -0.082 Cl
BRANCH  18  21
ATOM     21  N   UNL     1      -0.594   0.074 -10.319  0.00  0.00    -0.357 N 
ATOM     22  H   UNL     1      -1.112  -0.008 -11.135  0.00  0.00    +0.142 HD
ATOM     23  H   UNL     1      -0.138   0.906 -10.116  0.00  0.00    +0.142 HD
ENDBRANCH  18  21
ENDBRANCH   1  14
TORSDOF 4
