REMARK  Name = ZINC59385405
REMARK  11 active torsions:
REMARK  status: ('A' for Active; 'I' for Inactive)
REMARK    1  A    between atoms: C_1  and  C_2
REMARK    2  A    between atoms: C_2  and  O_3
REMARK    3  A    between atoms: O_3  and  C_4
REMARK    4  A    between atoms: C_7  and  C_10
REMARK    5  A    between atoms: C_12  and  C_19
REMARK    6  A    between atoms: C_13  and  C_18
REMARK    7  A    between atoms: N_21  and  N_22
REMARK    8  A    between atoms: C_23  and  C_24
REMARK    9  A    between atoms: C_27  and  C_30
REMARK   10  A    between atoms: C_30  and  O_32
REMARK   11  A    between atoms: O_32  and  C_33
REMARK                            x       y       z     vdW  Elec       q    Type
REMARK                         _______ _______ _______ _____ _____    ______ ____
ROOT
ATOM      1  C   UNL     1       1.276  -5.997  -1.753  0.00  0.00    +0.139 C 
ATOM      2  C   UNL     1       2.686  -6.507  -1.535  0.00  0.00    +0.057 C 
ATOM      3  C   UNL     1       3.317  -7.077  -2.584  0.00  0.00    +0.017 C 
ATOM      4  N   UNL     1       2.704  -7.190  -3.799  0.00  0.00    -0.300 N 
ATOM      5  C   UNL     1       1.462  -6.757  -4.047  0.00  0.00    +0.135 C 
ATOM      6  S   UNL     1       0.812  -6.961  -5.617  0.00  0.00    -0.019 S 
ATOM      7  N   UNL     1       0.707  -6.166  -3.100  0.00  0.00    -0.315 N 
ATOM      8  C   UNL     1       4.721  -7.598  -2.410  0.00  0.00    +0.061 C 
ATOM      9  H   UNL     1       3.196  -7.607  -4.523  0.00  0.00    +0.154 HD
ATOM     10  H   UNL     1      -0.192  -5.860  -3.302  0.00  0.00    +0.149 HD
ENDROOT
BRANCH   1  14
ATOM     11  C   UNL     1       1.224  -1.828  -0.815  0.00  0.00    +0.121 A 
ATOM     12  C   UNL     1       0.814  -2.758   0.130  0.00  0.00    +0.046 A 
ATOM     13  C   UNL     1       0.832  -4.105  -0.176  0.00  0.00    +0.009 A 
ATOM     14  C   UNL     1       1.257  -4.527  -1.422  0.00  0.00    -0.022 A 
ATOM     15  C   UNL     1       1.667  -3.602  -2.365  0.00  0.00    +0.009 A 
ATOM     16  C   UNL     1       1.645  -2.253  -2.066  0.00  0.00    +0.046 A 
BRANCH  11  17
ATOM     17  O   UNL     1       1.207  -0.502  -0.516  0.00  0.00    -0.492 OA
BRANCH  17  19
ATOM     18  C   UNL     1       0.812   1.385   0.941  0.00  0.00    +0.048 C 
ATOM     19  C   UNL     1       0.761  -0.137   0.791  0.00  0.00    +0.225 C 
ENDBRANCH  17  19
ENDBRANCH  11  17
ENDBRANCH   1  14
BRANCH   2  20
ATOM     20  C   UNL     1       3.320  -6.389  -0.275  0.00  0.00    +0.263 C 
ATOM     21  O   UNL     1       3.071  -7.189   0.610  0.00  0.00    -0.269 OA
ATOM     22  N   UNL     1       4.200  -5.393  -0.053  0.00  0.00    -0.203 N 
ATOM     23  H   UNL     1       4.452  -4.799  -0.778  0.00  0.00    +0.178 HD
BRANCH  22  24
ATOM     24  N   UNL     1       4.751  -5.215   1.222  0.00  0.00    -0.187 NA
ATOM     25  C   UNL     1       5.599  -4.254   1.435  0.00  0.00    +0.138 C 
BRANCH  25  26
ATOM     26  C   UNL     1       6.178  -4.067   2.777  0.00  0.00    -0.005 A 
ATOM     27  C   UNL     1       5.819  -4.927   3.820  0.00  0.00    +0.010 A 
ATOM     28  C   UNL     1       6.356  -4.754   5.063  0.00  0.00    +0.015 A 
ATOM     29  C   UNL     1       7.265  -3.716   5.294  0.00  0.00    +0.059 A 
ATOM     30  C   UNL     1       7.624  -2.856   4.251  0.00  0.00    +0.015 A 
ATOM     31  C   UNL     1       7.091  -3.033   3.006  0.00  0.00    +0.010 A 
BRANCH  29  32
ATOM     32  C   UNL     1       7.845  -3.529   6.637  0.00  0.00    +0.339 C 
ATOM     33  O   UNL     1       7.533  -4.276   7.543  0.00  0.00    -0.245 OA
BRANCH  32  34
ATOM     34  O   UNL     1       8.720  -2.529   6.860  0.00  0.00    -0.464 OA
ATOM     35  C   UNL     1       9.242  -2.407   8.184  0.00  0.00    +0.280 C 
ENDBRANCH  32  34
ENDBRANCH  29  32
ENDBRANCH  25  26
ENDBRANCH  22  24
ENDBRANCH   2  20
TORSDOF 8
