REMARK  Name = ZINC04964304
REMARK  15 active torsions:
REMARK  status: ('A' for Active; 'I' for Inactive)
REMARK    1  A    between atoms: C_1  and  C_2
REMARK    2  A    between atoms: C_2  and  O_3
REMARK    3  A    between atoms: O_3  and  C_4
REMARK    4  A    between atoms: C_4  and  C_5
REMARK    5  A    between atoms: C_5  and  C_6
REMARK    6  A    between atoms: C_6  and  N_7
REMARK    7  A    between atoms: N_7  and  C_8
REMARK    8  A    between atoms: C_8  and  N_10
REMARK    9  A    between atoms: N_10  and  C_11
REMARK   10  A    between atoms: C_11  and  C_12
REMARK   11  A    between atoms: C_12  and  C_13
REMARK   12  A    between atoms: C_13  and  N_14
REMARK   13  A    between atoms: N_14  and  C_15
REMARK   14  A    between atoms: C_16  and  C_25
REMARK   15  A    between atoms: C_20  and  C_24
REMARK                            x       y       z     vdW  Elec       q    Type
REMARK                         _______ _______ _______ _____ _____    ______ ____
ROOT
ATOM      1  N   UNL     1      -0.011   0.966   0.007  0.00  0.00    -0.329 N 
ATOM      2  H   UNL     1       0.002  -0.004   0.002  0.00  0.00    +0.147 HD
ENDROOT
BRANCH   1   3
ATOM      3  C   UNL     1      -1.218   1.641   0.017  0.00  0.00    +0.114 A 
ATOM      4  C   UNL     1      -2.426   0.903   0.013  0.00  0.00    +0.090 A 
ATOM      5  C   UNL     1      -3.638   1.580   0.026  0.00  0.00    +0.032 A 
ATOM      6  C   UNL     1      -3.611   2.986   0.035  0.00  0.00    -0.000 A 
ATOM      7  C   UNL     1      -4.800   3.734   0.045  0.00  0.00    +0.013 A 
ATOM      8  C   UNL     1      -4.740   5.095   0.053  0.00  0.00    -0.050 A 
ATOM      9  C   UNL     1      -3.513   5.755   0.051  0.00  0.00    +0.005 A 
ATOM     10  C   UNL     1      -2.342   5.061   0.041  0.00  0.00    +0.026 A 
ATOM     11  C   UNL     1      -2.362   3.656   0.033  0.00  0.00    +0.048 A 
ATOM     12  C   UNL     1      -6.016   5.896   0.064  0.00  0.00    +0.044 C 
ATOM     13  N   UNL     1      -1.151   2.995   0.024  0.00  0.00    -0.342 N 
ATOM     14  H   UNL     1      -0.256   3.497   0.023  0.00  0.00    +0.167 HD
BRANCH   4  15
ATOM     15  C   UNL     1      -2.398  -0.529  -0.001  0.00  0.00    +0.103 C 
ATOM     16  N   UNL     1      -2.376  -1.665  -0.012  0.00  0.00    -0.191 NA
ENDBRANCH   4  15
ENDBRANCH   1   3
BRANCH   1  17
ATOM     17  C   UNL     1       1.248   1.716  -0.001  0.00  0.00    +0.104 C 
BRANCH  17  18
ATOM     18  C   UNL     1       2.424   0.737  -0.017  0.00  0.00    +0.037 C 
BRANCH  18  19
ATOM     19  C   UNL     1       3.738   1.520  -0.025  0.00  0.00    +0.105 C 
BRANCH  19  20
ATOM     20  N   UNL     1       4.864   0.583  -0.041  0.00  0.00    -0.327 N 
ATOM     21  H   UNL     1       4.700  -0.372  -0.045  0.00  0.00    +0.148 HD
BRANCH  20  22
ATOM     22  C   UNL     1       6.129   1.050  -0.051  0.00  0.00    +0.130 C 
ATOM     23  S   UNL     1       6.419   2.737  -0.044  0.00  0.00    -0.019 S 
BRANCH  22  24
ATOM     24  N   UNL     1       7.165   0.188  -0.065  0.00  0.00    -0.327 N 
ATOM     25  H   UNL     1       7.001  -0.768  -0.069  0.00  0.00    +0.148 HD
BRANCH  24  26
ATOM     26  C   UNL     1       8.540   0.695  -0.076  0.00  0.00    +0.105 C 
BRANCH  26  27
ATOM     27  C   UNL     1       9.517  -0.481  -0.091  0.00  0.00    +0.047 C 
BRANCH  27  28
ATOM     28  C   UNL     1      10.953   0.048  -0.102  0.00  0.00    +0.161 C 
BRANCH  28  29
ATOM     29  O   UNL     1      11.866  -1.051  -0.117  0.00  0.00    -0.380 OA
BRANCH  29  31
ATOM     30  C   UNL     1      14.123  -1.914  -0.143  0.00  0.00    +0.034 C 
ATOM     31  C   UNL     1      13.241  -0.664  -0.128  0.00  0.00    +0.156 C 
ENDBRANCH  29  31
ENDBRANCH  28  29
ENDBRANCH  27  28
ENDBRANCH  26  27
ENDBRANCH  24  26
ENDBRANCH  22  24
ENDBRANCH  20  22
ENDBRANCH  19  20
ENDBRANCH  18  19
ENDBRANCH  17  18
ENDBRANCH   1  17
TORSDOF 13
