REMARK  Name = ZINC39671575
REMARK  8 active torsions:
REMARK  status: ('A' for Active; 'I' for Inactive)
REMARK    1  A    between atoms: C_1  and  C_2
REMARK    2  A    between atoms: C_2  and  C_3
REMARK    3  A    between atoms: C_3  and  C_5
REMARK    4  A    between atoms: C_3  and  C_6
REMARK    5  A    between atoms: C_6  and  C_7
REMARK    6  A    between atoms: C_11  and  C_20
REMARK    7  A    between atoms: N_22  and  C_23
REMARK    8  A    between atoms: C_23  and  C_24
REMARK                            x       y       z     vdW  Elec       q    Type
REMARK                         _______ _______ _______ _____ _____    ______ ____
ROOT
ATOM      1  C   UNL     1       1.779  -2.509  -2.498  0.00  0.00    +0.216 C 
ATOM      2  O   UNL     1       2.176  -1.736  -3.344  0.00  0.00    -0.276 OA
ATOM      3  N   UNL     1       1.977  -3.833  -2.648  0.00  0.00    -0.300 N 
ATOM      4  C   UNL     1       1.562  -4.924  -1.734  0.00  0.00    +0.121 C 
ATOM      5  C   UNL     1       1.094  -6.061  -2.670  0.00  0.00    +0.100 C 
ATOM      6  C   UNL     1       1.819  -5.797  -4.000  0.00  0.00    -0.004 C 
ATOM      7  C   UNL     1       2.654  -4.529  -3.769  0.00  0.00    +0.115 C 
ATOM      8  C   UNL     1       2.727  -6.973  -4.349  0.00  0.00    -0.010 C 
ATOM      9  C   UNL     1       3.391  -6.713  -5.704  0.00  0.00    -0.082 C 
ATOM     10  N   UNL     1       2.359  -6.545  -6.734  0.00  0.00    +0.379 N 
ATOM     11  C   UNL     1       1.548  -5.357  -6.439  0.00  0.00    -0.082 C 
ATOM     12  C   UNL     1       0.805  -5.559  -5.115  0.00  0.00    -0.010 C 
ATOM     13  H   UNL     1       2.799  -6.435  -7.635  0.00  0.00    -0.086 HD
ATOM     14  H   UNL     1       1.765  -7.360  -6.750  0.00  0.00    -0.086 HD
ENDROOT
BRANCH   5  15
ATOM     15  C   UNL     1       1.494  -7.401  -2.108  0.00  0.00    +0.219 C 
ATOM     16  O   UNL     1       2.500  -7.501  -1.438  0.00  0.00    -0.275 OA
ATOM     17  N   UNL     1       0.734  -8.487  -2.350  0.00  0.00    -0.309 N 
ATOM     18  H   UNL     1      -0.071  -8.406  -2.886  0.00  0.00    +0.149 HD
BRANCH  17  19
ATOM     19  C   UNL     1       1.123  -9.790  -1.804  0.00  0.00    +0.157 C 
BRANCH  19  20
ATOM     20  C   UNL     1       0.113 -10.829  -2.217  0.00  0.00    +0.034 A 
ATOM     21  H   UNL     1      -1.355 -10.646  -0.751  0.00  0.00    +0.166 HD
ATOM     22  C   UNL     1       0.228 -11.633  -3.286  0.00  0.00    +0.032 A 
ATOM     23  C   UNL     1      -0.965 -12.482  -3.314  0.00  0.00    -0.000 A 
ATOM     24  C   UNL     1      -1.416 -13.495  -4.162  0.00  0.00    +0.010 A 
ATOM     25  C   UNL     1      -2.609 -14.111  -3.909  0.00  0.00    +0.001 A 
ATOM     26  C   UNL     1      -3.377 -13.737  -2.816  0.00  0.00    +0.002 A 
ATOM     27  C   UNL     1      -2.952 -12.740  -1.966  0.00  0.00    +0.026 A 
ATOM     28  C   UNL     1      -1.741 -12.099  -2.204  0.00  0.00    +0.047 A 
ATOM     29  N   UNL     1      -1.054 -11.097  -1.555  0.00  0.00    -0.357 N 
ENDBRANCH  19  20
ENDBRANCH  17  19
ENDBRANCH   5  15
BRANCH   1  30
ATOM     30  C   UNL     1       1.063  -1.988  -1.278  0.00  0.00    +0.099 C 
BRANCH  30  31
ATOM     31  C   UNL     1       0.971  -0.463  -1.353  0.00  0.00    -0.006 C 
ATOM     32  C   UNL     1       0.092  -0.062  -2.540  0.00  0.00    +0.008 C 
BRANCH  31  34
ATOM     33  C   UNL     1       0.379   1.606  -0.083  0.00  0.00    +0.004 C 
ATOM     34  C   UNL     1       0.357   0.076  -0.060  0.00  0.00    +0.000 C 
ENDBRANCH  31  34
ENDBRANCH  30  31
ENDBRANCH   1  30
TORSDOF 6
