REMARK  Name = ZINC23484632
REMARK  7 active torsions:
REMARK  status: ('A' for Active; 'I' for Inactive)
REMARK    1  A    between atoms: C_1  and  C_2
REMARK    2  A    between atoms: C_2  and  N_3
REMARK    3  A    between atoms: C_13  and  S_16
REMARK    4  A    between atoms: S_16  and  C_17
REMARK    5  A    between atoms: C_17  and  C_19
REMARK    6  A    between atoms: C_17  and  C_20
REMARK    7  A    between atoms: C_26  and  C_31
REMARK                            x       y       z     vdW  Elec       q    Type
REMARK                         _______ _______ _______ _____ _____    ______ ____
ROOT
ATOM      1  C   UNL     1      -2.960  -1.488   6.393  0.00  0.00    +0.117 C 
ATOM      2  C   UNL     1      -2.124  -0.490   7.197  0.00  0.00    +0.027 C 
ENDROOT
BRANCH   1   3
ATOM      3  C   UNL     1      -4.346  -1.569   6.980  0.00  0.00    +0.124 A 
ATOM      4  N   UNL     1      -4.631  -2.541   7.885  0.00  0.00    -0.309 N 
ATOM      5  H   UNL     1      -3.938  -3.170   8.141  0.00  0.00    +0.170 HD
ATOM      6  C   UNL     1      -5.855  -2.649   8.433  0.00  0.00    +0.260 A 
ATOM      7  O   UNL     1      -6.095  -3.527   9.244  0.00  0.00    -0.267 OA
ATOM      8  C   UNL     1      -6.871  -1.717   8.050  0.00  0.00    +0.080 A 
ATOM      9  C   UNL     1      -8.257  -1.626   8.498  0.00  0.00    +0.010 A 
ATOM     10  C   UNL     1      -9.043  -0.645   7.988  0.00  0.00    +0.057 A 
ATOM     11  S   UNL     1      -7.954   0.217   6.871  0.00  0.00    -0.076 S 
ATOM     12  C   UNL     1      -6.485  -0.748   7.110  0.00  0.00    +0.116 A 
ATOM     13  N   UNL     1      -5.250  -0.701   6.615  0.00  0.00    -0.225 NA
BRANCH   9  14
ATOM     14  C   UNL     1      -8.793  -2.585   9.486  0.00  0.00    +0.021 A 
ATOM     15  C   UNL     1      -9.492  -2.337  10.637  0.00  0.00    +0.016 A 
ATOM     16  C   UNL     1      -9.895  -3.406  11.410  0.00  0.00    +0.008 A 
ATOM     17  C   UNL     1      -9.589  -4.665  11.008  0.00  0.00    +0.046 A 
ATOM     18  S   UNL     1      -8.707  -4.368   9.485  0.00  0.00    -0.097 S 
ENDBRANCH   9  14
ENDBRANCH   1   3
BRANCH   1  19
ATOM     19  S   UNL     1      -3.067  -0.936   4.668  0.00  0.00    -0.073 S 
BRANCH  19  30
ATOM     20  N   UNL     1       0.711  -0.489   1.189  0.00  0.00    -0.324 N 
ATOM     21  C   UNL     1       2.074  -0.730   1.253  0.00  0.00    +0.053 A 
ATOM     22  C   UNL     1       3.092  -0.601   0.314  0.00  0.00    +0.026 A 
ATOM     23  C   UNL     1       4.390  -0.916   0.655  0.00  0.00    +0.002 A 
ATOM     24  C   UNL     1       4.694  -1.364   1.931  0.00  0.00    +0.001 A 
ATOM     25  C   UNL     1       3.699  -1.499   2.875  0.00  0.00    +0.012 A 
ATOM     26  C   UNL     1       2.384  -1.183   2.544  0.00  0.00    +0.029 A 
ATOM     27  C   UNL     1       1.114  -1.211   3.291  0.00  0.00    +0.138 A 
ATOM     28  C   UNL     1       0.119  -0.765   2.397  0.00  0.00    +0.165 A 
ATOM     29  N   UNL     1      -1.135  -0.691   2.834  0.00  0.00    -0.201 NA
ATOM     30  C   UNL     1      -1.406  -1.033   4.087  0.00  0.00    +0.212 A 
ATOM     31  N   UNL     1      -0.450  -1.447   4.912  0.00  0.00    -0.122 NA
ATOM     32  N   UNL     1       0.777  -1.543   4.528  0.00  0.00    -0.143 NA
BRANCH  20  34
ATOM     33  C   UNL     1      -0.019   1.526   0.010  0.00  0.00    +0.027 C 
ATOM     34  C   UNL     1       0.002  -0.004   0.002  0.00  0.00    +0.120 C 
ENDBRANCH  20  34
ENDBRANCH  19  30
ENDBRANCH   1  19
TORSDOF 5
