REMARK  Name = ZINC44905535
REMARK  12 active torsions:
REMARK  status: ('A' for Active; 'I' for Inactive)
REMARK    1  A    between atoms: C_1  and  C_2
REMARK    2  A    between atoms: C_2  and  O_3
REMARK    3  A    between atoms: O_3  and  C_4
REMARK    4  A    between atoms: C_7  and  C_13
REMARK    5  A    between atoms: C_9  and  O_10
REMARK    6  A    between atoms: O_10  and  C_11
REMARK    7  A    between atoms: C_11  and  C_12
REMARK    8  A    between atoms: C_13  and  C_15
REMARK    9  A    between atoms: C_13  and  N_16
REMARK   10  A    between atoms: C_17  and  C_19
REMARK   11  A    between atoms: N_24  and  C_26
REMARK   12  A    between atoms: C_26  and  C_27
REMARK                            x       y       z     vdW  Elec       q    Type
REMARK                         _______ _______ _______ _____ _____    ______ ____
ROOT
ATOM      1  N   UNL     1      -1.237  -6.403   1.493  0.00  0.00    -0.309 N 
ATOM      2  C   UNL     1      -1.419  -7.674   1.903  0.00  0.00    +0.215 C 
ATOM      3  O   UNL     1      -2.436  -8.266   1.609  0.00  0.00    -0.276 OA
ATOM      4  H   UNL     1      -0.423  -5.929   1.728  0.00  0.00    +0.149 HD
ENDROOT
BRANCH   2   5
ATOM      5  C   UNL     1      -0.360  -8.359   2.728  0.00  0.00    +0.058 C 
ATOM      6  C   UNL     1      -0.141  -7.580   4.028  0.00  0.00    +0.009 C 
ATOM      7  C   UNL     1       0.880  -8.326   4.892  0.00  0.00    -0.018 C 
ATOM      8  C   UNL     1       0.381  -9.750   5.146  0.00  0.00    -0.078 C 
ATOM      9  N   UNL     1       0.216 -10.450   3.867  0.00  0.00    +0.383 N 
ATOM     10  C   UNL     1      -0.812  -9.782   3.061  0.00  0.00    -0.066 C 
ATOM     11  H   UNL     1       1.092 -10.443   3.365  0.00  0.00    -0.081 HD
BRANCH   9  12
ATOM     12  C   UNL     1      -0.188 -11.840   4.119  0.00  0.00    -0.042 C 
BRANCH  12  13
ATOM     13  C   UNL     1       0.933 -12.571   4.811  0.00  0.00    -0.046 A 
ATOM     14  C   UNL     1       0.867 -12.809   6.171  0.00  0.00    +0.004 A 
ATOM     15  C   UNL     1       1.895 -13.480   6.807  0.00  0.00    +0.020 A 
ATOM     16  C   UNL     1       2.991 -13.914   6.082  0.00  0.00    +0.042 A 
ATOM     17  C   UNL     1       3.057 -13.677   4.721  0.00  0.00    +0.040 A 
ATOM     18  C   UNL     1       2.026 -13.009   4.085  0.00  0.00    +0.044 A 
ATOM     19 CL   UNL     1       2.106 -12.716   2.375  0.00  0.00    -0.083 Cl
ATOM     20 CL   UNL     1       4.282 -14.756   6.881  0.00  0.00    -0.083 Cl
ENDBRANCH  12  13
ENDBRANCH   9  12
ENDBRANCH   2   5
BRANCH   1  21
ATOM     21  C   UNL     1      -2.267  -5.737   0.692  0.00  0.00    +0.100 C 
ATOM     22  C   UNL     1      -2.070  -6.087  -0.785  0.00  0.00    +0.033 C 
BRANCH  21  26
ATOM     23  C   UNL     1      -1.951  -1.503   1.205  0.00  0.00    +0.162 A 
ATOM     24  C   UNL     1      -0.807  -2.278   1.097  0.00  0.00    +0.050 A 
ATOM     25  C   UNL     1      -0.912  -3.647   0.932  0.00  0.00    +0.009 A 
ATOM     26  C   UNL     1      -2.157  -4.245   0.873  0.00  0.00    -0.024 A 
ATOM     27  C   UNL     1      -3.302  -3.478   0.979  0.00  0.00    +0.055 A 
ATOM     28  C   UNL     1      -3.204  -2.106   1.152  0.00  0.00    +0.162 A 
BRANCH  23  29
ATOM     29  O   UNL     1      -1.849  -0.157   1.369  0.00  0.00    -0.489 OA
BRANCH  29  31
ATOM     30  C   UNL     1      -0.616   1.909   1.602  0.00  0.00    +0.048 C 
ATOM     31  C   UNL     1      -0.530   0.393   1.415  0.00  0.00    +0.226 C 
ENDBRANCH  29  31
ENDBRANCH  23  29
BRANCH  28  32
ATOM     32  O   UNL     1      -4.329  -1.350   1.263  0.00  0.00    -0.489 OA
BRANCH  32  33
ATOM     33  C   UNL     1      -5.580  -2.037   1.199  0.00  0.00    +0.226 C 
ATOM     34  C   UNL     1      -6.723  -1.029   1.341  0.00  0.00    +0.048 C 
ENDBRANCH  32  33
ENDBRANCH  28  32
ENDBRANCH  21  26
ENDBRANCH   1  21
TORSDOF 9
