REMARK  Name = ZINC43423959
REMARK  7 active torsions:
REMARK  status: ('A' for Active; 'I' for Inactive)
REMARK    1  A    between atoms: C_1  and  C_2
REMARK    2  A    between atoms: C_2  and  C_3
REMARK    3  A    between atoms: C_3  and  C_5
REMARK    4  A    between atoms: C_3  and  N_25
REMARK    5  A    between atoms: C_5  and  C_7
REMARK    6  A    between atoms: C_5  and  N_13
REMARK    7  A    between atoms: C_10  and  C_12
REMARK                            x       y       z     vdW  Elec       q    Type
REMARK                         _______ _______ _______ _____ _____    ______ ____
ROOT
ATOM      1  C   UNL     1       0.960  -2.004  -1.148  0.00  0.00    +0.080 C 
ENDROOT
BRANCH   1   2
ATOM      2  N   UNL     1       1.762  -2.393   0.020  0.00  0.00    -0.289 NA
ATOM      3  C   UNL     1       2.828  -1.413   0.278  0.00  0.00    +0.113 C 
ATOM      4  C   UNL     1       3.669  -1.876   1.470  0.00  0.00    +0.175 C 
ATOM      5  O   UNL     1       2.820  -2.071   2.606  0.00  0.00    -0.374 OA
ATOM      6  C   UNL     1       1.780  -3.024   2.382  0.00  0.00    +0.135 C 
ATOM      7  C   UNL     1       0.914  -2.556   1.209  0.00  0.00    +0.086 C 
ATOM      8  C   UNL     1      -0.176  -3.593   0.940  0.00  0.00    +0.021 C 
ATOM      9  C   UNL     1      -1.051  -3.739   2.188  0.00  0.00    +0.002 C 
ATOM     10  C   UNL     1      -0.192  -4.189   3.370  0.00  0.00    +0.003 C 
ATOM     11  C   UNL     1       0.907  -3.155   3.630  0.00  0.00    +0.033 C 
ENDBRANCH   1   2
BRANCH   1  12
ATOM     12  C   UNL     1       1.611  -2.531  -2.401  0.00  0.00    +0.006 A 
ATOM     13  C   UNL     1       1.030  -3.022  -3.523  0.00  0.00    +0.013 A 
ATOM     14  C   UNL     1       1.834  -3.453  -4.561  0.00  0.00    +0.011 A 
ATOM     15  C   UNL     1       3.181  -3.372  -4.427  0.00  0.00    -0.013 A 
ATOM     16  S   UNL     1       3.347  -2.663  -2.797  0.00  0.00    -0.097 S 
ATOM     17  C   UNL     1       4.258  -3.771  -5.402  0.00  0.00    +0.051 C 
ENDBRANCH   1  12
BRANCH   1  18
ATOM     18  C   UNL     1       0.873  -0.479  -1.222  0.00  0.00    -0.053 C 
BRANCH  18  19
ATOM     19  N   UNL     1       0.174  -0.087  -2.453  0.00  0.00    +0.381 N 
ATOM     20  H   UNL     1      -0.757  -0.477  -2.450  0.00  0.00    -0.090 HD
ATOM     21  H   UNL     1       0.116   0.919  -2.501  0.00  0.00    -0.090 HD
ATOM     22  H   UNL     1       0.682  -0.433  -3.253  0.00  0.00    -0.090 HD
ENDBRANCH  18  19
BRANCH  18  24
ATOM     23  C   UNL     1      -0.013   1.570  -0.098  0.00  0.00    +0.002 C 
ATOM     24  C   UNL     1       0.102   0.047  -0.009  0.00  0.00    -0.018 C 
ENDBRANCH  18  24
ENDBRANCH   1  18
TORSDOF 5
