REMARK  Name = ZINC39576703
REMARK  8 active torsions:
REMARK  status: ('A' for Active; 'I' for Inactive)
REMARK    1  A    between atoms: C_9  and  O_37
REMARK    2  A    between atoms: C_10  and  C_11
REMARK    3  A    between atoms: N_12  and  N_13
REMARK    4  A    between atoms: C_14  and  C_16
REMARK    5  A    between atoms: C_19  and  C_22
REMARK    6  A    between atoms: C_27  and  O_28
REMARK    7  A    between atoms: O_28  and  C_29
REMARK    8  A    between atoms: C_29  and  C_30
REMARK                            x       y       z     vdW  Elec       q    Type
REMARK                         _______ _______ _______ _____ _____    ______ ____
ROOT
ATOM      1  C   UNL     1       9.425  -0.358  -0.364  0.00  0.00    +0.240 C 
ATOM      2  C   UNL     1       9.828   0.140  -1.741  0.00  0.00    +0.041 C 
ATOM      3  C   UNL     1      11.093  -0.301  -1.887  0.00  0.00    +0.095 C 
ATOM      4  N   UNL     1      11.485  -0.990  -0.782  0.00  0.00    -0.153 NA
ATOM      5  N   UNL     1      10.627  -1.067   0.105  0.00  0.00    -0.170 NA
ENDROOT
BRANCH   3   6
ATOM      6  C   UNL     1      11.938  -0.069  -3.083  0.00  0.00    +0.044 A 
ATOM      7  C   UNL     1      13.189  -0.673  -3.184  0.00  0.00    +0.014 A 
ATOM      8  C   UNL     1      13.971  -0.454  -4.300  0.00  0.00    +0.001 A 
ATOM      9  C   UNL     1      13.518   0.365  -5.319  0.00  0.00    +0.004 A 
ATOM     10  C   UNL     1      12.278   0.969  -5.229  0.00  0.00    +0.046 A 
ATOM     11  C   UNL     1      11.480   0.753  -4.117  0.00  0.00    +0.130 A 
BRANCH  11  12
ATOM     12  O   UNL     1      10.259   1.342  -4.030  0.00  0.00    -0.487 OA
BRANCH  12  13
ATOM     13  C   UNL     1       9.815   2.086  -5.166  0.00  0.00    +0.266 C 
BRANCH  13  14
ATOM     14  C   UNL     1       8.527   2.793  -4.832  0.00  0.00    +0.008 A 
ATOM     15  C   UNL     1       7.986   2.682  -3.564  0.00  0.00    +0.008 A 
ATOM     16  C   UNL     1       6.805   3.331  -3.257  0.00  0.00    +0.000 A 
ATOM     17  C   UNL     1       6.162   4.090  -4.218  0.00  0.00    +0.001 A 
ATOM     18  C   UNL     1       6.701   4.201  -5.485  0.00  0.00    +0.020 A 
ATOM     19  C   UNL     1       7.887   3.557  -5.792  0.00  0.00    +0.047 A 
ATOM     20 CL   UNL     1       8.569   3.702  -7.382  0.00  0.00    -0.083 Cl
ENDBRANCH  13  14
ENDBRANCH  12  13
ENDBRANCH  11  12
ENDBRANCH   3   6
BRANCH   1  22
ATOM     21  N   UNL     1       7.001  -0.813  -0.550  0.00  0.00    -0.205 N 
ATOM     22  C   UNL     1       8.254  -1.301  -0.461  0.00  0.00    +0.263 C 
ATOM     23  O   UNL     1       8.440  -2.500  -0.460  0.00  0.00    -0.271 OA
ATOM     24  H   UNL     1       6.853   0.145  -0.551  0.00  0.00    +0.177 HD
BRANCH  21  26
ATOM     25  C   UNL     1       4.704  -1.220  -0.726  0.00  0.00    +0.142 C 
ATOM     26  N   UNL     1       5.913  -1.691  -0.640  0.00  0.00    -0.188 NA
BRANCH  25  36
ATOM     27  C   UNL     1      -0.414  -0.721  -1.102  0.00  0.00    +0.001 A 
ATOM     28  C   UNL     1       0.642   0.183  -1.013  0.00  0.00    +0.001 A 
ATOM     29  C   UNL     1       1.930  -0.254  -0.922  0.00  0.00    +0.009 A 
ATOM     30  C   UNL     1       2.197  -1.628  -0.917  0.00  0.00    -0.006 A 
ATOM     31  C   UNL     1       1.125  -2.550  -1.007  0.00  0.00    -0.017 A 
ATOM     32  C   UNL     1      -0.191  -2.064  -1.100  0.00  0.00    +0.008 A 
ATOM     33  C   UNL     1       1.394  -3.929  -1.001  0.00  0.00    +0.012 A 
ATOM     34  C   UNL     1       2.670  -4.388  -0.910  0.00  0.00    +0.046 A 
ATOM     35  C   UNL     1       3.758  -3.521  -0.820  0.00  0.00    +0.126 A 
ATOM     36  C   UNL     1       3.562  -2.140  -0.820  0.00  0.00    +0.044 A 
BRANCH  35  37
ATOM     37  O   UNL     1       5.016  -4.024  -0.730  0.00  0.00    -0.506 OA
ATOM     38  H   UNL     1       5.447  -4.161  -1.585  0.00  0.00    +0.292 HD
ENDBRANCH  35  37
ENDBRANCH  25  36
ENDBRANCH  21  26
ENDBRANCH   1  22
TORSDOF 8
