REMARK  Name = ZINC06438737
REMARK  7 active torsions:
REMARK  status: ('A' for Active; 'I' for Inactive)
REMARK    1  A    between atoms: C_1  and  C_2
REMARK    2  A    between atoms: C_5  and  C_8
REMARK    3  A    between atoms: N_17  and  N_18
REMARK    4  A    between atoms: N_18  and  C_19
REMARK    5  A    between atoms: C_22  and  C_26
REMARK    6  A    between atoms: C_24  and  C_25
REMARK    7  A    between atoms: C_27  and  C_29
REMARK                            x       y       z     vdW  Elec       q    Type
REMARK                         _______ _______ _______ _____ _____    ______ ____
ROOT
ATOM      1  C   UNL     1       1.335  -4.239  -0.006  0.00  0.00    +0.080 A 
ATOM      2  C   UNL     1       0.970  -4.858   1.157  0.00  0.00    +0.077 A 
ATOM      3  S   UNL     1       0.473  -6.460   0.537  0.00  0.00    -0.058 S 
ATOM      4  C   UNL     1       0.800  -6.142  -1.191  0.00  0.00    +0.189 A 
ATOM      5  N   UNL     1       1.235  -4.896  -1.151  0.00  0.00    -0.223 NA
ATOM      6  N   UNL     1       0.635  -6.982  -2.287  0.00  0.00    -0.130 N 
ATOM      7  C   UNL     1       0.169  -8.247  -2.228  0.00  0.00    +0.294 C 
ATOM      8  O   UNL     1      -0.178  -8.854  -1.231  0.00  0.00    -0.266 OA
ATOM      9  C   UNL     1       0.166  -8.742  -3.615  0.00  0.00    +0.168 C 
ATOM     10  N   UNL     1      -0.212  -9.934  -4.043  0.00  0.00    -0.175 NA
ATOM     11  C   UNL     1       0.675  -7.620  -4.419  0.00  0.00    +0.089 C 
ATOM     12  N   UNL     1       0.921  -6.638  -3.608  0.00  0.00    -0.173 NA
ATOM     13  C   UNL     1       0.868  -7.611  -5.913  0.00  0.00    +0.070 C 
ENDROOT
BRANCH   1  18
ATOM     14  C   UNL     1       3.264   1.187   0.071  0.00  0.00    +0.044 C 
ATOM     15  C   UNL     1       2.760  -0.233   0.051  0.00  0.00    -0.050 A 
ATOM     16  C   UNL     1       2.660  -0.912  -1.151  0.00  0.00    +0.004 A 
ATOM     17  C   UNL     1       2.198  -2.212  -1.175  0.00  0.00    +0.010 A 
ATOM     18  C   UNL     1       1.832  -2.842   0.014  0.00  0.00    +0.001 A 
ATOM     19  C   UNL     1       1.935  -2.153   1.221  0.00  0.00    +0.010 A 
ATOM     20  C   UNL     1       2.403  -0.855   1.234  0.00  0.00    +0.004 A 
ENDBRANCH   1  18
BRANCH  10  21
ATOM     21  N   UNL     1      -0.276 -10.173  -5.309  0.00  0.00    -0.237 N 
ATOM     22  H   UNL     1      -0.131  -9.456  -5.947  0.00  0.00    +0.174 HD
BRANCH  21  23
ATOM     23  C   UNL     1      -0.555 -11.463  -5.761  0.00  0.00    +0.051 A 
ATOM     24  C   UNL     1      -0.769 -12.490  -4.850  0.00  0.00    +0.025 A 
ATOM     25  C   UNL     1      -1.045 -13.765  -5.301  0.00  0.00    +0.005 A 
ATOM     26  C   UNL     1      -1.109 -14.021  -6.659  0.00  0.00    -0.050 A 
ATOM     27  C   UNL     1      -0.896 -13.002  -7.569  0.00  0.00    +0.008 A 
ATOM     28  C   UNL     1      -0.625 -11.723  -7.125  0.00  0.00    -0.028 A 
ATOM     29  C   UNL     1      -0.400 -10.611  -8.118  0.00  0.00    +0.046 C 
ATOM     30  C   UNL     1      -1.409 -15.415  -7.148  0.00  0.00    +0.044 C 
ENDBRANCH  21  23
ENDBRANCH  10  21
TORSDOF 3
