REMARK  Name = ZINC35467191
REMARK  4 active torsions:
REMARK  status: ('A' for Active; 'I' for Inactive)
REMARK    1  A    between atoms: C_1  and  N_2
REMARK    2  A    between atoms: N_2  and  C_3
REMARK    3  A    between atoms: C_3  and  C_5
REMARK    4  A    between atoms: C_3  and  C_12
REMARK                            x       y       z     vdW  Elec       q    Type
REMARK                         _______ _______ _______ _____ _____    ______ ____
ROOT
ATOM      1  C   UNL     1       0.690  -0.478  -1.207  0.00  0.00    -0.009 C 
ENDROOT
BRANCH   1   2
ATOM      2  C   UNL     1       0.603  -1.981  -1.277  0.00  0.00    -0.042 A 
ATOM      3  C   UNL     1       0.326  -2.711  -0.137  0.00  0.00    +0.018 A 
ATOM      4  C   UNL     1       0.247  -4.091  -0.202  0.00  0.00    +0.018 A 
ATOM      5  C   UNL     1       0.445  -4.739  -1.408  0.00  0.00    +0.016 A 
ATOM      6  C   UNL     1       0.721  -4.008  -2.548  0.00  0.00    +0.016 A 
ATOM      7  C   UNL     1       0.795  -2.628  -2.484  0.00  0.00    +0.020 A 
ATOM      8 BR   UNL     1       1.166  -1.628  -4.045  0.00  0.00    -0.050 Br
ATOM      9 BR   UNL     1      -0.131  -5.090   1.358  0.00  0.00    -0.050 Br
ENDBRANCH   1   2
BRANCH   1  10
ATOM     10  C   UNL     1       2.137  -0.060  -1.158  0.00  0.00    -0.057 A 
ATOM     11  C   UNL     1       2.836  -0.127   0.033  0.00  0.00    +0.003 A 
ATOM     12  C   UNL     1       4.163   0.257   0.078  0.00  0.00    +0.014 A 
ATOM     13  C   UNL     1       4.792   0.707  -1.068  0.00  0.00    +0.013 A 
ATOM     14  C   UNL     1       4.092   0.774  -2.259  0.00  0.00    +0.014 A 
ATOM     15  C   UNL     1       2.766   0.386  -2.305  0.00  0.00    +0.003 A 
ATOM     16  I   UNL     1       6.803   1.289  -1.000  0.00  0.00    -0.044 I 
ENDBRANCH   1  10
BRANCH   1  18
ATOM     17  C   UNL     1      -0.018   1.465   0.010  0.00  0.00    -0.099 C 
ATOM     18  N   UNL     1       0.002  -0.004   0.002  0.00  0.00    +0.384 N 
ATOM     19  H   UNL     1       0.490  -0.338   0.820  0.00  0.00    -0.085 HD
ATOM     20  H   UNL     1      -0.945  -0.353   0.009  0.00  0.00    -0.085 HD
ENDBRANCH   1  18
TORSDOF 3
