REMARK  Name = ZINC09477529
REMARK  5 active torsions:
REMARK  status: ('A' for Active; 'I' for Inactive)
REMARK    1  A    between atoms: C_1  and  C_2
REMARK    2  A    between atoms: C_9  and  N_14
REMARK    3  A    between atoms: N_14  and  C_15
REMARK    4  A    between atoms: C_15  and  C_16
REMARK    5  A    between atoms: C_22  and  C_27
REMARK                            x       y       z     vdW  Elec       q    Type
REMARK                         _______ _______ _______ _____ _____    ______ ____
ROOT
ATOM      1  C   UNL     1      -6.260   1.738   6.059  0.00  0.00    +0.176 C 
ENDROOT
BRANCH   1   2
ATOM      2  C   UNL     1      -6.759   1.816   7.478  0.00  0.00    +0.128 A 
ATOM      3  N   UNL     1      -8.080   2.028   7.711  0.00  0.00    -0.309 N 
ATOM      4  H   UNL     1      -8.685   2.126   6.959  0.00  0.00    +0.170 HD
ATOM      5  C   UNL     1      -8.567   2.099   8.963  0.00  0.00    +0.260 A 
ATOM      6  O   UNL     1      -9.756   2.285   9.155  0.00  0.00    -0.267 OA
ATOM      7  C   UNL     1      -7.666   1.959  10.067  0.00  0.00    +0.083 A 
ATOM      8  C   UNL     1      -7.946   2.002  11.498  0.00  0.00    +0.039 A 
ATOM      9  C   UNL     1      -6.917   1.841  12.368  0.00  0.00    +0.059 A 
ATOM     10  S   UNL     1      -5.506   1.621  11.301  0.00  0.00    -0.076 S 
ATOM     11  C   UNL     1      -6.320   1.748   9.730  0.00  0.00    +0.116 A 
ATOM     12  N   UNL     1      -5.913   1.684   8.464  0.00  0.00    -0.225 NA
BRANCH   8  13
ATOM     13  C   UNL     1      -9.322   2.218  11.990  0.00  0.00    +0.136 A 
ATOM     14  C   UNL     1      -9.965   1.461  12.920  0.00  0.00    +0.050 A 
ATOM     15  C   UNL     1     -11.247   2.025  13.087  0.00  0.00    +0.042 A 
ATOM     16  C   UNL     1     -11.325   3.081  12.254  0.00  0.00    +0.196 A 
ATOM     17  O   UNL     1     -10.160   3.195  11.593  0.00  0.00    -0.463 OA
ENDBRANCH   8  13
ENDBRANCH   1   2
BRANCH   1  18
ATOM     18  N   UNL     1      -4.813   1.512   6.061  0.00  0.00    -0.337 N 
ATOM     19  H   UNL     1      -4.335   1.438   6.902  0.00  0.00    +0.147 HD
BRANCH  18  27
ATOM     20  C   UNL     1      -0.013   1.086   0.008  0.00  0.00    +0.062 C 
ATOM     21  C   UNL     1      -0.729   1.579   1.267  0.00  0.00    +0.256 C 
ATOM     22  C   UNL     1       0.001   1.079   2.488  0.00  0.00    +0.258 C 
ATOM     23  O   UNL     1       1.194   0.869   2.440  0.00  0.00    -0.271 OA
ATOM     24  N   UNL     1      -0.680   0.867   3.635  0.00  0.00    -0.279 N 
ATOM     25  C   UNL     1      -2.065   1.084   3.654  0.00  0.00    +0.077 A 
ATOM     26  C   UNL     1      -2.747   1.190   4.854  0.00  0.00    +0.050 A 
ATOM     27  C   UNL     1      -4.119   1.404   4.851  0.00  0.00    +0.029 A 
ATOM     28  C   UNL     1      -4.803   1.511   3.647  0.00  0.00    +0.026 A 
ATOM     29  C   UNL     1      -4.122   1.405   2.448  0.00  0.00    +0.049 A 
ATOM     30  C   UNL     1      -2.755   1.192   2.447  0.00  0.00    +0.143 A 
ATOM     31  O   UNL     1      -2.071   1.087   1.274  0.00  0.00    -0.478 OA
ATOM     32  H   UNL     1      -0.218   0.568   4.434  0.00  0.00    +0.155 HD
ENDBRANCH  18  27
ENDBRANCH   1  18
TORSDOF 4
