REMARK  Name = ZINC32054361
REMARK  10 active torsions:
REMARK  status: ('A' for Active; 'I' for Inactive)
REMARK    1  A    between atoms: C_1  and  C_2
REMARK    2  A    between atoms: C_4  and  N_11
REMARK    3  A    between atoms: C_6  and  C_8
REMARK    4  A    between atoms: C_8  and  C_9
REMARK    5  A    between atoms: C_8  and  C_10
REMARK    6  A    between atoms: C_17  and  C_19
REMARK    7  A    between atoms: C_20  and  C_21
REMARK    8  A    between atoms: C_24  and  S_27
REMARK    9  A    between atoms: S_27  and  N_30
REMARK   10  A    between atoms: N_30  and  C_31
REMARK                            x       y       z     vdW  Elec       q    Type
REMARK                         _______ _______ _______ _____ _____    ______ ____
ROOT
ATOM      1  N   UNL     1       0.040  -2.826  -2.329  0.00  0.00    -0.312 N 
ATOM      2  C   UNL     1       0.062  -4.295  -2.286  0.00  0.00    +0.125 C 
ATOM      3  C   UNL     1      -1.131  -4.827  -3.089  0.00  0.00    +0.127 C 
ATOM      4  N   UNL     1      -1.154  -4.157  -4.397  0.00  0.00    -0.295 N 
ATOM      5  C   UNL     1      -1.176  -2.688  -4.440  0.00  0.00    +0.127 C 
ATOM      6  C   UNL     1       0.012  -2.156  -3.636  0.00  0.00    +0.125 C 
ATOM      7  C   UNL     1      -1.153  -4.877  -5.536  0.00  0.00    +0.240 C 
ATOM      8  O   UNL     1      -1.073  -4.313  -6.612  0.00  0.00    -0.271 OA
ENDROOT
BRANCH   1  12
ATOM      9  C   UNL     1      -0.012   1.508   0.004  0.00  0.00    +0.063 C 
ATOM     10  C   UNL     1       0.014   0.001  -0.004  0.00  0.00    +0.017 A 
ATOM     11  C   UNL     1       0.014  -0.691  -1.200  0.00  0.00    +0.064 A 
ATOM     12  C   UNL     1       0.039  -2.087  -1.157  0.00  0.00    +0.125 A 
ATOM     13  N   UNL     1       0.062  -2.694   0.025  0.00  0.00    -0.219 NA
ATOM     14  C   UNL     1       0.062  -1.994   1.141  0.00  0.00    +0.112 A 
ATOM     15  N   UNL     1       0.043  -0.676   1.135  0.00  0.00    -0.347 N 
ATOM     16  H   UNL     1       0.047  -0.194   1.977  0.00  0.00    +0.167 HD
BRANCH  14  17
ATOM     17  C   UNL     1       0.088  -2.720   2.462  0.00  0.00    +0.049 C 
ATOM     18  C   UNL     1       1.533  -2.829   2.954  0.00  0.00    +0.015 C 
ATOM     19  C   UNL     1      -0.742  -1.945   3.487  0.00  0.00    +0.015 C 
ENDBRANCH  14  17
ENDBRANCH   1  12
BRANCH   7  20
ATOM     20  C   UNL     1      -1.249  -6.337  -5.480  0.00  0.00    +0.068 C 
ATOM     21  C   UNL     1      -1.143  -7.063  -6.611  0.00  0.00    +0.013 C 
BRANCH  21  22
ATOM     22  C   UNL     1      -1.240  -8.531  -6.555  0.00  0.00    -0.025 A 
ATOM     23  C   UNL     1      -1.446  -9.175  -5.331  0.00  0.00    +0.010 A 
ATOM     24  C   UNL     1      -1.535 -10.550  -5.286  0.00  0.00    +0.029 A 
ATOM     25  C   UNL     1      -1.420 -11.293  -6.448  0.00  0.00    +0.105 A 
ATOM     26  C   UNL     1      -1.216 -10.663  -7.664  0.00  0.00    +0.029 A 
ATOM     27  C   UNL     1      -1.131  -9.288  -7.725  0.00  0.00    +0.010 A 
BRANCH  25  28
ATOM     28  S   UNL     1      -1.535 -13.050  -6.381  0.00  0.00    +0.059 S 
ATOM     29  O   UNL     1      -0.851 -13.546  -7.524  0.00  0.00    -0.153 OA
ATOM     30  O   UNL     1      -1.181 -13.429  -5.058  0.00  0.00    -0.153 OA
BRANCH  28  31
ATOM     31  N   UNL     1      -3.131 -13.445  -6.576  0.00  0.00    -0.187 NA
ATOM     32  H   UNL     1      -3.618 -13.869  -5.852  0.00  0.00    +0.148 HD
BRANCH  31  33
ATOM     33  C   UNL     1      -3.808 -13.153  -7.842  0.00  0.00    +0.077 C 
ATOM     34  C   UNL     1      -5.290 -12.777  -7.780  0.00  0.00    +0.022 C 
ATOM     35  C   UNL     1      -4.870 -14.146  -8.320  0.00  0.00    +0.022 C 
ENDBRANCH  31  33
ENDBRANCH  28  31
ENDBRANCH  25  28
ENDBRANCH  21  22
ENDBRANCH   7  20
TORSDOF 7
