REMARK  Name = ZINC59294092
REMARK  6 active torsions:
REMARK  status: ('A' for Active; 'I' for Inactive)
REMARK    1  A    between atoms: C_4  and  N_28
REMARK    2  A    between atoms: C_5  and  C_7
REMARK    3  A    between atoms: C_10  and  C_12
REMARK    4  A    between atoms: N_14  and  C_15
REMARK    5  A    between atoms: C_15  and  N_17
REMARK    6  A    between atoms: N_17  and  C_18
REMARK                            x       y       z     vdW  Elec       q    Type
REMARK                         _______ _______ _______ _____ _____    ______ ____
ROOT
ATOM      1  C   UNL     1       4.662  -4.183  -0.914  0.00  0.00    +0.285 C 
ATOM      2  O   UNL     1       5.438  -4.857  -0.263  0.00  0.00    -0.266 OA
ATOM      3  N   UNL     1       4.349  -4.544  -2.175  0.00  0.00    -0.261 N 
ATOM      4  H   UNL     1       3.730  -4.007  -2.694  0.00  0.00    +0.157 HD
ENDROOT
BRANCH   1   8
ATOM      5  C   UNL     1       2.865  -1.155  -0.098  0.00  0.00    +0.138 A 
ATOM      6  C   UNL     1       3.530  -1.339   1.081  0.00  0.00    +0.051 A 
ATOM      7  C   UNL     1       4.298  -2.500   0.943  0.00  0.00    +0.055 A 
ATOM      8  C   UNL     1       4.067  -2.981  -0.329  0.00  0.00    +0.190 A 
ATOM      9  O   UNL     1       3.191  -2.152  -0.937  0.00  0.00    -0.450 OA
BRANCH   5  14
ATOM     10  C   UNL     1       0.044   1.303   0.206  0.00  0.00    +0.001 A 
ATOM     11  C   UNL     1       0.195   2.032  -0.961  0.00  0.00    +0.002 A 
ATOM     12  C   UNL     1       1.212   1.726  -1.848  0.00  0.00    +0.033 A 
ATOM     13  C   UNL     1       2.083   0.693  -1.573  0.00  0.00    +0.137 A 
ATOM     14  C   UNL     1       1.937  -0.046  -0.398  0.00  0.00    +0.047 A 
ATOM     15  C   UNL     1       0.908   0.267   0.493  0.00  0.00    +0.014 A 
BRANCH  13  16
ATOM     16  N   UNL     1       3.171   0.367  -2.524  0.00  0.00    +0.057 N 
ATOM     17  O   UNL     1       3.296   1.007  -3.542  0.00  0.00    -0.126 OA
ATOM     18  O   UNL     1       3.933  -0.540  -2.282  0.00  0.00    -0.126 OA
ENDBRANCH  13  16
ENDBRANCH   5  14
ENDBRANCH   1   8
BRANCH   3  19
ATOM     19  C   UNL     1       4.897  -5.651  -2.715  0.00  0.00    +0.141 C 
ATOM     20  S   UNL     1       5.989  -6.599  -1.798  0.00  0.00    -0.018 S 
BRANCH  19  21
ATOM     21  N   UNL     1       4.585  -6.011  -3.975  0.00  0.00    -0.294 N 
ATOM     22  H   UNL     1       3.910  -5.518  -4.468  0.00  0.00    +0.154 HD
BRANCH  21  23
ATOM     23  C   UNL     1       5.232  -7.096  -4.572  0.00  0.00    +0.080 A 
ATOM     24  C   UNL     1       6.366  -6.896  -5.299  0.00  0.00    +0.064 A 
ATOM     25  C   UNL     1       7.035  -7.957  -5.907  0.00  0.00    +0.024 A 
ATOM     26  C   UNL     1       6.588  -9.231  -5.801  0.00  0.00    +0.032 A 
ATOM     27  C   UNL     1       5.410  -9.518  -5.058  0.00  0.00    +0.102 A 
ATOM     28  C   UNL     1       4.709  -8.414  -4.415  0.00  0.00    +0.122 A 
ATOM     29  N   UNL     1       3.625  -8.801  -3.743  0.00  0.00    -0.189 NA
ATOM     30  S   UNL     1       3.547 -10.397  -3.927  0.00  0.00    +0.117 S 
ATOM     31  N   UNL     1       4.829 -10.700  -4.850  0.00  0.00    -0.191 NA
ATOM     32 CL   UNL     1       6.991  -5.286  -5.472  0.00  0.00    -0.082 Cl
ENDBRANCH  21  23
ENDBRANCH  19  21
ENDBRANCH   3  19
TORSDOF 6
