REMARK  Name = ZINC32814819
REMARK  10 active torsions:
REMARK  status: ('A' for Active; 'I' for Inactive)
REMARK    1  A    between atoms: C_1  and  C_2
REMARK    2  A    between atoms: C_3  and  S_8
REMARK    3  A    between atoms: C_4  and  C_7
REMARK    4  A    between atoms: S_8  and  N_11
REMARK    5  A    between atoms: N_14  and  C_17
REMARK    6  A    between atoms: C_17  and  C_18
REMARK    7  A    between atoms: C_18  and  C_20
REMARK    8  A    between atoms: C_18  and  O_33
REMARK    9  A    between atoms: C_20  and  O_21
REMARK   10  A    between atoms: O_21  and  C_22
REMARK                            x       y       z     vdW  Elec       q    Type
REMARK                         _______ _______ _______ _____ _____    ______ ____
ROOT
ATOM      1  N   UNL     1       2.117  -2.526  -2.470  0.00  0.00    -0.174 NA
ATOM      2  C   UNL     1       2.598  -1.179  -2.127  0.00  0.00    +0.125 C 
ATOM      3  C   UNL     1       1.944  -0.750  -0.809  0.00  0.00    +0.101 C 
ATOM      4  N   UNL     1       0.486  -0.878  -0.926  0.00  0.00    -0.297 NA
ATOM      5  C   UNL     1       0.089  -2.275  -1.142  0.00  0.00    +0.101 C 
ATOM      6  C   UNL     1       0.666  -2.767  -2.473  0.00  0.00    +0.125 C 
ENDROOT
BRANCH   1   7
ATOM      7  S   UNL     1       3.181  -3.739  -2.843  0.00  0.00    +0.066 S 
ATOM      8  O   UNL     1       2.467  -4.676  -3.637  0.00  0.00    -0.153 OA
ATOM      9  O   UNL     1       4.373  -3.110  -3.295  0.00  0.00    -0.153 OA
BRANCH   7  12
ATOM     10  C   UNL     1       1.728  -6.396  -1.282  0.00  0.00    +0.071 C 
ATOM     11  C   UNL     1       2.932  -5.665  -0.745  0.00  0.00    +0.107 A 
ATOM     12  C   UNL     1       3.585  -4.559  -1.337  0.00  0.00    +0.170 A 
ATOM     13  C   UNL     1       4.596  -4.280  -0.480  0.00  0.00    +0.161 A 
ATOM     14  O   UNL     1       4.502  -5.167   0.520  0.00  0.00    -0.358 OA
ATOM     15  N   UNL     1       3.577  -5.927   0.355  0.00  0.00    -0.081 NA
ATOM     16  C   UNL     1       5.623  -3.186  -0.623  0.00  0.00    +0.091 C 
ENDBRANCH   7  12
ENDBRANCH   1   7
BRANCH   4  17
ATOM     17  C   UNL     1      -0.188  -0.315   0.252  0.00  0.00    +0.118 C 
BRANCH  17  18
ATOM     18  C   UNL     1      -0.171   1.212   0.168  0.00  0.00    +0.154 C 
BRANCH  18  19
ATOM     19  O   UNL     1      -0.864   1.633  -1.009  0.00  0.00    -0.388 OA
ATOM     20  H   UNL     1      -0.956   2.704  -1.240  0.00  0.00    +0.210 HD
ENDBRANCH  18  19
BRANCH  18  21
ATOM     21  C   UNL     1      -0.860   1.799   1.402  0.00  0.00    +0.193 C 
BRANCH  21  22
ATOM     22  O   UNL     1      -0.743   3.223   1.382  0.00  0.00    -0.369 OA
BRANCH  22  23
ATOM     23  C   UNL     1      -1.257   3.865   2.550  0.00  0.00    +0.149 C 
ATOM     24  C   UNL     1      -2.704   4.286   2.297  0.00  0.00    +0.037 C 
ATOM     25  C   UNL     1      -3.165   5.158   3.471  0.00  0.00    +0.007 C 
ATOM     26  C   UNL     1      -2.426   6.493   3.399  0.00  0.00    +0.035 C 
ATOM     27  C   UNL     1      -0.942   6.270   3.267  0.00  0.00    -0.042 A 
ATOM     28  C   UNL     1      -0.406   5.065   2.873  0.00  0.00    -0.016 A 
ATOM     29  C   UNL     1       0.972   4.928   2.764  0.00  0.00    +0.006 A 
ATOM     30  C   UNL     1       1.807   5.989   3.051  0.00  0.00    +0.000 A 
ATOM     31  C   UNL     1       1.268   7.197   3.450  0.00  0.00    +0.000 A 
ATOM     32  C   UNL     1      -0.100   7.336   3.557  0.00  0.00    +0.004 A 
ENDBRANCH  22  23
ENDBRANCH  21  22
ENDBRANCH  18  21
ENDBRANCH  17  18
ENDBRANCH   4  17
TORSDOF 8
