REMARK  Name = ZINC05945209
REMARK  10 active torsions:
REMARK  status: ('A' for Active; 'I' for Inactive)
REMARK    1  A    between atoms: C_1  and  C_2
REMARK    2  A    between atoms: C_2  and  C_3
REMARK    3  A    between atoms: C_2  and  C_4
REMARK    4  A    between atoms: C_10  and  N_14
REMARK    5  A    between atoms: N_17  and  C_20
REMARK    6  A    between atoms: C_23  and  N_35
REMARK    7  A    between atoms: C_24  and  N_26
REMARK    8  A    between atoms: N_26  and  C_27
REMARK    9  A    between atoms: C_27  and  C_28
REMARK   10  A    between atoms: C_28  and  C_29
REMARK                            x       y       z     vdW  Elec       q    Type
REMARK                         _______ _______ _______ _____ _____    ______ ____
ROOT
ATOM      1  N   UNL     1      -7.045  -3.004  -0.041  0.00  0.00    -0.313 N 
ATOM      2  C   UNL     1      -7.078  -4.249  -0.821  0.00  0.00    +0.125 C 
ATOM      3  C   UNL     1      -7.628  -5.371   0.069  0.00  0.00    +0.124 C 
ATOM      4  N   UNL     1      -8.867  -4.901   0.704  0.00  0.00    -0.327 N 
ATOM      5  C   UNL     1      -8.835  -3.656   1.484  0.00  0.00    +0.124 C 
ATOM      6  C   UNL     1      -8.283  -2.537   0.599  0.00  0.00    +0.125 C 
ENDROOT
BRANCH   1  13
ATOM      7  C   UNL     1      -2.351   0.618   1.786  0.00  0.00    +0.105 A 
ATOM      8  N   UNL     1      -2.421  -0.067   0.686  0.00  0.00    -0.159 NA
ATOM      9  N   UNL     1      -3.531  -0.849   0.380  0.00  0.00    -0.173 N 
ATOM     10  C   UNL     1      -3.720  -1.609  -0.738  0.00  0.00    +0.277 A 
ATOM     11  O   UNL     1      -2.857  -1.649  -1.602  0.00  0.00    -0.266 OA
ATOM     12  C   UNL     1      -4.892  -2.337  -0.894  0.00  0.00    +0.113 A 
ATOM     13  C   UNL     1      -5.870  -2.288   0.093  0.00  0.00    +0.106 A 
ATOM     14  N   UNL     1      -5.650  -1.532   1.174  0.00  0.00    -0.322 N 
ATOM     15  C   UNL     1      -4.540  -0.853   1.305  0.00  0.00    +0.178 A 
ATOM     16  S   UNL     1      -3.907   0.226   2.570  0.00  0.00    -0.034 S 
ATOM     17  H   UNL     1      -6.323  -1.487   1.871  0.00  0.00    +0.169 HD
BRANCH   7  19
ATOM     18  C   UNL     1       0.081   1.078   1.639  0.00  0.00    +0.014 C 
ATOM     19  C   UNL     1      -1.240   1.509   2.279  0.00  0.00    +0.040 C 
ATOM     20  C   UNL     1      -1.542   2.959   1.896  0.00  0.00    +0.014 C 
ENDBRANCH   7  19
ENDBRANCH   1  13
BRANCH   4  21
ATOM     21  C   UNL     1     -10.054  -5.624   0.569  0.00  0.00    +0.032 A 
ATOM     22  C   UNL     1     -10.047  -6.861  -0.065  0.00  0.00    +0.025 A 
ATOM     23  C   UNL     1     -11.220  -7.577  -0.199  0.00  0.00    +0.036 A 
ATOM     24  C   UNL     1     -12.405  -7.067   0.296  0.00  0.00    +0.147 A 
ATOM     25  C   UNL     1     -12.419  -5.831   0.931  0.00  0.00    +0.059 A 
ATOM     26  C   UNL     1     -11.241  -5.111   1.073  0.00  0.00    +0.048 A 
BRANCH  24  27
ATOM     27  N   UNL     1     -13.660  -7.837   0.149  0.00  0.00    +0.058 N 
ATOM     28  O   UNL     1     -13.650  -9.039   0.279  0.00  0.00    -0.126 OA
ATOM     29  O   UNL     1     -14.695  -7.264  -0.100  0.00  0.00    -0.126 OA
ENDBRANCH  24  27
BRANCH  25  30
ATOM     30  N   UNL     1     -13.617  -5.316   1.431  0.00  0.00    -0.342 N 
ATOM     31  H   UNL     1     -14.450  -5.790   1.279  0.00  0.00    +0.146 HD
BRANCH  30  32
ATOM     32  C   UNL     1     -13.617  -4.060   2.185  0.00  0.00    +0.106 C 
BRANCH  32  33
ATOM     33  C   UNL     1     -15.046  -3.722   2.615  0.00  0.00    +0.054 C 
BRANCH  33  34
ATOM     34  C   UNL     1     -15.045  -2.430   3.391  0.00  0.00    -0.046 A 
ATOM     35  C   UNL     1     -14.877  -2.448   4.763  0.00  0.00    +0.004 A 
ATOM     36  C   UNL     1     -14.876  -1.263   5.474  0.00  0.00    +0.000 A 
ATOM     37  C   UNL     1     -15.043  -0.060   4.814  0.00  0.00    +0.000 A 
ATOM     38  C   UNL     1     -15.210  -0.042   3.442  0.00  0.00    +0.000 A 
ATOM     39  C   UNL     1     -15.206  -1.227   2.730  0.00  0.00    +0.004 A 
ENDBRANCH  33  34
ENDBRANCH  32  33
ENDBRANCH  30  32
ENDBRANCH  25  30
ENDBRANCH   4  21
TORSDOF 8
