REMARK  Name = ZINC40294644
REMARK  11 active torsions:
REMARK  status: ('A' for Active; 'I' for Inactive)
REMARK    1  A    between atoms: C_1  and  C_2
REMARK    2  A    between atoms: C_2  and  C_4
REMARK    3  A    between atoms: C_2  and  N_25
REMARK    4  A    between atoms: N_12  and  C_13
REMARK    5  A    between atoms: C_13  and  C_14
REMARK    6  A    between atoms: C_14  and  O_15
REMARK    7  A    between atoms: O_15  and  C_16
REMARK    8  A    between atoms: C_21  and  C_22
REMARK    9  A    between atoms: C_22  and  C_23
REMARK   10  A    between atoms: C_22  and  C_24
REMARK   11  A    between atoms: C_26  and  C_28
REMARK                            x       y       z     vdW  Elec       q    Type
REMARK                         _______ _______ _______ _____ _____    ______ ____
ROOT
ATOM      1  C   UNL     1       0.731  -0.503   1.223  0.00  0.00    +0.131 A 
ATOM      2  N   UNL     1       0.245  -0.510   2.430  0.00  0.00    -0.230 NA
ATOM      3  C   UNL     1       1.163  -1.024   3.288  0.00  0.00    +0.089 A 
ATOM      4  C   UNL     1       1.170  -1.258   4.666  0.00  0.00    +0.030 A 
ATOM      5  C   UNL     1       2.273  -1.803   5.259  0.00  0.00    +0.002 A 
ATOM      6  C   UNL     1       3.393  -2.128   4.507  0.00  0.00    +0.002 A 
ATOM      7  C   UNL     1       3.409  -1.907   3.146  0.00  0.00    +0.028 A 
ATOM      8  C   UNL     1       2.297  -1.354   2.526  0.00  0.00    +0.069 A 
ATOM      9  N   UNL     1       1.990  -1.018   1.223  0.00  0.00    -0.323 N 
ENDROOT
BRANCH   1  11
ATOM     10  C   UNL     1      -0.019   1.526   0.010  0.00  0.00    +0.036 C 
ATOM     11  C   UNL     1       0.002  -0.004   0.002  0.00  0.00    +0.136 C 
BRANCH  11  12
ATOM     12  N   UNL     1      -1.372  -0.511   0.012  0.00  0.00    -0.302 N 
ATOM     13  C   UNL     1      -2.051  -0.643  -1.145  0.00  0.00    +0.245 C 
ATOM     14  O   UNL     1      -1.522  -0.341  -2.197  0.00  0.00    -0.270 OA
ATOM     15  H   UNL     1      -1.794  -0.752   0.852  0.00  0.00    +0.150 HD
BRANCH  13  16
ATOM     16  C   UNL     1      -3.438  -1.155  -1.134  0.00  0.00    +0.038 A 
ATOM     17  C   UNL     1      -4.050  -1.497   0.073  0.00  0.00    +0.013 A 
ATOM     18  C   UNL     1      -5.344  -1.974   0.076  0.00  0.00    +0.002 A 
ATOM     19  C   UNL     1      -6.036  -2.114  -1.113  0.00  0.00    +0.015 A 
ATOM     20  C   UNL     1      -5.436  -1.777  -2.314  0.00  0.00    +0.019 A 
ATOM     21  C   UNL     1      -4.143  -1.292  -2.330  0.00  0.00    +0.028 A 
ATOM     22 BR   UNL     1      -6.391  -1.973  -3.934  0.00  0.00    -0.050 Br
ENDBRANCH  13  16
ENDBRANCH  11  12
ENDBRANCH   1  11
BRANCH   9  23
ATOM     23  C   UNL     1       2.861  -1.182   0.056  0.00  0.00    +0.164 C 
BRANCH  23  24
ATOM     24  C   UNL     1       3.704   0.081  -0.133  0.00  0.00    +0.250 C 
BRANCH  24  25
ATOM     25  O   UNL     1       4.553  -0.080  -1.271  0.00  0.00    -0.490 OA
BRANCH  25  26
ATOM     26  C   UNL     1       5.373   0.959  -1.581  0.00  0.00    +0.124 A 
ATOM     27  C   UNL     1       5.364   2.107  -0.801  0.00  0.00    +0.046 A 
ATOM     28  C   UNL     1       6.198   3.161  -1.117  0.00  0.00    +0.004 A 
ATOM     29  C   UNL     1       7.042   3.074  -2.209  0.00  0.00    +0.001 A 
ATOM     30  C   UNL     1       7.052   1.931  -2.988  0.00  0.00    +0.007 A 
ATOM     31  C   UNL     1       6.223   0.872  -2.673  0.00  0.00    -0.003 A 
BRANCH  31  32
ATOM     32  C   UNL     1       6.239  -0.376  -3.518  0.00  0.00    +0.016 C 
ATOM     33  C   UNL     1       5.862  -0.021  -4.958  0.00  0.00    +0.012 C 
ATOM     34  C   UNL     1       7.641  -0.990  -3.494  0.00  0.00    +0.012 C 
ENDBRANCH  31  32
ENDBRANCH  25  26
ENDBRANCH  24  25
ENDBRANCH  23  24
ENDBRANCH   9  23
TORSDOF 8
