REMARK  Name = ZINC08722196
REMARK  11 active torsions:
REMARK  status: ('A' for Active; 'I' for Inactive)
REMARK    1  A    between atoms: C_1  and  O_2
REMARK    2  A    between atoms: O_2  and  C_3
REMARK    3  A    between atoms: C_6  and  N_9
REMARK    4  A    between atoms: N_11  and  C_27
REMARK    5  A    between atoms: C_15  and  C_16
REMARK    6  A    between atoms: C_19  and  O_24
REMARK    7  A    between atoms: C_20  and  O_22
REMARK    8  A    between atoms: O_22  and  C_23
REMARK    9  A    between atoms: O_24  and  C_25
REMARK   10  A    between atoms: C_27  and  C_28
REMARK   11  A    between atoms: C_28  and  C_29
REMARK                            x       y       z     vdW  Elec       q    Type
REMARK                         _______ _______ _______ _____ _____    ______ ____
ROOT
ATOM      1  N   UNL     1       1.334   3.338   0.156  0.00  0.00    -0.225 NA
ATOM      2  C   UNL     1       1.180   2.034   0.180  0.00  0.00    +0.168 C 
ATOM      3  N   UNL     1       0.051   1.310   0.499  0.00  0.00    -0.246 N 
ATOM      4  C   UNL     1       0.068  -0.012   0.471  0.00  0.00    +0.259 C 
ATOM      5  O   UNL     1      -0.918  -0.668   0.751  0.00  0.00    -0.269 OA
ATOM      6  C   UNL     1       1.338  -0.657   0.086  0.00  0.00    +0.078 C 
ATOM      7  C   UNL     1       1.635  -1.977  -0.024  0.00  0.00    +0.028 C 
ATOM      8  S   UNL     1       2.381   0.767  -0.196  0.00  0.00    -0.049 S 
ENDROOT
BRANCH   1  12
ATOM      9  C   UNL     1       4.992   4.972  -0.892  0.00  0.00    +0.120 A 
ATOM     10  C   UNL     1       3.822   5.494  -1.426  0.00  0.00    +0.048 A 
ATOM     11  C   UNL     1       2.602   4.953  -1.080  0.00  0.00    +0.031 A 
ATOM     12  C   UNL     1       2.544   3.878  -0.191  0.00  0.00    +0.067 A 
ATOM     13  C   UNL     1       3.723   3.359   0.348  0.00  0.00    +0.031 A 
ATOM     14  C   UNL     1       4.939   3.903  -0.008  0.00  0.00    +0.048 A 
BRANCH   9  16
ATOM     15  C   UNL     1       7.357   4.922  -0.651  0.00  0.00    +0.277 C 
ATOM     16  O   UNL     1       6.193   5.508  -1.237  0.00  0.00    -0.495 OA
ENDBRANCH   9  16
ENDBRANCH   1  12
BRANCH   7  17
ATOM     17  C   UNL     1       0.570  -2.981   0.091  0.00  0.00    -0.020 A 
ATOM     18  C   UNL     1      -0.681  -2.748  -0.491  0.00  0.00    +0.012 A 
ATOM     19  C   UNL     1      -1.679  -3.692  -0.382  0.00  0.00    +0.050 A 
ATOM     20  C   UNL     1      -1.446  -4.876   0.305  0.00  0.00    +0.162 A 
ATOM     21  C   UNL     1      -0.203  -5.116   0.889  0.00  0.00    +0.162 A 
ATOM     22  C   UNL     1       0.805  -4.178   0.780  0.00  0.00    +0.057 A 
BRANCH  21  23
ATOM     23  O   UNL     1       0.020  -6.277   1.561  0.00  0.00    -0.491 OA
ATOM     24  C   UNL     1       1.317  -6.457   2.134  0.00  0.00    +0.277 C 
ENDBRANCH  21  23
BRANCH  20  25
ATOM     25  O   UNL     1      -2.433  -5.804   0.410  0.00  0.00    -0.491 OA
ATOM     26  C   UNL     1      -3.683  -5.494  -0.211  0.00  0.00    +0.277 C 
ENDBRANCH  20  25
ENDBRANCH   7  17
BRANCH   3  27
ATOM     27  C   UNL     1      -1.181   2.011   0.868  0.00  0.00    +0.120 C 
BRANCH  27  28
ATOM     28  C   UNL     1      -1.209   2.232   2.382  0.00  0.00    +0.056 C 
BRANCH  28  29
ATOM     29  C   UNL     1      -2.476   2.954   2.761  0.00  0.00    -0.021 A 
ATOM     30  C   UNL     1      -2.622   4.279   2.924  0.00  0.00    +0.087 A 
ATOM     31  N   UNL     1      -3.915   4.566   3.267  0.00  0.00    -0.360 N 
ATOM     32  H   UNL     1      -4.262   5.456   3.437  0.00  0.00    +0.165 HD
ATOM     33  C   UNL     1      -4.651   3.405   3.336  0.00  0.00    +0.047 A 
ATOM     34  C   UNL     1      -3.783   2.344   3.016  0.00  0.00    +0.003 A 
ATOM     35  C   UNL     1      -4.259   1.032   3.013  0.00  0.00    +0.010 A 
ATOM     36  C   UNL     1      -5.570   0.785   3.308  0.00  0.00    +0.001 A 
ATOM     37  C   UNL     1      -6.431   1.828   3.619  0.00  0.00    +0.002 A 
ATOM     38  C   UNL     1      -5.981   3.130   3.634  0.00  0.00    +0.026 A 
ENDBRANCH  28  29
ENDBRANCH  27  28
ENDBRANCH   3  27
TORSDOF 8
