REMARK  Name = ZINC03913922
REMARK  8 active torsions:
REMARK  status: ('A' for Active; 'I' for Inactive)
REMARK    1  A    between atoms: C_1  and  C_2
REMARK    2  A    between atoms: C_5  and  O_32
REMARK    3  A    between atoms: C_16  and  O_31
REMARK    4  A    between atoms: C_19  and  C_30
REMARK    5  A    between atoms: C_24  and  C_25
REMARK    6  A    between atoms: C_24  and  O_29
REMARK    7  A    between atoms: C_25  and  C_27
REMARK    8  A    between atoms: C_27  and  O_28
REMARK                            x       y       z     vdW  Elec       q    Type
REMARK                         _______ _______ _______ _____ _____    ______ ____
ROOT
ATOM      1  C   UNL     1      -0.598   8.008  -0.403  0.00  0.00    +0.012 C 
ATOM      2  C   UNL     1      -2.070   7.722  -0.704  0.00  0.00    -0.024 C 
ATOM      3  C   UNL     1      -2.594   8.749  -1.710  0.00  0.00    +0.010 C 
ATOM      4  C   UNL     1      -2.455  10.155  -1.123  0.00  0.00    +0.032 C 
ATOM      5  C   UNL     1      -3.268  10.249   0.171  0.00  0.00    +0.115 C 
ATOM      6  C   UNL     1      -2.744   9.222   1.177  0.00  0.00    +0.035 C 
ATOM      7  C   UNL     1      -2.881   7.816   0.590  0.00  0.00    -0.002 C 
ATOM      8  C   UNL     1      -2.358   6.791   1.598  0.00  0.00    +0.004 C 
ATOM      9  C   UNL     1      -2.483   5.384   1.010  0.00  0.00    +0.004 C 
ATOM     10  C   UNL     1      -1.663   5.296  -0.278  0.00  0.00    -0.001 C 
ATOM     11  C   UNL     1      -2.207   6.316  -1.290  0.00  0.00    +0.027 C 
ATOM     12  C   UNL     1      -1.468   6.232  -2.621  0.00  0.00    +0.119 C 
ATOM     13  C   UNL     1      -1.495   4.804  -3.190  0.00  0.00    +0.041 C 
ATOM     14  C   UNL     1      -0.881   3.889  -2.148  0.00  0.00    +0.009 C 
ATOM     15  C   UNL     1      -1.806   3.921  -0.902  0.00  0.00    +0.002 C 
ATOM     16  C   UNL     1      -1.256   2.751  -0.078  0.00  0.00    +0.008 C 
ATOM     17  C   UNL     1      -1.000   1.660  -1.153  0.00  0.00    +0.043 C 
ATOM     18  C   UNL     1      -0.815   2.406  -2.498  0.00  0.00    +0.131 C 
ATOM     19  C   UNL     1       0.513   4.395  -1.773  0.00  0.00    +0.015 C 
ENDROOT
BRANCH  18  20
ATOM     20  C   UNL     1       0.524   2.070  -3.101  0.00  0.00    +0.190 C 
ATOM     21  O   UNL     1       1.415   1.653  -2.400  0.00  0.00    -0.292 OA
BRANCH  20  22
ATOM     22  C   UNL     1       0.755   2.261  -4.578  0.00  0.00    +0.233 C 
BRANCH  22  23
ATOM     23  O   UNL     1       2.094   1.883  -4.904  0.00  0.00    -0.387 OA
ATOM     24  H   UNL     1       2.313   1.980  -5.840  0.00  0.00    +0.210 HD
ENDBRANCH  22  23
ENDBRANCH  20  22
ENDBRANCH  18  20
BRANCH  18  25
ATOM     25  O   UNL     1      -1.865   2.064  -3.404  0.00  0.00    -0.380 OA
ATOM     26  H   UNL     1      -1.886   1.128  -3.647  0.00  0.00    +0.211 HD
ENDBRANCH  18  25
BRANCH  12  27
ATOM     27  O   UNL     1      -0.109   6.632  -2.428  0.00  0.00    -0.391 OA
ATOM     28  H   UNL     1       0.419   6.633  -3.237  0.00  0.00    +0.210 HD
ENDBRANCH  12  27
BRANCH   5  29
ATOM     29  O   UNL     1      -4.643   9.983  -0.111  0.00  0.00    -0.392 OA
ATOM     30  H   UNL     1      -5.041  10.597  -0.743  0.00  0.00    +0.210 HD
ENDBRANCH   5  29
TORSDOF 6
