REMARK  Name = ZINC12690916
REMARK  8 active torsions:
REMARK  status: ('A' for Active; 'I' for Inactive)
REMARK    1  A    between atoms: C_1  and  C_2
REMARK    2  A    between atoms: C_3  and  N_15
REMARK    3  A    between atoms: N_6  and  C_9
REMARK    4  A    between atoms: N_7  and  C_8
REMARK    5  A    between atoms: C_16  and  S_20
REMARK    6  A    between atoms: S_20  and  C_21
REMARK    7  A    between atoms: C_21  and  C_23
REMARK    8  A    between atoms: C_21  and  C_24
REMARK                            x       y       z     vdW  Elec       q    Type
REMARK                         _______ _______ _______ _____ _____    ______ ____
ROOT
ATOM      1  C   UNL     1       7.669   5.966  -4.277  0.00  0.00    +0.067 C 
ATOM      2  C   UNL     1       6.167   5.842  -4.311  0.00  0.00    +0.064 A 
ATOM      3  C   UNL     1       5.386   5.414  -3.294  0.00  0.00    +0.156 A 
ATOM      4  C   UNL     1       4.037   5.452  -3.733  0.00  0.00    +0.298 A 
ATOM      5  O   UNL     1       3.058   5.140  -3.078  0.00  0.00    -0.263 OA
ATOM      6  N   UNL     1       4.034   5.896  -5.006  0.00  0.00    -0.215 N 
ATOM      7  N   UNL     1       5.363   6.139  -5.378  0.00  0.00    -0.282 N 
ATOM      8  C   UNL     1       5.813   6.632  -6.682  0.00  0.00    +0.171 C 
ENDROOT
BRANCH   6   9
ATOM      9  C   UNL     1       2.906   6.081  -5.812  0.00  0.00    +0.067 A 
ATOM     10  C   UNL     1       2.745   7.263  -6.524  0.00  0.00    +0.028 A 
ATOM     11  C   UNL     1       1.633   7.439  -7.323  0.00  0.00    +0.002 A 
ATOM     12  C   UNL     1       0.674   6.446  -7.407  0.00  0.00    +0.000 A 
ATOM     13  C   UNL     1       0.829   5.270  -6.695  0.00  0.00    +0.002 A 
ATOM     14  C   UNL     1       1.942   5.085  -5.899  0.00  0.00    +0.028 A 
ENDBRANCH   6   9
BRANCH   3  15
ATOM     15  N   UNL     1       5.831   5.008  -2.021  0.00  0.00    -0.180 N 
ATOM     16  C   UNL     1       5.655   3.799  -1.435  0.00  0.00    +0.215 A 
ATOM     17  N   UNL     1       6.235   3.854  -0.255  0.00  0.00    -0.101 NA
ATOM     18  N   UNL     1       6.756   5.012  -0.064  0.00  0.00    -0.022 NA
ATOM     19  N   UNL     1       6.552   5.770  -1.086  0.00  0.00    -0.038 NA
BRANCH  16  20
ATOM     20  S   UNL     1       4.814   2.413  -2.125  0.00  0.00    -0.076 S 
BRANCH  20  21
ATOM     21  C   UNL     1       5.012   1.222  -0.776  0.00  0.00    +0.081 C 
ATOM     22  C   UNL     1       4.255   1.718   0.458  0.00  0.00    +0.024 C 
BRANCH  21  23
ATOM     23  C   UNL     1       4.460  -0.115  -1.201  0.00  0.00    -0.034 A 
ATOM     24  C   UNL     1       3.129  -0.232  -1.554  0.00  0.00    +0.005 A 
ATOM     25  C   UNL     1       2.623  -1.457  -1.945  0.00  0.00    +0.000 A 
ATOM     26  C   UNL     1       3.447  -2.566  -1.980  0.00  0.00    +0.000 A 
ATOM     27  C   UNL     1       4.778  -2.450  -1.625  0.00  0.00    +0.000 A 
ATOM     28  C   UNL     1       5.284  -1.224  -1.235  0.00  0.00    +0.005 A 
ENDBRANCH  21  23
ENDBRANCH  20  21
ENDBRANCH  16  20
ENDBRANCH   3  15
TORSDOF 5
