REMARK  Name = ZINC13638690
REMARK  3 active torsions:
REMARK  status: ('A' for Active; 'I' for Inactive)
REMARK    1  A    between atoms: C_6  and  C_7
REMARK    2  A    between atoms: C_18  and  S_23
REMARK    3  A    between atoms: S_23  and  N_26
REMARK                            x       y       z     vdW  Elec       q    Type
REMARK                         _______ _______ _______ _____ _____    ______ ____
ROOT
ATOM      1  C   UNL     1      -1.030  -4.984  -0.550  0.00  0.00    +0.105 C 
ATOM      2  C   UNL     1      -1.658  -4.164  -1.663  0.00  0.00    +0.029 C 
ATOM      3  C   UNL     1      -2.982  -4.675  -2.247  0.00  0.00    +0.033 C 
ATOM      4  C   UNL     1      -3.646  -3.371  -2.692  0.00  0.00    -0.030 C 
ATOM      5  C   UNL     1      -3.187  -2.357  -1.968  0.00  0.00    -0.023 C 
ATOM      6  C   UNL     1      -2.221  -2.886  -0.971  0.00  0.00    +0.049 C 
ATOM      7  C   UNL     1      -1.074  -2.086  -0.491  0.00  0.00    -0.018 A 
ATOM      8  C   UNL     1      -1.088  -0.708  -0.476  0.00  0.00    +0.034 A 
ATOM      9  C   UNL     1       0.002  -0.004   0.002  0.00  0.00    +0.106 A 
ATOM     10  C   UNL     1       1.113  -0.683   0.467  0.00  0.00    +0.030 A 
ATOM     11  C   UNL     1       1.136  -2.063   0.458  0.00  0.00    +0.025 A 
ATOM     12  C   UNL     1       0.050  -2.780  -0.029  0.00  0.00    +0.031 A 
ATOM     13  N   UNL     1       0.108  -4.178  -0.055  0.00  0.00    -0.336 N 
ATOM     14  H   UNL     1       0.910  -4.628   0.256  0.00  0.00    +0.147 HD
ENDROOT
BRANCH   1  20
ATOM     15  C   UNL     1       0.665  -6.368  -1.764  0.00  0.00    +0.006 A 
ATOM     16  C   UNL     1       1.119  -7.579  -2.253  0.00  0.00    +0.015 A 
ATOM     17  C   UNL     1       0.362  -8.723  -2.076  0.00  0.00    +0.018 A 
ATOM     18  C   UNL     1      -0.846  -8.656  -1.405  0.00  0.00    +0.015 A 
ATOM     19  C   UNL     1      -1.296  -7.446  -0.912  0.00  0.00    +0.006 A 
ATOM     20  C   UNL     1      -0.539  -6.303  -1.089  0.00  0.00    -0.027 A 
ATOM     21 BR   UNL     1       0.978 -10.378  -2.753  0.00  0.00    -0.050 Br
ENDBRANCH   1  20
BRANCH   9  22
ATOM     22  S   UNL     1      -0.022   1.758   0.012  0.00  0.00    +0.061 S 
ATOM     23  O   UNL     1       1.334   2.182   0.001  0.00  0.00    -0.153 OA
ATOM     24  O   UNL     1      -0.953   2.157  -0.985  0.00  0.00    -0.153 OA
BRANCH  22  25
ATOM     25  N   UNL     1      -0.654   2.231   1.467  0.00  0.00    -0.177 NA
ATOM     26  C   UNL     1      -2.084   2.421   1.572  0.00  0.00    +0.109 C 
ATOM     27  C   UNL     1      -2.448   3.875   1.206  0.00  0.00    +0.017 C 
ATOM     28  C   UNL     1      -2.002   4.795   2.264  0.00  0.00    +0.001 C 
ATOM     29  C   UNL     1      -0.491   4.824   2.474  0.00  0.00    +0.001 C 
ATOM     30  C   UNL     1      -0.094   3.708   3.408  0.00  0.00    +0.017 C 
ATOM     31  C   UNL     1       0.265   2.446   2.602  0.00  0.00    +0.109 C 
ENDBRANCH  22  25
ENDBRANCH   9  22
TORSDOF 3
