REMARK  Name = ZINC36256780
REMARK  13 active torsions:
REMARK  status: ('A' for Active; 'I' for Inactive)
REMARK    1  A    between atoms: C_1  and  C_2
REMARK    2  A    between atoms: N_8  and  C_9
REMARK    3  A    between atoms: C_9  and  C_10
REMARK    4  A    between atoms: C_10  and  C_11
REMARK    5  A    between atoms: C_11  and  N_12
REMARK    6  A    between atoms: C_13  and  C_15
REMARK    7  A    between atoms: C_15  and  C_17
REMARK    8  A    between atoms: C_15  and  N_22
REMARK    9  A    between atoms: C_28  and  C_30
REMARK   10  A    between atoms: C_33  and  C_36
REMARK   11  A    between atoms: C_36  and  C_37
REMARK   12  A    between atoms: C_36  and  C_38
REMARK   13  A    between atoms: C_36  and  C_39
REMARK                            x       y       z     vdW  Elec       q    Type
REMARK                         _______ _______ _______ _____ _____    ______ ____
ROOT
ATOM      1  C   UNL     1       5.763   0.459   5.493  0.00  0.00    +0.146 C 
ENDROOT
BRANCH   1   2
ATOM      2  N   UNL     1       7.162   0.903   5.545  0.00  0.00    -0.288 NA
ATOM      3  C   UNL     1       7.798   0.496   6.805  0.00  0.00    +0.104 C 
ATOM      4  C   UNL     1       9.295   0.816   6.745  0.00  0.00    +0.123 C 
ATOM      5  N   UNL     1       9.456   2.236   6.398  0.00  0.00    -0.295 N 
ATOM      6  C   UNL     1       8.737   2.751   5.223  0.00  0.00    +0.123 C 
ATOM      7  C   UNL     1       7.261   2.355   5.343  0.00  0.00    +0.104 C 
ATOM      8  C   UNL     1      10.242   3.044   7.137  0.00  0.00    +0.247 C 
ATOM      9  O   UNL     1      10.425   4.196   6.792  0.00  0.00    -0.270 OA
BRANCH   8  10
ATOM     10  C   UNL     1      10.881   2.531   8.367  0.00  0.00    +0.037 A 
ATOM     11  C   UNL     1      11.507   1.283   8.363  0.00  0.00    +0.013 A 
ATOM     12  C   UNL     1      12.102   0.810   9.514  0.00  0.00    +0.005 A 
ATOM     13  C   UNL     1      12.079   1.569  10.671  0.00  0.00    -0.042 A 
ATOM     14  C   UNL     1      11.460   2.807  10.681  0.00  0.00    +0.005 A 
ATOM     15  C   UNL     1      10.867   3.294   9.536  0.00  0.00    +0.013 A 
BRANCH  13  16
ATOM     16  C   UNL     1      12.731   1.046  11.925  0.00  0.00    -0.013 C 
ATOM     17  C   UNL     1      14.220   0.809  11.665  0.00  0.00    +0.015 C 
ATOM     18  C   UNL     1      12.566   2.069  13.051  0.00  0.00    +0.015 C 
ATOM     19  C   UNL     1      12.068  -0.272  12.332  0.00  0.00    +0.015 C 
ENDBRANCH  13  16
ENDBRANCH   8  10
ENDBRANCH   1   2
BRANCH   1  20
ATOM     20  C   UNL     1       5.701  -1.055   5.708  0.00  0.00    +0.015 C 
ATOM     21  C   UNL     1       6.466  -1.780   4.581  0.00  0.00    +0.005 C 
ATOM     22  C   UNL     1       5.626  -3.053   4.310  0.00  0.00    +0.000 C 
ATOM     23  C   UNL     1       4.172  -2.541   4.459  0.00  0.00    +0.000 C 
ATOM     24  C   UNL     1       4.242  -1.538   5.630  0.00  0.00    +0.005 C 
ENDBRANCH   1  20
BRANCH   1  26
ATOM     25  N   UNL     1       3.857   1.048   4.031  0.00  0.00    -0.314 N 
ATOM     26  C   UNL     1       5.177   0.800   4.148  0.00  0.00    +0.231 C 
ATOM     27  O   UNL     1       5.893   0.852   3.170  0.00  0.00    -0.274 OA
ATOM     28  H   UNL     1       3.273   0.937   4.797  0.00  0.00    +0.149 HD
BRANCH  25  29
ATOM     29  C   UNL     1       3.305   1.485   2.746  0.00  0.00    +0.102 C 
BRANCH  29  30
ATOM     30  C   UNL     1       1.796   1.694   2.885  0.00  0.00    +0.000 C 
BRANCH  30  31
ATOM     31  C   UNL     1       1.219   2.151   1.543  0.00  0.00    -0.077 C 
BRANCH  31  38
ATOM     32  C   UNL     1      -0.028   4.202   0.086  0.00  0.00    -0.013 C 
ATOM     33  C   UNL     1      -0.763   2.903   0.424  0.00  0.00    -0.072 C 
ATOM     34  C   UNL     1      -2.257   3.191   0.585  0.00  0.00    -0.016 C 
ATOM     35  C   UNL     1      -2.988   1.889   0.923  0.00  0.00    -0.003 C 
ATOM     36  C   UNL     1      -2.374   1.284   2.189  0.00  0.00    -0.019 C 
ATOM     37  C   UNL     1      -0.875   1.067   1.969  0.00  0.00    -0.078 C 
ATOM     38  N   UNL     1      -0.230   2.352   1.676  0.00  0.00    +0.381 N 
ATOM     39  H   UNL     1      -0.410   2.998   2.430  0.00  0.00    -0.081 HD
ENDBRANCH  31  38
ENDBRANCH  30  31
ENDBRANCH  29  30
ENDBRANCH  25  29
ENDBRANCH   1  26
TORSDOF 9
