REMARK  Name = ZINC01642447
REMARK  5 active torsions:
REMARK  status: ('A' for Active; 'I' for Inactive)
REMARK    1  A    between atoms: C_4  and  C_7
REMARK    2  A    between atoms: C_15  and  S_17
REMARK    3  A    between atoms: S_17  and  C_18
REMARK    4  A    between atoms: C_18  and  C_19
REMARK    5  A    between atoms: C_19  and  C_21
REMARK                            x       y       z     vdW  Elec       q    Type
REMARK                         _______ _______ _______ _____ _____    ______ ____
ROOT
ATOM      1  C   UNL     1      -0.834   0.552   2.507  0.00  0.00    +0.001 A 
ATOM      2  C   UNL     1      -1.358   1.014   1.294  0.00  0.00    -0.018 A 
ATOM      3  C   UNL     1      -2.239   2.078   1.293  0.00  0.00    +0.047 A 
ATOM      4  N   UNL     1      -2.595   2.671   2.423  0.00  0.00    -0.232 NA
ATOM      5  C   UNL     1      -2.135   2.284   3.609  0.00  0.00    +0.167 A 
ATOM      6  C   UNL     1      -1.230   1.199   3.692  0.00  0.00    +0.067 A 
ATOM      7  C   UNL     1      -0.755   0.806   4.965  0.00  0.00    +0.130 A 
ATOM      8  N   UNL     1      -1.181   1.474   6.028  0.00  0.00    -0.207 NA
ATOM      9  C   UNL     1      -2.033   2.489   5.909  0.00  0.00    +0.192 A 
ATOM     10  N   UNL     1      -2.505   2.895   4.745  0.00  0.00    -0.202 NA
ATOM     11  N   UNL     1       0.128  -0.244   5.096  0.00  0.00    -0.342 N 
ATOM     12  C   UNL     1      -2.842   2.618   0.020  0.00  0.00    +0.056 C 
ATOM     13  C   UNL     1      -2.037   2.158  -1.193  0.00  0.00    +0.006 C 
ATOM     14  C   UNL     1      -1.871   0.635  -1.116  0.00  0.00    +0.005 C 
ATOM     15  C   UNL     1      -0.920   0.314   0.036  0.00  0.00    +0.037 C 
ATOM     16  H   UNL     1       0.062  -0.840   5.859  0.00  0.00    +0.144 HD
ATOM     17  H   UNL     1       0.815  -0.387   4.426  0.00  0.00    +0.144 HD
ENDROOT
BRANCH   1  21
ATOM     18  C   UNL     1       1.878  -2.719   2.607  0.00  0.00    +0.000 A 
ATOM     19  C   UNL     1       0.575  -2.891   3.038  0.00  0.00    +0.001 A 
ATOM     20  C   UNL     1      -0.310  -1.833   3.008  0.00  0.00    +0.008 A 
ATOM     21  C   UNL     1       0.111  -0.588   2.542  0.00  0.00    -0.017 A 
ATOM     22  C   UNL     1       1.425  -0.422   2.103  0.00  0.00    +0.008 A 
ATOM     23  C   UNL     1       2.302  -1.486   2.144  0.00  0.00    +0.001 A 
ENDBRANCH   1  21
BRANCH   9  24
ATOM     24  S   UNL     1      -2.553   3.328   7.369  0.00  0.00    -0.078 S 
BRANCH  24  25
ATOM     25  C   UNL     1      -1.633   2.392   8.615  0.00  0.00    +0.157 C 
BRANCH  25  26
ATOM     26  C   UNL     1      -1.931   2.949   9.983  0.00  0.00    +0.173 C 
ATOM     27  O   UNL     1      -2.690   3.886  10.104  0.00  0.00    -0.291 OA
BRANCH  26  28
ATOM     28  C   UNL     1      -1.300   2.354  11.172  0.00  0.00    +0.018 A 
ATOM     29  C   UNL     1      -0.428   1.269  11.038  0.00  0.00    +0.011 A 
ATOM     30  C   UNL     1       0.164   0.722  12.157  0.00  0.00    +0.001 A 
ATOM     31  C   UNL     1      -0.112   1.236  13.412  0.00  0.00    +0.000 A 
ATOM     32  C   UNL     1      -0.979   2.306  13.554  0.00  0.00    +0.001 A 
ATOM     33  C   UNL     1      -1.574   2.868  12.444  0.00  0.00    +0.011 A 
ENDBRANCH  26  28
ENDBRANCH  25  26
ENDBRANCH  24  25
ENDBRANCH   9  24
TORSDOF 5
