REMARK  Name = ZINC44233801
REMARK  5 active torsions:
REMARK  status: ('A' for Active; 'I' for Inactive)
REMARK    1  A    between atoms: C_1  and  C_2
REMARK    2  A    between atoms: C_2  and  C_3
REMARK    3  A    between atoms: C_8  and  O_9
REMARK    4  A    between atoms: O_9  and  C_10
REMARK    5  A    between atoms: C_20  and  O_22
REMARK                            x       y       z     vdW  Elec       q    Type
REMARK                         _______ _______ _______ _____ _____    ______ ____
ROOT
ATOM      1  C   UNL     1      -2.259  -0.592  -3.550  0.00  0.00    +0.243 C 
ATOM      2  C   UNL     1      -2.011  -2.038  -3.996  0.00  0.00    +0.276 C 
ATOM      3  O   UNL     1      -2.837  -2.308  -5.130  0.00  0.00    -0.488 OA
ATOM      4  C   UNL     1      -2.825  -1.413  -6.151  0.00  0.00    +0.126 A 
ATOM      5  C   UNL     1      -3.316  -1.813  -7.390  0.00  0.00    +0.046 A 
ATOM      6  C   UNL     1      -3.324  -0.931  -8.451  0.00  0.00    +0.004 A 
ATOM      7  C   UNL     1      -2.844   0.355  -8.284  0.00  0.00    +0.001 A 
ATOM      8  C   UNL     1      -2.354   0.755  -7.056  0.00  0.00    +0.010 A 
ATOM      9  C   UNL     1      -2.341  -0.127  -5.988  0.00  0.00    +0.026 A 
ATOM     10  C   UNL     1      -1.790   0.344  -4.666  0.00  0.00    +0.192 C 
ENDROOT
BRANCH  10  11
ATOM     11  O   UNL     1      -2.253   1.670  -4.402  0.00  0.00    -0.383 OA
ATOM     12  H   UNL     1      -1.993   2.318  -5.070  0.00  0.00    +0.210 HD
ENDBRANCH  10  11
BRANCH   1  13
ATOM     13  O   UNL     1      -1.522  -0.324  -2.355  0.00  0.00    -0.482 OA
BRANCH  13  19
ATOM     14  C   UNL     1      -1.502  -0.330   0.024  0.00  0.00    -0.006 A 
ATOM     15  C   UNL     1      -2.105  -0.671   1.219  0.00  0.00    +0.007 A 
ATOM     16  C   UNL     1      -3.311  -1.348   1.218  0.00  0.00    +0.000 A 
ATOM     17  C   UNL     1      -3.916  -1.685   0.022  0.00  0.00    +0.004 A 
ATOM     18  C   UNL     1      -3.317  -1.347  -1.176  0.00  0.00    +0.046 A 
ATOM     19  C   UNL     1      -2.110  -0.663  -1.178  0.00  0.00    +0.124 A 
BRANCH  14  21
ATOM     20  C   UNL     1      -0.446   1.911  -0.091  0.00  0.00    +0.009 C 
ATOM     21  C   UNL     1      -0.188   0.407   0.025  0.00  0.00    +0.035 C 
ENDBRANCH  14  21
ENDBRANCH  13  19
ENDBRANCH   1  13
TORSDOF 4
