REMARK  Name = ZINC33008969
REMARK  6 active torsions:
REMARK  status: ('A' for Active; 'I' for Inactive)
REMARK    1  A    between atoms: C_1  and  C_2
REMARK    2  A    between atoms: C_7  and  C_8
REMARK    3  A    between atoms: C_13  and  C_17
REMARK    4  A    between atoms: N_19  and  C_20
REMARK    5  A    between atoms: C_23  and  S_26
REMARK    6  A    between atoms: S_26  and  N_29
REMARK                            x       y       z     vdW  Elec       q    Type
REMARK                         _______ _______ _______ _____ _____    ______ ____
ROOT
ATOM      1  C   UNL     1       3.751  -0.566  -0.078  0.00  0.00    +0.044 C 
ATOM      2  C   UNL     1       2.421   0.141  -0.108  0.00  0.00    -0.045 A 
ATOM      3  C   UNL     1       1.259  -0.583   0.047  0.00  0.00    +0.033 A 
ATOM      4  C   UNL     1       0.025   0.072   0.018  0.00  0.00    +0.091 A 
ATOM      5  C   UNL     1      -0.015   1.464  -0.169  0.00  0.00    +0.078 A 
ATOM      6  C   UNL     1       1.164   2.176  -0.323  0.00  0.00    +0.032 A 
ATOM      7  C   UNL     1       2.375   1.515  -0.293  0.00  0.00    -0.045 A 
ATOM      8  C   UNL     1       3.656   2.290  -0.461  0.00  0.00    +0.044 C 
ATOM      9  N   UNL     1      -1.357   1.831  -0.147  0.00  0.00    -0.254 N 
ATOM     10  C   UNL     1      -1.955   3.012  -0.283  0.00  0.00    +0.259 A 
ATOM     11  O   UNL     1      -1.176   3.933  -0.446  0.00  0.00    -0.267 OA
ATOM     12  C   UNL     1      -3.289   3.410  -0.272  0.00  0.00    +0.091 A 
ATOM     13  C   UNL     1      -4.343   2.545  -0.103  0.00  0.00    +0.083 A 
ATOM     14  S   UNL     1      -3.829   0.846   0.103  0.00  0.00    -0.046 S 
ATOM     15  C   UNL     1      -2.062   0.657   0.042  0.00  0.00    +0.182 A 
ATOM     16  N   UNL     1      -1.259  -0.357   0.140  0.00  0.00    -0.221 NA
ENDROOT
BRANCH  13  17
ATOM     17  C   UNL     1      -5.761   2.977  -0.092  0.00  0.00    +0.255 C 
ATOM     18  O   UNL     1      -6.040   4.151  -0.238  0.00  0.00    -0.269 OA
ATOM     19  N   UNL     1      -6.741   2.068   0.080  0.00  0.00    -0.281 N 
ATOM     20  H   UNL     1      -6.495   0.997   0.125  0.00  0.00    +0.155 HD
BRANCH  19  21
ATOM     21  C   UNL     1      -8.069   2.486   0.200  0.00  0.00    +0.034 A 
ATOM     22  C   UNL     1      -8.365   3.693   0.821  0.00  0.00    +0.025 A 
ATOM     23  C   UNL     1      -9.678   4.107   0.932  0.00  0.00    +0.030 A 
ATOM     24  C   UNL     1     -10.698   3.315   0.439  0.00  0.00    +0.105 A 
ATOM     25  C   UNL     1     -10.408   2.110  -0.174  0.00  0.00    +0.030 A 
ATOM     26  C   UNL     1      -9.096   1.693  -0.295  0.00  0.00    +0.025 A 
BRANCH  24  27
ATOM     27  S   UNL     1     -12.372   3.843   0.591  0.00  0.00    +0.056 S 
ATOM     28  O   UNL     1     -12.342   5.258   0.714  0.00  0.00    -0.153 OA
ATOM     29  O   UNL     1     -13.101   3.183  -0.436  0.00  0.00    -0.153 OA
BRANCH  27  30
ATOM     30  N   UNL     1     -12.943   3.254   2.029  0.00  0.00    -0.204 NA
ATOM     31  H   UNL     1     -13.990   3.563   2.162  0.00  0.00    +0.144 HD
ATOM     32  H   UNL     1     -12.335   3.652   2.855  0.00  0.00    +0.144 HD
ENDBRANCH  27  30
ENDBRANCH  24  27
ENDBRANCH  19  21
ENDBRANCH  13  17
TORSDOF 4
