REMARK  Name = ZINC33277016
REMARK  10 active torsions:
REMARK  status: ('A' for Active; 'I' for Inactive)
REMARK    1  A    between atoms: C_1  and  C_2
REMARK    2  A    between atoms: C_2  and  N_3
REMARK    3  A    between atoms: N_3  and  C_4
REMARK    4  A    between atoms: C_4  and  C_5
REMARK    5  A    between atoms: C_6  and  C_8
REMARK    6  A    between atoms: C_11  and  C_14
REMARK    7  A    between atoms: C_18  and  N_24
REMARK    8  A    between atoms: N_22  and  C_23
REMARK    9  A    between atoms: N_24  and  S_25
REMARK   10  A    between atoms: S_25  and  C_28
REMARK                            x       y       z     vdW  Elec       q    Type
REMARK                         _______ _______ _______ _____ _____    ______ ____
ROOT
ATOM      1  C   UNL     1      -0.491  -2.591   2.052  0.00  0.00    +0.142 A 
ATOM      2  N   UNL     1       0.744  -2.160   2.135  0.00  0.00    -0.227 NA
ATOM      3  C   UNL     1       0.746  -0.840   2.436  0.00  0.00    +0.091 A 
ATOM      4  C   UNL     1       1.766   0.097   2.638  0.00  0.00    +0.054 A 
ATOM      5  C   UNL     1       1.444   1.406   2.941  0.00  0.00    +0.050 A 
ATOM      6  C   UNL     1       0.110   1.797   3.047  0.00  0.00    +0.026 A 
ATOM      7  C   UNL     1      -0.903   0.884   2.850  0.00  0.00    +0.030 A 
ATOM      8  C   UNL     1      -0.597  -0.436   2.545  0.00  0.00    +0.069 A 
ATOM      9  N   UNL     1      -1.359  -1.562   2.298  0.00  0.00    -0.327 N 
ATOM     10  C   UNL     1      -2.822  -1.639   2.298  0.00  0.00    +0.151 C 
ENDROOT
BRANCH   1  14
ATOM     11  C   UNL     1      -1.629  -6.588   1.154  0.00  0.00    +0.037 A 
ATOM     12  C   UNL     1      -2.467  -5.528   0.801  0.00  0.00    +0.014 A 
ATOM     13  C   UNL     1      -2.098  -4.234   1.092  0.00  0.00    +0.012 A 
ATOM     14  C   UNL     1      -0.887  -3.981   1.740  0.00  0.00    +0.018 A 
ATOM     15  C   UNL     1      -0.047  -5.042   2.088  0.00  0.00    +0.012 A 
ATOM     16  C   UNL     1      -0.418  -6.336   1.802  0.00  0.00    +0.014 A 
BRANCH  11  18
ATOM     17  N   UNL     1      -1.098  -8.956   0.831  0.00  0.00    -0.298 N 
ATOM     18  C   UNL     1      -2.025  -7.978   0.841  0.00  0.00    +0.247 C 
ATOM     19  O   UNL     1      -3.186  -8.238   0.593  0.00  0.00    -0.270 OA
BRANCH  17  21
ATOM     20  C   UNL     1      -1.166 -10.361  -1.170  0.00  0.00    +0.024 C 
ATOM     21  C   UNL     1      -1.445 -10.289   0.332  0.00  0.00    +0.104 C 
ENDBRANCH  17  21
BRANCH  17  22
ATOM     22  C   UNL     1       0.257  -8.687   1.318  0.00  0.00    +0.104 C 
ATOM     23  C   UNL     1       0.239  -8.584   2.845  0.00  0.00    +0.024 C 
ENDBRANCH  17  22
ENDBRANCH  11  18
ENDBRANCH   1  14
BRANCH   5  24
ATOM     24  N   UNL     1       2.462   2.344   3.143  0.00  0.00    -0.216 N 
ATOM     25  H   UNL     1       3.017   2.747   2.283  0.00  0.00    +0.174 HD
BRANCH  24  26
ATOM     26  S   UNL     1       2.831   2.848   4.676  0.00  0.00    +0.072 S 
ATOM     27  O   UNL     1       3.926   3.746   4.556  0.00  0.00    -0.150 OA
ATOM     28  O   UNL     1       1.604   3.220   5.288  0.00  0.00    -0.150 OA
BRANCH  26  29
ATOM     29  C   UNL     1       3.427   1.443   5.557  0.00  0.00    +0.108 A 
ATOM     30  C   UNL     1       2.536   0.586   6.175  0.00  0.00    +0.029 A 
ATOM     31  C   UNL     1       3.003  -0.520   6.861  0.00  0.00    +0.002 A 
ATOM     32  C   UNL     1       4.362  -0.761   6.939  0.00  0.00    +0.000 A 
ATOM     33  C   UNL     1       5.253   0.099   6.326  0.00  0.00    +0.002 A 
ATOM     34  C   UNL     1       4.786   1.201   5.635  0.00  0.00    +0.029 A 
ENDBRANCH  26  29
ENDBRANCH  24  26
ENDBRANCH   5  24
TORSDOF 7
