REMARK  Name = ZINC35167539
REMARK  7 active torsions:
REMARK  status: ('A' for Active; 'I' for Inactive)
REMARK    1  A    between atoms: C_3  and  N_16
REMARK    2  A    between atoms: C_6  and  C_7
REMARK    3  A    between atoms: C_7  and  N_9
REMARK    4  A    between atoms: C_7  and  O_15
REMARK    5  A    between atoms: N_16  and  C_17
REMARK    6  A    between atoms: C_18  and  C_19
REMARK    7  A    between atoms: C_19  and  C_21
REMARK                            x       y       z     vdW  Elec       q    Type
REMARK                         _______ _______ _______ _____ _____    ______ ____
ROOT
ATOM      1  C   UNL     1       0.258   1.411   1.658  0.00  0.00    +0.006 A 
ATOM      2  C   UNL     1       1.438   2.094   1.438  0.00  0.00    +0.023 A 
ATOM      3  C   UNL     1       2.540   1.425   0.920  0.00  0.00    +0.031 A 
ATOM      4  C   UNL     1       2.450   0.070   0.625  0.00  0.00    +0.023 A 
ATOM      5  C   UNL     1       1.267  -0.607   0.848  0.00  0.00    +0.006 A 
ATOM      6  C   UNL     1       0.172   0.062   1.363  0.00  0.00    -0.036 A 
ENDROOT
BRANCH   3   7
ATOM      7  N   UNL     1       3.735   2.113   0.696  0.00  0.00    -0.320 N 
ATOM      8  H   UNL     1       3.796   3.058   0.902  0.00  0.00    +0.152 HD
BRANCH   7   9
ATOM      9  C   UNL     1       4.818   1.453   0.187  0.00  0.00    +0.076 C 
ATOM     10  C   UNL     1       5.933   2.141  -0.146  0.00  0.00    +0.066 C 
BRANCH  10  11
ATOM     11  C   UNL     1       5.921   3.553  -0.139  0.00  0.00    +0.187 C 
ATOM     12  O   UNL     1       4.878   4.152   0.057  0.00  0.00    -0.287 OA
BRANCH  11  13
ATOM     13  C   UNL     1       7.174   4.305  -0.370  0.00  0.00    +0.022 A 
ATOM     14  C   UNL     1       8.369   3.622  -0.601  0.00  0.00    +0.013 A 
ATOM     15  C   UNL     1       9.534   4.329  -0.815  0.00  0.00    +0.016 A 
ATOM     16  C   UNL     1       9.519   5.713  -0.802  0.00  0.00    +0.018 A 
ATOM     17  C   UNL     1       8.337   6.397  -0.573  0.00  0.00    +0.016 A 
ATOM     18  C   UNL     1       7.164   5.701  -0.364  0.00  0.00    +0.013 A 
ATOM     19 BR   UNL     1      11.121   6.675  -1.096  0.00  0.00    -0.050 Br
ENDBRANCH  11  13
ENDBRANCH  10  11
ENDBRANCH   7   9
ENDBRANCH   3   7
BRANCH   6  20
ATOM     20  C   UNL     1      -1.117  -0.679   1.605  0.00  0.00    +0.093 C 
BRANCH  20  21
ATOM     21  N   UNL     1      -1.239  -1.777   0.635  0.00  0.00    +0.400 N 
ATOM     22  C   UNL     1      -1.229  -1.228  -0.726  0.00  0.00    -0.075 C 
ATOM     23  C   UNL     1      -1.274  -2.372  -1.741  0.00  0.00    -0.019 C 
ATOM     24  C   UNL     1      -2.554  -3.186  -1.528  0.00  0.00    -0.004 C 
ATOM     25  C   UNL     1      -2.590  -3.691  -0.082  0.00  0.00    -0.019 C 
ATOM     26  C   UNL     1      -2.496  -2.498   0.872  0.00  0.00    -0.075 C 
ATOM     27  H   UNL     1      -0.462  -2.411   0.747  0.00  0.00    -0.077 HD
ENDBRANCH  20  21
BRANCH  20  28
ATOM     28  O   UNL     1      -1.119  -1.213   2.930  0.00  0.00    -0.405 OA
ATOM     29  H   UNL     1      -0.396  -1.831   3.107  0.00  0.00    +0.208 HD
ENDBRANCH  20  28
ENDBRANCH   6  20
TORSDOF 7
