REMARK  Name = ZINC03438341
REMARK  6 active torsions:
REMARK  status: ('A' for Active; 'I' for Inactive)
REMARK    1  A    between atoms: C_1  and  O_2
REMARK    2  A    between atoms: O_2  and  C_3
REMARK    3  A    between atoms: C_8  and  C_9
REMARK    4  A    between atoms: C_13  and  S_15
REMARK    5  A    between atoms: S_15  and  C_16
REMARK    6  A    between atoms: C_16  and  C_17
REMARK                            x       y       z     vdW  Elec       q    Type
REMARK                         _______ _______ _______ _____ _____    ______ ____
ROOT
ATOM      1  S   UNL     1       1.845  -2.033  -0.026  0.00  0.00    -0.082 S 
ENDROOT
BRANCH   1   6
ATOM      2  C   UNL     1       1.275   1.799  -0.001  0.00  0.00    +0.186 A 
ATOM      3  N   UNL     1      -0.017   1.400   0.010  0.00  0.00    -0.151 NA
ATOM      4  H   UNL     1      -0.943  -0.567   0.008  0.00  0.00    +0.191 HD
ATOM      5  N   UNL     1       0.002  -0.004   0.002  0.00  0.00    -0.253 N 
ATOM      6  C   UNL     1       1.263  -0.370  -0.012  0.00  0.00    +0.185 A 
ATOM      7  N   UNL     1       2.033   0.720  -0.013  0.00  0.00    -0.201 NA
BRANCH   2  13
ATOM      8  C   UNL     1       3.126   3.472  -0.004  0.00  0.00    +0.131 A 
ATOM      9  C   UNL     1       3.565   4.787  -0.006  0.00  0.00    +0.048 A 
ATOM     10  C   UNL     1       2.650   5.822   0.008  0.00  0.00    +0.023 A 
ATOM     11  C   UNL     1       1.291   5.556   0.019  0.00  0.00    +0.042 A 
ATOM     12  C   UNL     1       0.838   4.252   0.017  0.00  0.00    +0.035 A 
ATOM     13  C   UNL     1       1.753   3.198   0.002  0.00  0.00    +0.064 A 
ATOM     14 CL   UNL     1       0.152   6.866   0.037  0.00  0.00    -0.084 Cl
BRANCH   8  16
ATOM     15  C   UNL     1       5.408   2.809  -0.017  0.00  0.00    +0.277 C 
ATOM     16  O   UNL     1       4.024   2.454  -0.011  0.00  0.00    -0.494 OA
ENDBRANCH   8  16
ENDBRANCH   2  13
ENDBRANCH   1   6
BRANCH   1  17
ATOM     17  C   UNL     1       0.329  -3.029  -0.017  0.00  0.00    +0.113 C 
BRANCH  17  18
ATOM     18  C   UNL     1       0.689  -4.492  -0.028  0.00  0.00    -0.020 A 
ATOM     19  C   UNL     1       0.868  -5.175   1.131  0.00  0.00    +0.097 A 
ATOM     20  C   UNL     1       1.205  -6.546   1.093  0.00  0.00    +0.338 A 
ATOM     21  O   UNL     1       1.363  -7.147   2.140  0.00  0.00    -0.245 OA
ATOM     22  O   UNL     1       1.356  -7.202  -0.067  0.00  0.00    -0.422 OA
ATOM     23  C   UNL     1       1.193  -6.582  -1.256  0.00  0.00    +0.140 A 
ATOM     24  C   UNL     1       0.851  -5.218  -1.291  0.00  0.00    +0.022 A 
ATOM     25  C   UNL     1       0.677  -4.577  -2.520  0.00  0.00    +0.015 A 
ATOM     26  C   UNL     1       0.835  -5.285  -3.693  0.00  0.00    -0.043 A 
ATOM     27  C   UNL     1       1.166  -6.632  -3.657  0.00  0.00    -0.041 A 
ATOM     28  C   UNL     1       1.352  -7.274  -2.447  0.00  0.00    +0.051 A 
ATOM     29  C   UNL     1       1.277  -7.167  -5.070  0.00  0.00    +0.036 C 
ATOM     30  C   UNL     1       0.554  -6.128  -5.953  0.00  0.00    +0.009 C 
ATOM     31  C   UNL     1       0.703  -4.830  -5.131  0.00  0.00    +0.036 C 
ENDBRANCH  17  18
ENDBRANCH   1  17
TORSDOF 5
