REMARK  Name = ZINC39369807
REMARK  10 active torsions:
REMARK  status: ('A' for Active; 'I' for Inactive)
REMARK    1  A    between atoms: C_1  and  O_2
REMARK    2  A    between atoms: O_2  and  C_3
REMARK    3  A    between atoms: C_8  and  C_13
REMARK    4  A    between atoms: C_13  and  C_28
REMARK    5  A    between atoms: C_14  and  C_15
REMARK    6  A    between atoms: C_20  and  O_21
REMARK    7  A    between atoms: O_21  and  C_22
REMARK    8  A    between atoms: C_22  and  C_23
REMARK    9  A    between atoms: C_23  and  O_25
REMARK   10  A    between atoms: O_25  and  C_26
REMARK                            x       y       z     vdW  Elec       q    Type
REMARK                         _______ _______ _______ _____ _____    ______ ____
ROOT
ATOM      1  C   UNL     1       3.517  -4.889   3.307  0.00  0.00    +0.072 C 
ATOM      2  C   UNL     1       3.941  -5.720   4.281  0.00  0.00    +0.030 C 
ENDROOT
BRANCH   1   8
ATOM      3  C   UNL     1       0.249  -1.994  -0.199  0.00  0.00    +0.122 A 
ATOM      4  C   UNL     1       0.268  -1.024   0.888  0.00  0.00    +0.048 A 
ATOM      5  C   UNL     1       0.726  -1.339   2.114  0.00  0.00    +0.031 A 
ATOM      6  C   UNL     1       1.224  -2.697   2.381  0.00  0.00    +0.061 A 
ATOM      7  N   UNL     1       1.712  -3.256   3.451  0.00  0.00    -0.359 N 
ATOM      8  C   UNL     1       2.042  -4.646   3.113  0.00  0.00    +0.216 C 
ATOM      9  N   UNL     1       1.682  -4.825   1.701  0.00  0.00    -0.359 N 
ATOM     10  C   UNL     1       1.204  -3.689   1.272  0.00  0.00    +0.064 A 
ATOM     11  C   UNL     1       0.685  -3.266  -0.030  0.00  0.00    +0.073 A 
ATOM     12  H   UNL     1       1.835  -2.832   4.315  0.00  0.00    +0.162 HD
ATOM     13  H   UNL     1       1.781  -5.639   1.182  0.00  0.00    +0.162 HD
BRANCH   3  15
ATOM     14  C   UNL     1      -0.673  -0.264  -1.540  0.00  0.00    +0.277 C 
ATOM     15  O   UNL     1      -0.225  -1.615  -1.412  0.00  0.00    -0.495 OA
ENDBRANCH   3  15
ENDBRANCH   1   8
BRANCH   2  16
ATOM     16  C   UNL     1       2.982  -6.263   5.254  0.00  0.00    +0.019 A 
ATOM     17  C   UNL     1       1.969  -5.449   5.772  0.00  0.00    +0.026 A 
ATOM     18  C   UNL     1       1.072  -5.965   6.683  0.00  0.00    +0.019 A 
ATOM     19  C   UNL     1       1.171  -7.287   7.090  0.00  0.00    +0.019 A 
ATOM     20  C   UNL     1       2.168  -8.101   6.587  0.00  0.00    +0.047 A 
ATOM     21  C   UNL     1       3.074  -7.602   5.665  0.00  0.00    +0.128 A 
ATOM     22 BR   UNL     1      -0.298  -4.865   7.383  0.00  0.00    -0.050 Br
BRANCH  21  23
ATOM     23  O   UNL     1       4.050  -8.402   5.166  0.00  0.00    -0.480 OA
BRANCH  23  24
ATOM     24  C   UNL     1       4.081  -9.753   5.631  0.00  0.00    +0.349 C 
BRANCH  24  25
ATOM     25  C   UNL     1       5.223 -10.485   4.973  0.00  0.00    +0.345 C 
ATOM     26  O   UNL     1       5.937  -9.908   4.187  0.00  0.00    -0.247 OA
BRANCH  25  27
ATOM     27  O   UNL     1       5.447 -11.777   5.260  0.00  0.00    -0.466 OA
ATOM     28  C   UNL     1       6.546 -12.407   4.600  0.00  0.00    +0.280 C 
ENDBRANCH  25  27
ENDBRANCH  24  25
ENDBRANCH  23  24
ENDBRANCH  21  23
ENDBRANCH   2  16
BRANCH   1  29
ATOM     29  C   UNL     1       4.467  -4.238   2.456  0.00  0.00    +0.099 C 
ATOM     30  N   UNL     1       5.222  -3.721   1.782  0.00  0.00    -0.191 NA
ENDBRANCH   1  29
TORSDOF 8
