REMARK  Name = ZINC32089799
REMARK  8 active torsions:
REMARK  status: ('A' for Active; 'I' for Inactive)
REMARK    1  A    between atoms: C_4  and  C_7
REMARK    2  A    between atoms: C_7  and  C_8
REMARK    3  A    between atoms: C_7  and  C_28
REMARK    4  A    between atoms: C_8  and  C_9
REMARK    5  A    between atoms: C_9  and  N_10
REMARK    6  A    between atoms: C_11  and  C_13
REMARK    7  A    between atoms: C_13  and  C_14
REMARK    8  A    between atoms: C_16  and  O_27
REMARK                            x       y       z     vdW  Elec       q    Type
REMARK                         _______ _______ _______ _____ _____    ______ ____
ROOT
ATOM      1  N   UNL     1       3.483  -1.308   3.698  0.00  0.00    -0.315 N 
ATOM      2  C   UNL     1       3.533  -0.673   4.886  0.00  0.00    +0.215 C 
ATOM      3  O   UNL     1       3.708   0.526   4.926  0.00  0.00    -0.276 OA
ATOM      4  H   UNL     1       3.342  -2.267   3.666  0.00  0.00    +0.149 HD
ENDROOT
BRANCH   1   5
ATOM      5  C   UNL     1       3.642  -0.548   2.455  0.00  0.00    +0.105 C 
BRANCH   5   6
ATOM      6  C   UNL     1       3.546  -1.500   1.260  0.00  0.00    +0.031 C 
BRANCH   6   7
ATOM      7  C   UNL     1       3.711  -0.707  -0.038  0.00  0.00    +0.050 C 
BRANCH   7  11
ATOM      8  C   UNL     1       0.435   1.998  -0.484  0.00  0.00    +0.000 A 
ATOM      9  C   UNL     1       1.734   2.463  -0.576  0.00  0.00    +0.000 A 
ATOM     10  C   UNL     1       2.794   1.588  -0.432  0.00  0.00    +0.004 A 
ATOM     11  C   UNL     1       2.556   0.247  -0.194  0.00  0.00    -0.040 A 
ATOM     12  C   UNL     1       1.257  -0.218  -0.101  0.00  0.00    +0.004 A 
ATOM     13  C   UNL     1       0.197   0.657  -0.247  0.00  0.00    +0.000 A 
ENDBRANCH   7  11
BRANCH   7  14
ATOM     14  C   UNL     1       3.740  -1.658  -1.207  0.00  0.00    -0.040 A 
ATOM     15  C   UNL     1       2.732  -2.591  -1.363  0.00  0.00    +0.004 A 
ATOM     16  C   UNL     1       2.758  -3.463  -2.435  0.00  0.00    +0.000 A 
ATOM     17  C   UNL     1       3.791  -3.401  -3.351  0.00  0.00    +0.000 A 
ATOM     18  C   UNL     1       4.798  -2.467  -3.196  0.00  0.00    +0.000 A 
ATOM     19  C   UNL     1       4.770  -1.592  -2.126  0.00  0.00    +0.004 A 
ENDBRANCH   7  14
ENDBRANCH   6   7
ENDBRANCH   5   6
ENDBRANCH   1   5
BRANCH   2  20
ATOM     20  C   UNL     1       3.369  -1.454   6.165  0.00  0.00    +0.127 C 
BRANCH  20  21
ATOM     21  C   UNL     1       3.465  -0.502   7.359  0.00  0.00    +0.167 C 
ATOM     22  C   UNL     1       3.189  -1.258   8.628  0.00  0.00    +0.209 C 
ATOM     23  N   UNL     1       3.836  -2.311   8.961  0.00  0.00    -0.215 NA
ATOM     24  C   UNL     1       4.819  -2.907   8.237  0.00  0.00    +0.079 A 
ATOM     25  C   UNL     1       4.818  -4.310   8.181  0.00  0.00    +0.028 A 
ATOM     26  C   UNL     1       5.790  -4.982   7.478  0.00  0.00    +0.002 A 
ATOM     27  C   UNL     1       6.786  -4.279   6.816  0.00  0.00    +0.001 A 
ATOM     28  C   UNL     1       6.804  -2.905   6.854  0.00  0.00    +0.015 A 
ATOM     29  C   UNL     1       5.818  -2.197   7.559  0.00  0.00    +0.062 A 
ATOM     30  C   UNL     1       5.884  -0.732   7.536  0.00  0.00    +0.247 C 
ATOM     31  O   UNL     1       6.978  -0.207   7.619  0.00  0.00    -0.270 OA
ATOM     32  N   UNL     1       4.814   0.063   7.429  0.00  0.00    -0.299 N 
ATOM     33  H   UNL     1       4.931   1.026   7.398  0.00  0.00    +0.150 HD
BRANCH  22  34
ATOM     34  O   UNL     1       2.221  -0.808   9.450  0.00  0.00    -0.494 OA
ATOM     35  H   UNL     1       2.100  -1.344  10.246  0.00  0.00    +0.293 HD
ENDBRANCH  22  34
ENDBRANCH  20  21
ENDBRANCH   2  20
TORSDOF 8
