REMARK  Name = ZINC65513925
REMARK  11 active torsions:
REMARK  status: ('A' for Active; 'I' for Inactive)
REMARK    1  A    between atoms: C_1  and  C_2
REMARK    2  A    between atoms: C_7  and  C_9
REMARK    3  A    between atoms: C_7  and  N_26
REMARK    4  A    between atoms: C_9  and  N_10
REMARK    5  A    between atoms: N_13  and  C_14
REMARK    6  A    between atoms: C_17  and  N_20
REMARK    7  A    between atoms: C_21  and  C_23
REMARK    8  A    between atoms: C_23  and  C_24
REMARK    9  A    between atoms: C_23  and  C_25
REMARK   10  A    between atoms: N_26  and  C_27
REMARK   11  A    between atoms: N_26  and  C_28
REMARK                            x       y       z     vdW  Elec       q    Type
REMARK                         _______ _______ _______ _____ _____    ______ ____
ROOT
ATOM      1  N   UNL     1       1.529  -3.547   0.473  0.00  0.00    -0.300 N 
ATOM      2  C   UNL     1       2.183  -4.233  -0.485  0.00  0.00    +0.304 C 
ATOM      3  O   UNL     1       2.736  -3.637  -1.389  0.00  0.00    -0.253 OA
ATOM      4  N   UNL     1       2.225  -5.580  -0.441  0.00  0.00    -0.269 N 
ATOM      5  H   UNL     1       1.087  -4.023   1.194  0.00  0.00    +0.150 HD
ATOM      6  H   UNL     1       1.841  -6.052   0.314  0.00  0.00    +0.156 HD
ENDROOT
BRANCH   4   7
ATOM      7  C   UNL     1       2.822  -6.297  -1.486  0.00  0.00    +0.035 A 
ATOM      8  C   UNL     1       2.299  -7.523  -1.874  0.00  0.00    +0.025 A 
ATOM      9  C   UNL     1       2.888  -8.230  -2.904  0.00  0.00    +0.025 A 
ATOM     10  C   UNL     1       4.003  -7.714  -3.551  0.00  0.00    +0.034 A 
ATOM     11  C   UNL     1       4.526  -6.488  -3.163  0.00  0.00    +0.025 A 
ATOM     12  C   UNL     1       3.934  -5.779  -2.137  0.00  0.00    +0.025 A 
BRANCH  10  13
ATOM     13  N   UNL     1       4.600  -8.432  -4.595  0.00  0.00    -0.285 N 
ATOM     14  C   UNL     1       3.839  -9.165  -5.431  0.00  0.00    +0.220 C 
ATOM     15  O   UNL     1       2.630  -9.126  -5.342  0.00  0.00    -0.275 OA
ATOM     16  H   UNL     1       5.562  -8.401  -4.717  0.00  0.00    +0.155 HD
BRANCH  14  17
ATOM     17  C   UNL     1       4.490 -10.033  -6.477  0.00  0.00    +0.069 C 
ATOM     18  C   UNL     1       5.389 -11.066  -5.795  0.00  0.00    +0.017 C 
ATOM     19  C   UNL     1       3.409 -10.754  -7.287  0.00  0.00    +0.017 C 
ENDBRANCH  14  17
ENDBRANCH  10  13
ENDBRANCH   4   7
BRANCH   1  20
ATOM     20  C   UNL     1       1.484  -2.084   0.425  0.00  0.00    +0.094 C 
BRANCH  20  26
ATOM     21  C   UNL     1       3.789  -1.870   4.081  0.00  0.00    +0.007 C 
ATOM     22  C   UNL     1       3.002  -1.432   2.844  0.00  0.00    -0.015 C 
ATOM     23  C   UNL     1       2.947   0.096   2.789  0.00  0.00    +0.003 C 
ATOM     24  C   UNL     1       2.160   0.534   1.553  0.00  0.00    -0.001 C 
ATOM     25  C   UNL     1       0.738  -0.025   1.628  0.00  0.00    -0.010 C 
ATOM     26  C   UNL     1       0.793  -1.553   1.683  0.00  0.00    -0.050 C 
ATOM     27  C   UNL     1       1.580  -1.991   2.920  0.00  0.00    -0.007 C 
BRANCH  26  28
ATOM     28  N   UNL     1      -0.572  -2.091   1.756  0.00  0.00    +0.381 N 
ATOM     29  C   UNL     1      -1.274  -1.491   2.899  0.00  0.00    -0.096 C 
ATOM     30  C   UNL     1      -1.291  -1.769   0.516  0.00  0.00    -0.096 C 
ATOM     31  H   UNL     1      -0.533  -3.092   1.872  0.00  0.00    -0.082 HD
ENDBRANCH  26  28
ENDBRANCH  20  26
ENDBRANCH   1  20
TORSDOF 6
