REMARK  Name = ZINC09316224
REMARK  6 active torsions:
REMARK  status: ('A' for Active; 'I' for Inactive)
REMARK    1  A    between atoms: C_1  and  C_2
REMARK    2  A    between atoms: C_11  and  N_21
REMARK    3  A    between atoms: C_13  and  C_15
REMARK    4  A    between atoms: C_15  and  N_63
REMARK    5  A    between atoms: N_21  and  C_22
REMARK    6  A    between atoms: C_22  and  C_23
REMARK                            x       y       z     vdW  Elec       q    Type
REMARK                         _______ _______ _______ _____ _____    ______ ____
ROOT
ATOM      1  C   UNL     1      -4.202  -3.840  -1.137  0.00  0.00    +0.008 C 
ATOM      2  C   UNL     1      -3.178  -2.842  -0.591  0.00  0.00    -0.009 C 
ATOM      3  C   UNL     1      -3.404  -1.468  -1.229  0.00  0.00    +0.008 C 
ATOM      4  C   UNL     1      -2.556  -0.417  -0.512  0.00  0.00    +0.037 C 
ATOM      5  C   UNL     1      -1.107  -0.896  -0.473  0.00  0.00    -0.025 A 
ATOM      6  C   UNL     1      -0.805  -2.195  -0.669  0.00  0.00    -0.004 A 
ATOM      7  S   UNL     1       0.960  -2.285  -0.538  0.00  0.00    -0.073 S 
ATOM      8  C   UNL     1       1.292  -0.573  -0.219  0.00  0.00    +0.114 A 
ATOM      9  C   UNL     1       0.011   0.016  -0.226  0.00  0.00    +0.051 A 
ATOM     10  C   UNL     1      -0.017   1.418   0.010  0.00  0.00    +0.131 A 
ATOM     11  N   UNL     1       1.122   2.060   0.214  0.00  0.00    -0.219 NA
ATOM     12  C   UNL     1       2.289   1.442   0.207  0.00  0.00    +0.116 A 
ATOM     13  N   UNL     1       2.379   0.143  -0.006  0.00  0.00    -0.227 NA
ATOM     14  C   UNL     1      -1.760  -3.318  -0.938  0.00  0.00    +0.046 C 
ENDROOT
BRANCH  10  15
ATOM     15  N   UNL     1      -1.219   2.103   0.019  0.00  0.00    -0.324 N 
ATOM     16  H   UNL     1      -2.055   1.616  -0.053  0.00  0.00    +0.148 HD
BRANCH  15  17
ATOM     17  C   UNL     1      -1.230   3.563   0.138  0.00  0.00    +0.139 C 
BRANCH  17  18
ATOM     18  C   UNL     1      -2.653   4.058   0.123  0.00  0.00    -0.012 A 
ATOM     19  C   UNL     1      -3.361   4.191   1.310  0.00  0.00    +0.010 A 
ATOM     20  C   UNL     1      -4.666   4.649   1.251  0.00  0.00    +0.048 A 
ATOM     21  C   UNL     1      -5.219   4.958   0.015  0.00  0.00    +0.154 A 
ATOM     22  N   UNL     1      -4.512   4.818  -1.095  0.00  0.00    -0.236 NA
ATOM     23  C   UNL     1      -3.264   4.389  -1.070  0.00  0.00    +0.118 A 
ATOM     24  N   UNL     1      -6.536   5.422  -0.058  0.00  0.00    -0.222 N 
ATOM     25  C   UNL     1      -7.202   5.766  -1.191  0.00  0.00    +0.116 A 
ATOM     26  C   UNL     1      -8.446   6.159  -0.832  0.00  0.00    +0.041 A 
ATOM     27  C   UNL     1      -8.544   6.061   0.561  0.00  0.00    +0.135 A 
ATOM     28  N   UNL     1      -7.403   5.620   1.024  0.00  0.00    -0.173 NA
ENDBRANCH  17  18
ENDBRANCH  15  17
ENDBRANCH  10  15
BRANCH  12  29
ATOM     29  C   UNL     1       3.546   2.238   0.448  0.00  0.00    -0.001 C 
BRANCH  29  35
ATOM     30  C   UNL     1       4.524   1.614  -1.678  0.00  0.00    -0.050 C 
ATOM     31  C   UNL     1       5.004   2.163  -3.024  0.00  0.00    +0.141 C 
ATOM     32  O   UNL     1       6.035   3.128  -2.800  0.00  0.00    -0.383 OA
ATOM     33  C   UNL     1       5.625   4.228  -1.983  0.00  0.00    +0.141 C 
ATOM     34  C   UNL     1       5.151   3.700  -0.626  0.00  0.00    -0.050 C 
ATOM     35  N   UNL     1       4.049   2.741  -0.849  0.00  0.00    +0.387 N 
ATOM     36  H   UNL     1       3.285   3.219  -1.341  0.00  0.00    -0.081 HD
ENDBRANCH  29  35
ENDBRANCH  12  29
TORSDOF 5
