REMARK  Name = ZINC08180885
REMARK  5 active torsions:
REMARK  status: ('A' for Active; 'I' for Inactive)
REMARK    1  A    between atoms: C_11  and  C_14
REMARK    2  A    between atoms: C_14  and  C_15
REMARK    3  A    between atoms: N_17  and  C_18
REMARK    4  A    between atoms: C_21  and  S_24
REMARK    5  A    between atoms: S_24  and  N_27
REMARK                            x       y       z     vdW  Elec       q    Type
REMARK                         _______ _______ _______ _____ _____    ______ ____
ROOT
ATOM      1  C   UNL     1       2.929   6.012  -1.408  0.00  0.00    +0.222 C 
ATOM      2  O   UNL     1       2.128   6.019  -2.318  0.00  0.00    -0.275 OA
ATOM      3  N   UNL     1       4.241   5.840  -1.667  0.00  0.00    -0.285 N 
ATOM      4  H   UNL     1       4.889   5.901  -0.947  0.00  0.00    +0.155 HD
ENDROOT
BRANCH   3   5
ATOM      5  C   UNL     1       4.668   5.574  -2.972  0.00  0.00    +0.034 A 
ATOM      6  C   UNL     1       5.750   4.731  -3.192  0.00  0.00    +0.025 A 
ATOM      7  C   UNL     1       6.165   4.466  -4.483  0.00  0.00    +0.030 A 
ATOM      8  C   UNL     1       5.512   5.048  -5.554  0.00  0.00    +0.105 A 
ATOM      9  C   UNL     1       4.438   5.891  -5.338  0.00  0.00    +0.030 A 
ATOM     10  C   UNL     1       4.014   6.156  -4.050  0.00  0.00    +0.025 A 
BRANCH   8  11
ATOM     11  S   UNL     1       6.049   4.712  -7.198  0.00  0.00    +0.056 S 
ATOM     12  O   UNL     1       6.728   3.464  -7.157  0.00  0.00    -0.153 OA
ATOM     13  O   UNL     1       4.933   4.944  -8.046  0.00  0.00    -0.153 OA
BRANCH  11  14
ATOM     14  N   UNL     1       7.184   5.855  -7.586  0.00  0.00    -0.204 NA
ATOM     15  H   UNL     1       7.426   6.537  -6.939  0.00  0.00    +0.144 HD
ATOM     16  H   UNL     1       7.606   5.843  -8.459  0.00  0.00    +0.144 HD
ENDBRANCH  11  14
ENDBRANCH   8  11
ENDBRANCH   3   5
BRANCH   1  17
ATOM     17  C   UNL     1       2.459   6.194   0.012  0.00  0.00    +0.135 C 
BRANCH  17  28
ATOM     18  C   UNL     1       0.002   1.076   0.045  0.00  0.00    +0.001 A 
ATOM     19  C   UNL     1       1.202   1.782   0.032  0.00  0.00    +0.001 A 
ATOM     20  C   UNL     1       1.212   3.145   0.029  0.00  0.00    +0.009 A 
ATOM     21  C   UNL     1       0.002   3.847   0.041  0.00  0.00    -0.007 A 
ATOM     22  C   UNL     1      -1.221   3.132   0.055  0.00  0.00    -0.017 A 
ATOM     23  C   UNL     1      -1.194   1.728   0.052  0.00  0.00    +0.008 A 
ATOM     24  C   UNL     1      -2.438   3.840   0.067  0.00  0.00    +0.012 A 
ATOM     25  C   UNL     1      -2.461   5.196   0.065  0.00  0.00    +0.047 A 
ATOM     26  C   UNL     1      -1.283   5.951   0.051  0.00  0.00    +0.136 A 
ATOM     27  C   UNL     1      -0.043   5.304   0.039  0.00  0.00    +0.031 A 
ATOM     28  C   UNL     1       0.961   6.365   0.026  0.00  0.00    +0.007 A 
ATOM     29  C   UNL     1       0.281   7.523   0.032  0.00  0.00    +0.200 A 
ATOM     30  O   UNL     1      -1.040   7.277   0.046  0.00  0.00    -0.463 OA
ENDBRANCH  17  28
ENDBRANCH   1  17
TORSDOF 5
