REMARK  Name = ZINC52661391
REMARK  7 active torsions:
REMARK  status: ('A' for Active; 'I' for Inactive)
REMARK    1  A    between atoms: C_1  and  C_2
REMARK    2  A    between atoms: C_2  and  C_4
REMARK    3  A    between atoms: C_2  and  N_15
REMARK    4  A    between atoms: N_6  and  C_7
REMARK    5  A    between atoms: N_15  and  C_16
REMARK    6  A    between atoms: C_16  and  C_18
REMARK    7  A    between atoms: C_16  and  C_24
REMARK                            x       y       z     vdW  Elec       q    Type
REMARK                         _______ _______ _______ _____ _____    ______ ____
ROOT
ATOM      1  C   UNL     1      -0.034   1.539  -0.001  0.00  0.00    +0.034 C 
ATOM      2  C   UNL     1      -0.003   0.009  -0.005  0.00  0.00    +0.138 C 
ENDROOT
BRANCH   2   3
ATOM      3  C   UNL     1      -1.413  -0.522   0.011  0.00  0.00    +0.234 C 
ATOM      4  O   UNL     1      -1.806  -1.225  -0.896  0.00  0.00    -0.274 OA
ATOM      5  N   UNL     1      -2.236  -0.217   1.033  0.00  0.00    -0.282 N 
ATOM      6  H   UNL     1      -1.899   0.277   1.797  0.00  0.00    +0.155 HD
BRANCH   5   7
ATOM      7  C   UNL     1      -3.580  -0.613   0.993  0.00  0.00    +0.069 A 
ATOM      8  C   UNL     1      -4.202  -0.840  -0.227  0.00  0.00    +0.029 A 
ATOM      9  C   UNL     1      -5.526  -1.231  -0.265  0.00  0.00    +0.040 A 
ATOM     10  C   UNL     1      -6.235  -1.396   0.913  0.00  0.00    +0.126 A 
ATOM     11  C   UNL     1      -5.618  -1.171   2.132  0.00  0.00    +0.078 A 
ATOM     12  C   UNL     1      -4.291  -0.786   2.175  0.00  0.00    +0.147 A 
ATOM     13  F   UNL     1      -3.687  -0.571   3.365  0.00  0.00    -0.203 F 
ATOM     14  F   UNL     1      -7.530  -1.779   0.873  0.00  0.00    -0.205 F 
ENDBRANCH   5   7
ENDBRANCH   2   3
BRANCH   2  15
ATOM     15  N   UNL     1       0.685  -0.463  -1.215  0.00  0.00    -0.293 NA
ATOM     16  H   UNL     1       0.338  -1.367  -1.498  0.00  0.00    +0.124 HD
BRANCH  15  17
ATOM     17  C   UNL     1       2.139  -0.496  -1.015  0.00  0.00    +0.151 C 
BRANCH  17  18
ATOM     18  C   UNL     1       2.753  -1.504  -1.952  0.00  0.00    -0.023 A 
ATOM     19  C   UNL     1       2.292  -1.610  -3.251  0.00  0.00    +0.005 A 
ATOM     20  C   UNL     1       2.854  -2.536  -4.110  0.00  0.00    +0.000 A 
ATOM     21  C   UNL     1       3.878  -3.355  -3.670  0.00  0.00    +0.000 A 
ATOM     22  C   UNL     1       4.339  -3.248  -2.371  0.00  0.00    +0.000 A 
ATOM     23  C   UNL     1       3.779  -2.320  -1.513  0.00  0.00    +0.005 A 
ENDBRANCH  17  18
BRANCH  17  24
ATOM     24  C   UNL     1       2.717   0.868  -1.297  0.00  0.00    +0.126 A 
ATOM     25  C   UNL     1       3.698   1.466  -0.598  0.00  0.00    +0.046 A 
ATOM     26  C   UNL     1       3.924   2.723  -1.204  0.00  0.00    +0.041 A 
ATOM     27  C   UNL     1       3.067   2.818  -2.237  0.00  0.00    +0.195 A 
ATOM     28  O   UNL     1       2.343   1.688  -2.292  0.00  0.00    -0.466 OA
ENDBRANCH  17  24
ENDBRANCH  15  17
ENDBRANCH   2  15
TORSDOF 6
