REMARK  Name = ZINC08835415
REMARK  5 active torsions:
REMARK  status: ('A' for Active; 'I' for Inactive)
REMARK    1  A    between atoms: N_11  and  C_12
REMARK    2  A    between atoms: C_12  and  N_14
REMARK    3  A    between atoms: C_15  and  C_17
REMARK    4  A    between atoms: C_20  and  N_26
REMARK    5  A    between atoms: C_21  and  N_23
REMARK                            x       y       z     vdW  Elec       q    Type
REMARK                         _______ _______ _______ _____ _____    ______ ____
ROOT
ATOM      1  N   UNL     1      -2.002  -5.745  -0.009  0.00  0.00    -0.262 N 
ATOM      2  C   UNL     1      -3.288  -6.149   0.002  0.00  0.00    +0.250 C 
ATOM      3  O   UNL     1      -4.183  -5.327   0.014  0.00  0.00    -0.270 OA
ATOM      4  H   UNL     1      -1.192  -6.490  -0.020  0.00  0.00    +0.157 HD
ENDROOT
BRANCH   2   5
ATOM      5  C   UNL     1      -3.608  -7.588  -0.003  0.00  0.00    +0.039 A 
ATOM      6  C   UNL     1      -2.580  -8.536  -0.022  0.00  0.00    +0.015 A 
ATOM      7  C   UNL     1      -2.878  -9.869  -0.021  0.00  0.00    +0.026 A 
ATOM      8  C   UNL     1      -4.205 -10.290  -0.011  0.00  0.00    +0.060 A 
ATOM      9  C   UNL     1      -5.235  -9.354   0.004  0.00  0.00    +0.148 A 
ATOM     10  C   UNL     1      -4.942  -8.009   0.008  0.00  0.00    +0.047 A 
BRANCH   8  11
ATOM     11  N   UNL     1      -4.501 -11.648  -0.015  0.00  0.00    -0.328 N 
ATOM     12  C   UNL     1      -4.019 -12.296   1.212  0.00  0.00    +0.105 C 
ATOM     13  C   UNL     1      -4.488 -13.752   1.240  0.00  0.00    +0.019 C 
ATOM     14  C   UNL     1      -3.945 -14.482   0.008  0.00  0.00    +0.003 C 
ATOM     15  C   UNL     1      -4.422 -13.759  -1.255  0.00  0.00    +0.019 C 
ATOM     16  C   UNL     1      -3.955 -12.303  -1.211  0.00  0.00    +0.105 C 
ENDBRANCH   8  11
BRANCH   9  17
ATOM     17  N   UNL     1      -6.645  -9.805   0.014  0.00  0.00    +0.058 N 
ATOM     18  O   UNL     1      -7.546  -8.986   0.026  0.00  0.00    -0.126 OA
ATOM     19  O   UNL     1      -6.904 -10.995   0.010  0.00  0.00    -0.126 OA
ENDBRANCH   9  17
ENDBRANCH   2   5
BRANCH   1  20
ATOM     20  C   UNL     1      -1.709  -4.430  -0.005  0.00  0.00    +0.163 C 
ATOM     21  S   UNL     1      -2.969  -3.272   0.012  0.00  0.00    -0.016 S 
BRANCH  20  32
ATOM     22  C   UNL     1       1.177   2.068   0.002  0.00  0.00    +0.003 A 
ATOM     23  C   UNL     1      -0.017   1.368   0.010  0.00  0.00    +0.017 A 
ATOM     24  C   UNL     1       0.002  -0.004   0.002  0.00  0.00    +0.040 A 
ATOM     25  C   UNL     1       1.202  -0.751  -0.013  0.00  0.00    +0.073 A 
ATOM     26  C   UNL     1       2.403  -0.003  -0.021  0.00  0.00    +0.065 A 
ATOM     27  C   UNL     1       2.374   1.368  -0.014  0.00  0.00    +0.022 A 
ATOM     28 CL   UNL     1       3.929  -0.830  -0.040  0.00  0.00    -0.081 Cl
ATOM     29  N   UNL     1       1.056  -2.094  -0.019  0.00  0.00    -0.334 N 
ATOM     30  C   UNL     1      -0.122  -2.675  -0.011  0.00  0.00    +0.163 A 
ATOM     31  S   UNL     1      -1.236  -1.278   0.007  0.00  0.00    -0.052 S 
ATOM     32  N   UNL     1      -0.423  -4.026  -0.015  0.00  0.00    -0.169 NA
ATOM     33  H   UNL     1       1.943  -2.744  -0.031  0.00  0.00    +0.168 HD
ENDBRANCH  20  32
ENDBRANCH   1  20
TORSDOF 5
