REMARK  Name = ZINC35486276
REMARK  12 active torsions:
REMARK  status: ('A' for Active; 'I' for Inactive)
REMARK    1  A    between atoms: C_1  and  C_2
REMARK    2  A    between atoms: C_2  and  N_3
REMARK    3  A    between atoms: N_3  and  C_4
REMARK    4  A    between atoms: N_3  and  C_6
REMARK    5  A    between atoms: C_4  and  C_5
REMARK    6  A    between atoms: C_6  and  C_7
REMARK    7  A    between atoms: C_7  and  N_8
REMARK    8  A    between atoms: C_9  and  C_26
REMARK    9  A    between atoms: C_16  and  C_25
REMARK   10  A    between atoms: C_17  and  C_24
REMARK   11  A    between atoms: C_30  and  O_32
REMARK   12  A    between atoms: O_32  and  C_33
REMARK                            x       y       z     vdW  Elec       q    Type
REMARK                         _______ _______ _______ _____ _____    ______ ____
ROOT
ATOM      1  N   UNL     1       1.075  -3.079   0.462  0.00  0.00    -0.285 N 
ATOM      2  C   UNL     1       2.270  -3.767   0.978  0.00  0.00    +0.145 C 
ATOM      3  C   UNL     1       2.103  -5.205   0.610  0.00  0.00    +0.072 A 
ATOM      4  C   UNL     1       2.966  -6.368   0.844  0.00  0.00    +0.199 A 
ATOM      5  O   UNL     1       3.942  -6.339   1.572  0.00  0.00    -0.287 OA
ATOM      6  C   UNL     1       2.535  -7.584   0.108  0.00  0.00    +0.065 A 
ATOM      7  C   UNL     1       3.355  -8.711   0.066  0.00  0.00    +0.019 A 
ATOM      8  C   UNL     1       2.947  -9.821  -0.620  0.00  0.00    -0.047 A 
ATOM      9  C   UNL     1       1.722  -9.828  -1.272  0.00  0.00    -0.044 A 
ATOM     10  C   UNL     1       0.899  -8.725  -1.240  0.00  0.00    +0.050 A 
ATOM     11  C   UNL     1       1.292  -7.581  -0.544  0.00  0.00    +0.140 A 
ATOM     12  O   UNL     1       0.463  -6.512  -0.517  0.00  0.00    -0.450 OA
ATOM     13  C   UNL     1       0.916  -5.330  -0.053  0.00  0.00    +0.199 A 
ATOM     14  C   UNL     1       0.289  -3.999  -0.134  0.00  0.00    +0.283 C 
ATOM     15  O   UNL     1      -0.780  -3.764  -0.662  0.00  0.00    -0.267 OA
ATOM     16  C   UNL     1       1.287 -11.058  -2.026  0.00  0.00    +0.044 C 
ATOM     17  C   UNL     1       3.830 -11.041  -0.668  0.00  0.00    +0.044 C 
ENDROOT
BRANCH   2  18
ATOM     18  C   UNL     1       3.511  -3.205   0.336  0.00  0.00    -0.019 A 
ATOM     19  C   UNL     1       3.507  -2.881  -1.009  0.00  0.00    +0.006 A 
ATOM     20  C   UNL     1       4.645  -2.364  -1.601  0.00  0.00    +0.004 A 
ATOM     21  C   UNL     1       5.789  -2.171  -0.852  0.00  0.00    +0.046 A 
ATOM     22  C   UNL     1       5.796  -2.496   0.497  0.00  0.00    +0.129 A 
ATOM     23  C   UNL     1       4.651  -3.009   1.091  0.00  0.00    +0.052 A 
BRANCH  22  24
ATOM     24  O   UNL     1       6.920  -2.307   1.237  0.00  0.00    -0.456 OA
BRANCH  24  25
ATOM     25  C   UNL     1       6.919  -2.747   2.523  0.00  0.00    +0.128 A 
ATOM     26  C   UNL     1       7.058  -4.101   2.794  0.00  0.00    +0.046 A 
ATOM     27  C   UNL     1       7.056  -4.546   4.102  0.00  0.00    +0.004 A 
ATOM     28  C   UNL     1       6.916  -3.643   5.140  0.00  0.00    +0.000 A 
ATOM     29  C   UNL     1       6.778  -2.294   4.872  0.00  0.00    +0.004 A 
ATOM     30  C   UNL     1       6.785  -1.843   3.567  0.00  0.00    +0.046 A 
ENDBRANCH  24  25
ENDBRANCH  22  24
ENDBRANCH   2  18
BRANCH   1  31
ATOM     31  C   UNL     1       0.787  -1.648   0.579  0.00  0.00    +0.090 C 
BRANCH  31  32
ATOM     32  C   UNL     1       0.015  -1.387   1.874  0.00  0.00    -0.060 C 
BRANCH  32  33
ATOM     33  N   UNL     1      -0.273   0.048   1.992  0.00  0.00    +0.380 N 
ATOM     34  H   UNL     1       0.587   0.571   1.925  0.00  0.00    -0.082 HD
BRANCH  33  36
ATOM     35  C   UNL     1      -1.367   1.974   0.948  0.00  0.00    -0.017 C 
ATOM     36  C   UNL     1      -1.180   0.456   0.911  0.00  0.00    -0.082 C 
ENDBRANCH  33  36
BRANCH  33  37
ATOM     37  C   UNL     1      -0.908   0.315   3.290  0.00  0.00    -0.082 C 
ATOM     38  C   UNL     1       0.089   0.026   4.414  0.00  0.00    -0.017 C 
ENDBRANCH  33  37
ENDBRANCH  32  33
ENDBRANCH  31  32
ENDBRANCH   1  31
TORSDOF 8
