REMARK  Name = ZINC37574210
REMARK  3 active torsions:
REMARK  status: ('A' for Active; 'I' for Inactive)
REMARK    1  A    between atoms: C_3  and  S_9
REMARK    2  A    between atoms: S_9  and  N_12
REMARK    3  A    between atoms: N_12  and  C_13
REMARK                            x       y       z     vdW  Elec       q    Type
REMARK                         _______ _______ _______ _____ _____    ______ ____
ROOT
ATOM      1  N   UNL     1       4.603   2.094   1.455  0.00  0.00    -0.187 NA
ATOM      2  H   UNL     1       4.603   2.815   2.104  0.00  0.00    +0.148 HD
ENDROOT
BRANCH   1   3
ATOM      3  C   UNL     1       5.155   0.785   1.814  0.00  0.00    +0.074 C 
ATOM      4  C   UNL     1       6.674   0.799   1.619  0.00  0.00    +0.001 C 
ATOM      5  C   UNL     1       7.253  -0.555   2.030  0.00  0.00    -0.080 C 
ATOM      6  N   UNL     1       6.981  -0.798   3.453  0.00  0.00    +0.383 N 
ATOM      7  C   UNL     1       5.534  -0.822   3.680  0.00  0.00    -0.067 C 
ATOM      8  C   UNL     1       4.841   0.481   3.283  0.00  0.00    +0.008 C 
ATOM      9  C   UNL     1       4.846  -2.072   3.117  0.00  0.00    -0.012 C 
ATOM     10  C   UNL     1       5.119  -2.736   4.477  0.00  0.00    -0.003 C 
ATOM     11  C   UNL     1       5.141  -1.320   5.077  0.00  0.00    -0.012 C 
ATOM     12  H   UNL     1       7.378  -1.685   3.724  0.00  0.00    -0.085 HD
ATOM     13  H   UNL     1       7.395  -0.062   4.005  0.00  0.00    -0.085 HD
ENDBRANCH   1   3
BRANCH   1  14
ATOM     14  S   UNL     1       3.977   2.342  -0.058  0.00  0.00    +0.060 S 
ATOM     15  O   UNL     1       4.947   1.867  -0.981  0.00  0.00    -0.153 OA
ATOM     16  O   UNL     1       3.492   3.678  -0.082  0.00  0.00    -0.153 OA
BRANCH  14  19
ATOM     17  C   UNL     1       1.469  -0.547  -1.284  0.00  0.00    +0.017 A 
ATOM     18  C   UNL     1       2.572   0.277  -1.157  0.00  0.00    +0.031 A 
ATOM     19  C   UNL     1       2.572   1.293  -0.220  0.00  0.00    +0.119 A 
ATOM     20  C   UNL     1       1.468   1.485   0.592  0.00  0.00    +0.045 A 
ATOM     21  C   UNL     1       0.365   0.661   0.466  0.00  0.00    +0.032 A 
ATOM     22  C   UNL     1       0.365  -0.356  -0.473  0.00  0.00    +0.019 A 
ATOM     23 BR   UNL     1      -1.143  -1.483  -0.647  0.00  0.00    -0.050 Br
ATOM     24 BR   UNL     1       1.468   2.874   1.875  0.00  0.00    -0.048 Br
ENDBRANCH  14  19
ENDBRANCH   1  14
TORSDOF 3
