REMARK  Name = ZINC13064950
REMARK  11 active torsions:
REMARK  status: ('A' for Active; 'I' for Inactive)
REMARK    1  A    between atoms: C_1  and  C_2
REMARK    2  A    between atoms: C_2  and  C_3
REMARK    3  A    between atoms: C_3  and  C_5
REMARK    4  A    between atoms: C_3  and  N_69
REMARK    5  A    between atoms: N_9  and  C_10
REMARK    6  A    between atoms: C_10  and  C_11
REMARK    7  A    between atoms: C_18  and  C_19
REMARK    8  A    between atoms: C_18  and  N_69
REMARK    9  A    between atoms: C_22  and  C_32
REMARK   10  A    between atoms: C_24  and  C_31
REMARK   11  A    between atoms: C_33  and  N_69
REMARK                            x       y       z     vdW  Elec       q    Type
REMARK                         _______ _______ _______ _____ _____    ______ ____
ROOT
ATOM      1  N   UNL     1      -0.152   1.586  -0.064  0.00  0.00    +0.391 N 
ATOM      2  H   UNL     1       0.244   1.957   0.807  0.00  0.00    -0.080 HD
ENDROOT
BRANCH   1   3
ATOM      3  C   UNL     1      -0.798   0.286   0.219  0.00  0.00    -0.067 C 
ATOM      4  C   UNL     1      -2.117   0.516   0.984  0.00  0.00    -0.015 C 
ATOM      5  C   UNL     1      -2.168  -0.646   2.008  0.00  0.00    -0.002 C 
ATOM      6  C   UNL     1      -0.688  -0.785   2.442  0.00  0.00    -0.002 C 
ATOM      7  C   UNL     1       0.111  -0.541   1.145  0.00  0.00    -0.015 C 
ENDBRANCH   1   3
BRANCH   1   8
ATOM      8  C   UNL     1      -1.150   2.543  -0.584  0.00  0.00    +0.003 C 
BRANCH   8   9
ATOM      9  C   UNL     1      -0.632   3.943  -0.373  0.00  0.00    +0.138 A 
ATOM     10  N   UNL     1       0.588   4.282  -0.035  0.00  0.00    -0.115 NA
ATOM     11  N   UNL     1       0.636   5.567   0.043  0.00  0.00    -0.023 NA
ATOM     12  N   UNL     1      -0.523   6.056  -0.228  0.00  0.00    -0.044 NA
ATOM     13  N   UNL     1      -1.333   5.086  -0.490  0.00  0.00    -0.226 N 
BRANCH  13  14
ATOM     14  C   UNL     1      -2.748   5.206  -0.848  0.00  0.00    +0.182 C 
BRANCH  14  15
ATOM     15  C   UNL     1      -3.587   5.171   0.404  0.00  0.00    -0.026 A 
ATOM     16  C   UNL     1      -4.055   3.964   0.888  0.00  0.00    +0.008 A 
ATOM     17  C   UNL     1      -4.821   3.930   2.038  0.00  0.00    +0.038 A 
ATOM     18  C   UNL     1      -5.127   5.107   2.700  0.00  0.00    +0.123 A 
ATOM     19  C   UNL     1      -4.662   6.316   2.211  0.00  0.00    +0.038 A 
ATOM     20  C   UNL     1      -3.892   6.347   1.064  0.00  0.00    +0.008 A 
ATOM     21  F   UNL     1      -5.879   5.076   3.822  0.00  0.00    -0.205 F 
ENDBRANCH  14  15
ENDBRANCH  13  14
ENDBRANCH   8   9
BRANCH   8  23
ATOM     22  C   UNL     1      -2.059   0.946  -2.277  0.00  0.00    +0.002 C 
ATOM     23  C   UNL     1      -1.391   2.308  -2.076  0.00  0.00    -0.011 C 
ENDBRANCH   8  23
ENDBRANCH   1   8
BRANCH   1  24
ATOM     24  C   UNL     1       0.936   1.406  -1.048  0.00  0.00    -0.036 C 
BRANCH  24  25
ATOM     25  C   UNL     1       2.145   0.858  -0.336  0.00  0.00    +0.001 A 
ATOM     26  C   UNL     1       2.386  -0.477  -0.342  0.00  0.00    +0.017 A 
ATOM     27  C   UNL     1       3.572  -0.977   0.356  0.00  0.00    +0.002 A 
ATOM     28  C   UNL     1       3.876  -2.342   0.379  0.00  0.00    -0.041 A 
ATOM     29  C   UNL     1       4.987  -2.777   1.043  0.00  0.00    +0.007 A 
ATOM     30  C   UNL     1       5.819  -1.876   1.696  0.00  0.00    -0.048 A 
ATOM     31  C   UNL     1       5.539  -0.527   1.686  0.00  0.00    +0.029 A 
ATOM     32  C   UNL     1       4.412  -0.061   1.016  0.00  0.00    +0.050 A 
ATOM     33  N   UNL     1       4.109   1.284   0.990  0.00  0.00    -0.322 N 
ATOM     34  H   UNL     1       4.689   1.914   1.445  0.00  0.00    +0.169 HD
ATOM     35  C   UNL     1       3.020   1.734   0.342  0.00  0.00    +0.251 A 
ATOM     36  O   UNL     1       2.782   2.930   0.339  0.00  0.00    -0.268 OA
ATOM     37  C   UNL     1       7.040  -2.379   2.422  0.00  0.00    +0.044 C 
ATOM     38  C   UNL     1       2.980  -3.329  -0.325  0.00  0.00    +0.044 C 
ENDBRANCH  24  25
ENDBRANCH   1  24
TORSDOF 8
