REMARK  Name = ZINC35000825
REMARK  11 active torsions:
REMARK  status: ('A' for Active; 'I' for Inactive)
REMARK    1  A    between atoms: C_1  and  C_2
REMARK    2  A    between atoms: C_2  and  N_3
REMARK    3  A    between atoms: N_6  and  C_7
REMARK    4  A    between atoms: N_6  and  C_27
REMARK    5  A    between atoms: C_7  and  C_8
REMARK    6  A    between atoms: C_8  and  N_9
REMARK    7  A    between atoms: N_17  and  C_18
REMARK    8  A    between atoms: C_21  and  N_24
REMARK    9  A    between atoms: C_27  and  C_28
REMARK   10  A    between atoms: C_36  and  C_37
REMARK   11  A    between atoms: C_36  and  C_38
REMARK                            x       y       z     vdW  Elec       q    Type
REMARK                         _______ _______ _______ _____ _____    ______ ____
ROOT
ATOM      1  N   UNL     1       0.036  -5.339  -4.075  0.00  0.00    +0.383 N 
ATOM      2  C   UNL     1       0.881  -5.202  -5.268  0.00  0.00    -0.059 C 
ATOM      3  C   UNL     1       1.560  -6.543  -5.568  0.00  0.00    +0.091 C 
ATOM      4  N   UNL     1       0.520  -7.577  -5.677  0.00  0.00    -0.289 N 
ATOM      5  C   UNL     1      -0.474  -7.677  -4.597  0.00  0.00    +0.091 C 
ATOM      6  C   UNL     1      -1.057  -6.283  -4.343  0.00  0.00    -0.059 C 
ATOM      7  C   UNL     1       0.479  -8.410  -6.736  0.00  0.00    +0.306 C 
ATOM      8  O   UNL     1       1.249  -8.252  -7.664  0.00  0.00    -0.252 OA
ATOM      9  N   UNL     1      -0.415  -9.418  -6.767  0.00  0.00    -0.269 N 
ATOM     10  H   UNL     1      -1.080  -9.498  -6.064  0.00  0.00    +0.156 HD
ATOM     11  H   UNL     1       0.594  -5.681  -3.308  0.00  0.00    -0.082 HD
ENDROOT
BRANCH   9  12
ATOM     12  C   UNL     1      -0.386 -10.348  -7.812  0.00  0.00    +0.035 A 
ATOM     13  C   UNL     1       0.825 -10.708  -8.389  0.00  0.00    +0.025 A 
ATOM     14  C   UNL     1       0.851 -11.627  -9.420  0.00  0.00    +0.034 A 
ATOM     15  C   UNL     1      -0.327 -12.188  -9.877  0.00  0.00    +0.126 A 
ATOM     16  C   UNL     1      -1.534 -11.832  -9.305  0.00  0.00    +0.034 A 
ATOM     17  C   UNL     1      -1.567 -10.918  -8.270  0.00  0.00    +0.025 A 
BRANCH  15  18
ATOM     18  N   UNL     1      -0.296 -13.173 -10.982  0.00  0.00    +0.056 N 
ATOM     19  O   UNL     1       0.759 -13.485 -11.484  0.00  0.00    -0.126 OA
ATOM     20  O   UNL     1      -1.325 -13.665 -11.383  0.00  0.00    -0.126 OA
ENDBRANCH  15  18
ENDBRANCH   9  12
BRANCH   1  21
ATOM     21  C   UNL     1      -0.528  -4.028  -3.724  0.00  0.00    -0.059 C 
BRANCH  21  22
ATOM     22  C   UNL     1       0.603  -3.078  -3.324  0.00  0.00    +0.091 C 
BRANCH  22  26
ATOM     23  N   UNL     1      -0.838  -0.311  -1.379  0.00  0.00    -0.299 N 
ATOM     24  C   UNL     1      -0.321  -1.513  -1.701  0.00  0.00    +0.302 C 
ATOM     25  O   UNL     1      -0.182  -2.365  -0.845  0.00  0.00    -0.253 OA
ATOM     26  N   UNL     1       0.041  -1.771  -2.974  0.00  0.00    -0.283 N 
ATOM     27  H   UNL     1      -0.949   0.369  -2.062  0.00  0.00    +0.150 HD
BRANCH  23  29
ATOM     28  C   UNL     1      -1.784   1.394   0.098  0.00  0.00    +0.024 C 
ATOM     29  C   UNL     1      -1.232  -0.030   0.004  0.00  0.00    +0.102 C 
ENDBRANCH  23  29
BRANCH  26  30
ATOM     30  C   UNL     1      -0.126  -0.745  -4.005  0.00  0.00    +0.140 C 
BRANCH  30  31
ATOM     31  C   UNL     1       1.123   0.095  -4.086  0.00  0.00    -0.053 C 
ATOM     32  C   UNL     1       2.066  -0.168  -4.961  0.00  0.00    -0.025 C 
ATOM     33  C   UNL     1       3.298   0.703  -5.015  0.00  0.00    +0.031 C 
ATOM     34  C   UNL     1       3.233   1.760  -3.903  0.00  0.00    -0.000 C 
ATOM     35  C   UNL     1       2.790   1.176  -2.551  0.00  0.00    +0.012 C 
ATOM     36  C   UNL     1       1.336   1.282  -3.163  0.00  0.00    +0.022 C 
ATOM     37  C   UNL     1       1.879   2.498  -3.927  0.00  0.00    -0.025 C 
ATOM     38  C   UNL     1       1.286   2.660  -5.328  0.00  0.00    +0.012 C 
ATOM     39  C   UNL     1       1.867   3.795  -3.116  0.00  0.00    +0.012 C 
ENDBRANCH  30  31
ENDBRANCH  26  30
ENDBRANCH  22  26
ENDBRANCH  21  22
ENDBRANCH   1  21
TORSDOF 8
