REMARK  Name = ZINC45820609
REMARK  10 active torsions:
REMARK  status: ('A' for Active; 'I' for Inactive)
REMARK    1  A    between atoms: C_1  and  C_2
REMARK    2  A    between atoms: C_2  and  C_30
REMARK    3  A    between atoms: N_5  and  C_9
REMARK    4  A    between atoms: C_9  and  C_10
REMARK    5  A    between atoms: N_12  and  C_13
REMARK    6  A    between atoms: C_13  and  C_14
REMARK    7  A    between atoms: C_14  and  C_16
REMARK    8  A    between atoms: C_14  and  N_24
REMARK    9  A    between atoms: C_19  and  O_22
REMARK   10  A    between atoms: O_22  and  C_23
REMARK                            x       y       z     vdW  Elec       q    Type
REMARK                         _______ _______ _______ _____ _____    ______ ____
ROOT
ATOM      1  C   UNL     1       6.057   0.845  -0.494  0.00  0.00    +0.231 C 
ATOM      2  O   UNL     1       4.967   1.249  -0.840  0.00  0.00    -0.274 OA
ATOM      3  N   UNL     1       6.785   0.075  -1.327  0.00  0.00    -0.315 N 
ATOM      4  H   UNL     1       7.657  -0.249  -1.050  0.00  0.00    +0.149 HD
ENDROOT
BRANCH   1   5
ATOM      5  C   UNL     1       6.597   1.203   0.867  0.00  0.00    +0.213 C 
BRANCH   5  10
ATOM      6  C   UNL     1       2.438   2.739   2.420  0.00  0.00    +0.047 C 
ATOM      7  C   UNL     1       3.898   2.777   2.875  0.00  0.00    +0.135 C 
ATOM      8  C   UNL     1       4.647   1.561   2.367  0.00  0.00    +0.251 C 
ATOM      9  O   UNL     1       4.414   0.399   2.620  0.00  0.00    -0.272 OA
ATOM     10  N   UNL     1       5.624   2.041   1.573  0.00  0.00    -0.215 N 
ATOM     11  C   UNL     1       5.597   3.377   1.510  0.00  0.00    +0.310 C 
ATOM     12  O   UNL     1       6.380   4.039   0.857  0.00  0.00    -0.252 OA
ATOM     13  N   UNL     1       4.607   3.907   2.250  0.00  0.00    -0.281 N 
ATOM     14  H   UNL     1       4.400   4.849   2.353  0.00  0.00    +0.152 HD
BRANCH   7  15
ATOM     15  C   UNL     1       3.981   2.864   4.377  0.00  0.00    -0.015 A 
ATOM     16  C   UNL     1       4.048   1.709   5.134  0.00  0.00    +0.009 A 
ATOM     17  C   UNL     1       4.125   1.788   6.512  0.00  0.00    +0.039 A 
ATOM     18  C   UNL     1       4.134   3.025   7.134  0.00  0.00    +0.123 A 
ATOM     19  C   UNL     1       4.066   4.181   6.375  0.00  0.00    +0.039 A 
ATOM     20  C   UNL     1       3.995   4.100   4.997  0.00  0.00    +0.009 A 
ATOM     21  F   UNL     1       4.208   3.104   8.481  0.00  0.00    -0.205 F 
ENDBRANCH   7  15
ENDBRANCH   5  10
ENDBRANCH   1   5
BRANCH   3  22
ATOM     22  C   UNL     1       6.260  -0.274  -2.649  0.00  0.00    +0.093 C 
BRANCH  22  23
ATOM     23  C   UNL     1       7.327  -1.037  -3.437  0.00  0.00    -0.020 C 
BRANCH  23  24
ATOM     24  N   UNL     1       6.771  -1.465  -4.727  0.00  0.00    +0.385 N 
ATOM     25  C   UNL     1       5.646  -2.380  -4.494  0.00  0.00    -0.078 C 
ATOM     26  C   UNL     1       5.012  -2.766  -5.831  0.00  0.00    -0.019 C 
ATOM     27  C   UNL     1       6.061  -3.457  -6.707  0.00  0.00    -0.004 C 
ATOM     28  C   UNL     1       7.261  -2.522  -6.883  0.00  0.00    -0.019 C 
ATOM     29  C   UNL     1       7.812  -2.145  -5.506  0.00  0.00    -0.078 C 
ATOM     30  H   UNL     1       6.444  -0.658  -5.236  0.00  0.00    -0.081 HD
ENDBRANCH  23  24
BRANCH  23  31
ATOM     31  C   UNL     1       8.514  -0.139  -3.675  0.00  0.00    -0.059 A 
ATOM     32  C   UNL     1       8.477   0.799  -4.690  0.00  0.00    +0.005 A 
ATOM     33  C   UNL     1       9.563   1.623  -4.910  0.00  0.00    +0.046 A 
ATOM     34  C   UNL     1      10.693   1.509  -4.112  0.00  0.00    +0.120 A 
ATOM     35  C   UNL     1      10.727   0.567  -3.094  0.00  0.00    +0.046 A 
ATOM     36  C   UNL     1       9.636  -0.251  -2.874  0.00  0.00    +0.005 A 
BRANCH  34  37
ATOM     37  O   UNL     1      11.763   2.318  -4.328  0.00  0.00    -0.495 OA
ATOM     38  C   UNL     1      12.891   2.144  -3.467  0.00  0.00    +0.277 C 
ENDBRANCH  34  37
ENDBRANCH  23  31
ENDBRANCH  22  23
ENDBRANCH   3  22
TORSDOF 8
