REMARK  Name = ZINC13646853
REMARK  6 active torsions:
REMARK  status: ('A' for Active; 'I' for Inactive)
REMARK    1  A    between atoms: C_1  and  C_2
REMARK    2  A    between atoms: C_5  and  C_8
REMARK    3  A    between atoms: N_10  and  C_11
REMARK    4  A    between atoms: N_12  and  C_13
REMARK    5  A    between atoms: C_13  and  C_15
REMARK    6  A    between atoms: C_18  and  C_21
REMARK                            x       y       z     vdW  Elec       q    Type
REMARK                         _______ _______ _______ _____ _____    ______ ____
ROOT
ATOM      1  C   UNL     1       0.242  -6.274   1.106  0.00  0.00    +0.225 C 
ATOM      2  N   UNL     1       0.122  -6.820  -0.107  0.00  0.00    -0.141 NA
ATOM      3  N   UNL     1       0.207  -7.071   2.223  0.00  0.00    -0.305 N 
ATOM      4  C   UNL     1       0.127  -8.446   2.091  0.00  0.00    +0.174 A 
ATOM      5  N   UNL     1       0.080  -9.166   0.994  0.00  0.00    -0.223 NA
ATOM      6  C   UNL     1       0.002 -10.514   1.014  0.00  0.00    +0.080 A 
ATOM      7  C   UNL     1      -0.054 -11.401  -0.086  0.00  0.00    +0.029 A 
ATOM      8  C   UNL     1      -0.133 -12.755   0.110  0.00  0.00    +0.002 A 
ATOM      9  C   UNL     1      -0.160 -13.303   1.385  0.00  0.00    +0.001 A 
ATOM     10  C   UNL     1      -0.106 -12.464   2.483  0.00  0.00    +0.017 A 
ATOM     11  C   UNL     1      -0.027 -11.107   2.296  0.00  0.00    +0.041 A 
ATOM     12  S   UNL     1       0.068  -9.694   3.369  0.00  0.00    -0.050 S 
ATOM     13  H   UNL     1       0.239  -6.670   3.106  0.00  0.00    +0.171 HD
ENDROOT
BRANCH   1  16
ATOM     14  C   UNL     1       0.575  -4.418   2.433  0.00  0.00    +0.280 C 
ATOM     15  O   UNL     1       0.748  -5.205   3.495  0.00  0.00    -0.265 OA
ATOM     16  N   UNL     1       0.395  -4.953   1.232  0.00  0.00    -0.175 NA
BRANCH  14  21
ATOM     17  C   UNL     1       0.612   1.302   3.055  0.00  0.00    +0.044 C 
ATOM     18  C   UNL     1       0.602  -0.196   2.892  0.00  0.00    -0.050 A 
ATOM     19  C   UNL     1       0.781  -1.010   3.997  0.00  0.00    +0.004 A 
ATOM     20  C   UNL     1       0.773  -2.382   3.855  0.00  0.00    +0.013 A 
ATOM     21  C   UNL     1       0.584  -2.949   2.592  0.00  0.00    +0.041 A 
ATOM     22  C   UNL     1       0.404  -2.121   1.482  0.00  0.00    +0.013 A 
ATOM     23  C   UNL     1       0.409  -0.751   1.639  0.00  0.00    +0.004 A 
ENDBRANCH  14  21
ENDBRANCH   1  16
BRANCH   2  24
ATOM     24  C   UNL     1       0.229  -6.061  -1.190  0.00  0.00    +0.270 C 
ATOM     25  O   UNL     1       0.493  -4.759  -1.068  0.00  0.00    -0.268 OA
BRANCH  24  26
ATOM     26  C   UNL     1       0.055  -6.657  -2.530  0.00  0.00    +0.039 A 
ATOM     27  C   UNL     1      -0.228  -8.018  -2.662  0.00  0.00    +0.013 A 
ATOM     28  C   UNL     1      -0.389  -8.568  -3.916  0.00  0.00    +0.004 A 
ATOM     29  C   UNL     1      -0.272  -7.774  -5.043  0.00  0.00    -0.050 A 
ATOM     30  C   UNL     1       0.008  -6.424  -4.921  0.00  0.00    +0.004 A 
ATOM     31  C   UNL     1       0.166  -5.860  -3.672  0.00  0.00    +0.013 A 
ATOM     32  C   UNL     1      -0.449  -8.382  -6.411  0.00  0.00    +0.044 C 
ENDBRANCH  24  26
ENDBRANCH   2  24
TORSDOF 4
