REMARK  Name = ZINC59513352
REMARK  6 active torsions:
REMARK  status: ('A' for Active; 'I' for Inactive)
REMARK    1  A    between atoms: C_1  and  C_2
REMARK    2  A    between atoms: C_6  and  N_8
REMARK    3  A    between atoms: C_12  and  N_29
REMARK    4  A    between atoms: C_14  and  S_15
REMARK    5  A    between atoms: S_15  and  C_16
REMARK    6  A    between atoms: C_16  and  C_17
REMARK                            x       y       z     vdW  Elec       q    Type
REMARK                         _______ _______ _______ _____ _____    ______ ____
ROOT
ATOM      1  N   UNL     1      -0.014  -2.790   2.388  0.00  0.00    -0.256 N 
ATOM      2  C   UNL     1       0.050  -2.121   3.558  0.00  0.00    +0.261 A 
ATOM      3  O   UNL     1       0.118  -0.901   3.573  0.00  0.00    -0.267 OA
ATOM      4  C   UNL     1       0.038  -2.846   4.753  0.00  0.00    +0.114 A 
ATOM      5  C   UNL     1      -0.040  -4.231   4.692  0.00  0.00    +0.124 A 
ATOM      6  N   UNL     1      -0.101  -4.842   3.504  0.00  0.00    -0.208 NA
ATOM      7  C   UNL     1      -0.095  -4.152   2.382  0.00  0.00    +0.178 A 
ENDROOT
BRANCH   1  13
ATOM      8  C   UNL     1      -2.478  -0.525  -1.215  0.00  0.00    +0.044 C 
ATOM      9  C   UNL     1      -1.183  -0.975  -0.591  0.00  0.00    -0.048 A 
ATOM     10  C   UNL     1       0.019  -0.691  -1.213  0.00  0.00    +0.003 A 
ATOM     11  C   UNL     1       1.210  -1.103  -0.643  0.00  0.00    +0.002 A 
ATOM     12  C   UNL     1       1.202  -1.798   0.550  0.00  0.00    +0.026 A 
ATOM     13  C   UNL     1      -0.003  -2.084   1.177  0.00  0.00    +0.052 A 
ATOM     14  C   UNL     1      -1.197  -1.666   0.605  0.00  0.00    +0.029 A 
ENDBRANCH   1  13
BRANCH   5  15
ATOM     15  N   UNL     1      -0.054  -4.975   5.855  0.00  0.00    -0.343 N 
ATOM     16  H   UNL     1      -0.009  -4.531   6.716  0.00  0.00    +0.144 HD
ATOM     17  H   UNL     1      -0.109  -5.943   5.811  0.00  0.00    +0.144 HD
ENDBRANCH   5  15
BRANCH   7  18
ATOM     18  S   UNL     1      -0.185  -5.005   0.843  0.00  0.00    -0.078 S 
BRANCH  18  19
ATOM     19  C   UNL     1      -0.277  -6.754   1.315  0.00  0.00    +0.173 C 
BRANCH  19  20
ATOM     20  C   UNL     1      -0.360  -7.605   0.074  0.00  0.00    +0.230 C 
ATOM     21  O   UNL     1      -0.265  -7.092  -1.021  0.00  0.00    -0.274 OA
ATOM     22  N   UNL     1      -0.539  -8.937   0.182  0.00  0.00    -0.270 N 
ATOM     23  C   UNL     1      -0.740  -9.560   1.497  0.00  0.00    +0.114 C 
ATOM     24  C   UNL     1       0.134 -10.820   1.557  0.00  0.00    +0.024 C 
ATOM     25  C   UNL     1      -0.348 -11.806   0.493  0.00  0.00    +0.038 C 
ATOM     26  C   UNL     1      -0.444 -11.129  -0.849  0.00  0.00    -0.026 A 
ATOM     27  C   UNL     1      -0.542  -9.750  -0.960  0.00  0.00    +0.039 A 
ATOM     28  C   UNL     1      -0.639  -9.156  -2.213  0.00  0.00    +0.024 A 
ATOM     29  C   UNL     1      -0.641  -9.939  -3.351  0.00  0.00    +0.002 A 
ATOM     30  C   UNL     1      -0.546 -11.314  -3.241  0.00  0.00    +0.000 A 
ATOM     31  C   UNL     1      -0.439 -11.908  -1.994  0.00  0.00    +0.005 A 
ENDBRANCH  19  20
ENDBRANCH  18  19
ENDBRANCH   7  18
TORSDOF 5
