REMARK  Name = ZINC30951362
REMARK  11 active torsions:
REMARK  status: ('A' for Active; 'I' for Inactive)
REMARK    1  A    between atoms: C_1  and  C_2
REMARK    2  A    between atoms: C_2  and  C_27
REMARK    3  A    between atoms: N_3  and  N_4
REMARK    4  A    between atoms: C_5  and  C_7
REMARK    5  A    between atoms: C_7  and  C_8
REMARK    6  A    between atoms: C_8  and  C_9
REMARK    7  A    between atoms: C_9  and  C_10
REMARK    8  A    between atoms: C_10  and  C_11
REMARK    9  A    between atoms: N_13  and  N_14
REMARK   10  A    between atoms: C_15  and  C_16
REMARK   11  A    between atoms: C_15  and  C_17
REMARK                            x       y       z     vdW  Elec       q    Type
REMARK                         _______ _______ _______ _____ _____    ______ ____
ROOT
ATOM      1  C   UNL     1      -6.104   7.452  -1.550  0.00  0.00    +0.010 C 
ENDROOT
BRANCH   1   2
ATOM      2  C   UNL     1      -7.200   8.508  -1.398  0.00  0.00    +0.097 C 
BRANCH   2   4
ATOM      3  N   UNL     1      -8.716   9.794  -2.870  0.00  0.00    -0.207 N 
ATOM      4  C   UNL     1      -7.737   8.876  -2.757  0.00  0.00    +0.232 C 
ATOM      5  O   UNL     1      -7.287   8.344  -3.751  0.00  0.00    -0.274 OA
ATOM      6  H   UNL     1      -9.124  10.276  -1.969  0.00  0.00    +0.177 HD
BRANCH   3   9
ATOM      7  C   UNL     1     -10.704  11.668  -3.007  0.00  0.00    +0.063 C 
ATOM      8  C   UNL     1     -10.145  11.008  -4.241  0.00  0.00    +0.040 C 
ATOM      9  N   UNL     1      -9.215  10.136  -4.134  0.00  0.00    -0.189 NA
BRANCH   8  10
ATOM     10  C   UNL     1     -10.682  11.375  -5.600  0.00  0.00    +0.011 C 
ATOM     11  C   UNL     1     -10.463  12.869  -5.849  0.00  0.00    +0.016 C 
ATOM     12  C   UNL     1     -11.007  13.242  -7.229  0.00  0.00    -0.010 C 
ATOM     13  C   UNL     1     -10.274  12.433  -8.302  0.00  0.00    +0.007 C 
ATOM     14  C   UNL     1     -10.493  10.940  -8.053  0.00  0.00    -0.010 C 
ATOM     15  C   UNL     1      -9.949  10.567  -6.673  0.00  0.00    +0.016 C 
ATOM     16  C   UNL     1     -11.990  10.627  -8.113  0.00  0.00    +0.007 C 
ATOM     17  C   UNL     1     -12.723  11.435  -7.040  0.00  0.00    -0.010 C 
ATOM     18  C   UNL     1     -12.504  12.929  -7.288  0.00  0.00    +0.007 C 
ATOM     19  C   UNL     1     -12.178  11.062  -5.660  0.00  0.00    +0.016 C 
ENDBRANCH   8  10
ENDBRANCH   3   9
ENDBRANCH   2   4
ENDBRANCH   1   2
BRANCH   1  20
ATOM     20  C   UNL     1      -5.560   7.079  -0.170  0.00  0.00    +0.010 C 
BRANCH  20  21
ATOM     21  C   UNL     1      -4.464   6.022  -0.322  0.00  0.00    +0.097 C 
BRANCH  21  22
ATOM     22  C   UNL     1      -3.928   5.655   1.038  0.00  0.00    +0.232 C 
ATOM     23  O   UNL     1      -4.378   6.186   2.031  0.00  0.00    -0.274 OA
ATOM     24  N   UNL     1      -2.948   4.736   1.150  0.00  0.00    -0.207 N 
ATOM     25  H   UNL     1      -2.540   4.255   0.249  0.00  0.00    +0.177 HD
BRANCH  24  26
ATOM     26  N   UNL     1      -2.449   4.395   2.414  0.00  0.00    -0.189 NA
ATOM     27  C   UNL     1      -1.456   3.593   2.515  0.00  0.00    +0.040 C 
ATOM     28  C   UNL     1      -0.987   3.143   3.875  0.00  0.00    +0.063 C 
BRANCH  27  29
ATOM     29  C   UNL     1      -0.757   3.099   1.275  0.00  0.00    +0.011 C 
ATOM     30  C   UNL     1      -1.716   2.228   0.462  0.00  0.00    +0.016 C 
ATOM     31  C   UNL     1      -1.006   1.727  -0.798  0.00  0.00    -0.010 C 
ATOM     32  C   UNL     1      -0.562   2.922  -1.643  0.00  0.00    +0.007 C 
ATOM     33  C   UNL     1       0.397   3.794  -0.829  0.00  0.00    -0.010 C 
ATOM     34  C   UNL     1      -0.313   4.295   0.430  0.00  0.00    +0.016 C 
ATOM     35  C   UNL     1       1.622   2.968  -0.430  0.00  0.00    +0.007 C 
ATOM     36  C   UNL     1       1.178   1.773   0.415  0.00  0.00    -0.010 C 
ATOM     37  C   UNL     1       0.219   0.901  -0.398  0.00  0.00    +0.007 C 
ATOM     38  C   UNL     1       0.468   2.274   1.675  0.00  0.00    +0.016 C 
ENDBRANCH  27  29
ENDBRANCH  24  26
ENDBRANCH  21  22
ENDBRANCH  20  21
ENDBRANCH   1  20
TORSDOF 9
