REMARK  Name = ZINC38673158
REMARK  9 active torsions:
REMARK  status: ('A' for Active; 'I' for Inactive)
REMARK    1  A    between atoms: C_1  and  C_2
REMARK    2  A    between atoms: C_4  and  S_10
REMARK    3  A    between atoms: S_10  and  N_13
REMARK    4  A    between atoms: N_13  and  C_14
REMARK    5  A    between atoms: C_14  and  C_15
REMARK    6  A    between atoms: C_15  and  C_17
REMARK    7  A    between atoms: C_15  and  N_28
REMARK    8  A    between atoms: N_26  and  C_27
REMARK    9  A    between atoms: N_31  and  C_34
REMARK                            x       y       z     vdW  Elec       q    Type
REMARK                         _______ _______ _______ _____ _____    ______ ____
ROOT
ATOM      1  C   UNL     1       2.996  -5.622  -2.546  0.00  0.00    +0.102 C 
ENDROOT
BRANCH   1   2
ATOM      2  C   UNL     1       3.335  -6.686  -1.535  0.00  0.00    -0.029 A 
ATOM      3  C   UNL     1       4.098  -6.367  -0.427  0.00  0.00    +0.007 A 
ATOM      4  C   UNL     1       4.409  -7.343   0.498  0.00  0.00    +0.024 A 
ATOM      5  C   UNL     1       3.955  -8.645   0.317  0.00  0.00    +0.033 A 
ATOM      6  C   UNL     1       3.187  -8.963  -0.792  0.00  0.00    -0.026 A 
ATOM      7  C   UNL     1       2.877  -7.977  -1.714  0.00  0.00    +0.010 A 
ATOM      8  C   UNL     1       2.669 -10.359  -1.016  0.00  0.00    +0.038 C 
ATOM      9  C   UNL     1       3.493 -11.370  -0.218  0.00  0.00    +0.024 C 
ATOM     10  C   UNL     1       3.572 -10.904   1.241  0.00  0.00    +0.105 C 
ATOM     11  N   UNL     1       4.286  -9.620   1.264  0.00  0.00    -0.333 N 
ATOM     12  C   UNL     1       5.327  -9.365   2.262  0.00  0.00    +0.129 C 
ENDBRANCH   1   2
BRANCH   1  13
ATOM     13  N   UNL     1       4.167  -4.761  -2.763  0.00  0.00    -0.298 NA
ATOM     14  C   UNL     1       3.847  -3.656  -3.678  0.00  0.00    +0.066 C 
ATOM     15  C   UNL     1       5.073  -2.753  -3.829  0.00  0.00    -0.064 C 
ATOM     16  N   UNL     1       6.198  -3.537  -4.356  0.00  0.00    +0.379 N 
ATOM     17  C   UNL     1       6.521  -4.622  -3.419  0.00  0.00    -0.064 C 
ATOM     18  C   UNL     1       5.308  -5.541  -3.264  0.00  0.00    +0.066 C 
ATOM     19  C   UNL     1       7.369  -2.665  -4.518  0.00  0.00    -0.096 C 
ATOM     20  H   UNL     1       5.944  -3.929  -5.250  0.00  0.00    -0.082 HD
ENDBRANCH   1  13
BRANCH   1  21
ATOM     21  C   UNL     1       1.831  -4.776  -2.027  0.00  0.00    +0.129 C 
BRANCH  21  22
ATOM     22  N   UNL     1       0.632  -5.611  -1.918  0.00  0.00    -0.188 NA
ATOM     23  H   UNL     1       0.597  -6.470  -2.368  0.00  0.00    +0.148 HD
BRANCH  22  24
ATOM     24  S   UNL     1      -0.662  -5.089  -1.027  0.00  0.00    +0.060 S 
ATOM     25  O   UNL     1      -0.146  -4.661   0.226  0.00  0.00    -0.153 OA
ATOM     26  O   UNL     1      -1.662  -6.093  -1.137  0.00  0.00    -0.153 OA
BRANCH  24  30
ATOM     27  C   UNL     1      -4.449  -2.573  -3.603  0.00  0.00    +0.045 C 
ATOM     28  C   UNL     1      -3.068  -2.549  -3.003  0.00  0.00    -0.030 A 
ATOM     29  C   UNL     1      -2.567  -3.675  -2.377  0.00  0.00    +0.034 A 
ATOM     30  C   UNL     1      -1.299  -3.654  -1.826  0.00  0.00    +0.124 A 
ATOM     31  C   UNL     1      -0.531  -2.505  -1.901  0.00  0.00    +0.069 A 
ATOM     32  C   UNL     1      -1.032  -1.378  -2.527  0.00  0.00    +0.042 A 
ATOM     33  C   UNL     1      -2.298  -1.402  -3.083  0.00  0.00    +0.045 A 
ATOM     34 CL   UNL     1      -2.925   0.010  -3.875  0.00  0.00    -0.083 Cl
ATOM     35 CL   UNL     1       1.061  -2.478  -1.208  0.00  0.00    -0.081 Cl
ENDBRANCH  24  30
ENDBRANCH  22  24
ENDBRANCH  21  22
ENDBRANCH   1  21
TORSDOF 6
