REMARK  Name = ZINC41545573
REMARK  4 active torsions:
REMARK  status: ('A' for Active; 'I' for Inactive)
REMARK    1  A    between atoms: C_1  and  C_2
REMARK    2  A    between atoms: C_2  and  C_13
REMARK    3  A    between atoms: N_15  and  C_16
REMARK    4  A    between atoms: C_17  and  C_24
REMARK                            x       y       z     vdW  Elec       q    Type
REMARK                         _______ _______ _______ _____ _____    ______ ____
ROOT
ATOM      1  C   UNL     1      -1.412  -0.525   0.015  0.00  0.00    +0.271 C 
ATOM      2  O   UNL     1      -1.961  -0.815  -1.027  0.00  0.00    -0.271 OA
ATOM      3  N   UNL     1      -2.067  -0.668   1.184  0.00  0.00    -0.275 N 
ATOM      4  H   UNL     1      -1.628  -0.437   2.017  0.00  0.00    +0.155 HD
ENDROOT
BRANCH   1   6
ATOM      5  C   UNL     1      -0.019   1.526   0.010  0.00  0.00    +0.076 C 
ATOM      6  C   UNL     1       0.002  -0.004   0.002  0.00  0.00    +0.258 C 
ATOM      7  C   UNL     1       0.704  -0.490  -1.241  0.00  0.00    +0.270 C 
ATOM      8  O   UNL     1       0.065  -0.745  -2.240  0.00  0.00    -0.271 OA
ATOM      9  N   UNL     1       2.045  -0.638  -1.238  0.00  0.00    -0.279 N 
ATOM     10  C   UNL     1       2.750  -0.461  -0.040  0.00  0.00    +0.076 A 
ATOM     11  C   UNL     1       4.133  -0.380  -0.041  0.00  0.00    +0.027 A 
ATOM     12  C   UNL     1       4.813  -0.191   1.148  0.00  0.00    +0.002 A 
ATOM     13  C   UNL     1       4.116  -0.082   2.337  0.00  0.00    +0.004 A 
ATOM     14  C   UNL     1       2.736  -0.166   2.346  0.00  0.00    +0.047 A 
ATOM     15  C   UNL     1       2.049  -0.361   1.160  0.00  0.00    +0.144 A 
ATOM     16  O   UNL     1       0.694  -0.477   1.160  0.00  0.00    -0.465 OA
ATOM     17  H   UNL     1       2.516  -0.866  -2.055  0.00  0.00    +0.155 HD
ENDBRANCH   1   6
BRANCH   3  18
ATOM     18  C   UNL     1      -3.369  -1.148   1.196  0.00  0.00    +0.090 A 
ATOM     19  C   UNL     1      -4.189  -1.353   2.288  0.00  0.00    +0.084 A 
ATOM     20  C   UNL     1      -5.531  -1.872   2.032  0.00  0.00    -0.018 A 
ATOM     21  C   UNL     1      -5.796  -2.087   0.730  0.00  0.00    -0.004 A 
ATOM     22  S   UNL     1      -4.312  -1.605  -0.114  0.00  0.00    -0.077 S 
ATOM     23  C   UNL     1      -7.187  -2.624   0.523  0.00  0.00    +0.043 C 
ATOM     24  C   UNL     1      -7.624  -3.125   1.917  0.00  0.00    +0.010 C 
ATOM     25  C   UNL     1      -6.764  -2.249   2.851  0.00  0.00    +0.037 C 
BRANCH  19  26
ATOM     26  C   UNL     1      -3.742  -1.070   3.619  0.00  0.00    +0.102 C 
ATOM     27  N   UNL     1      -3.387  -0.845   4.675  0.00  0.00    -0.191 NA
ENDBRANCH  19  26
ENDBRANCH   3  18
TORSDOF 3
