REMARK  Name = ZINC09297990
REMARK  6 active torsions:
REMARK  status: ('A' for Active; 'I' for Inactive)
REMARK    1  A    between atoms: C_1  and  C_2
REMARK    2  A    between atoms: C_2  and  O_3
REMARK    3  A    between atoms: O_3  and  C_4
REMARK    4  A    between atoms: C_7  and  C_9
REMARK    5  A    between atoms: C_13  and  N_14
REMARK    6  A    between atoms: C_15  and  C_17
REMARK                            x       y       z     vdW  Elec       q    Type
REMARK                         _______ _______ _______ _____ _____    ______ ____
ROOT
ATOM      1  C   UNL     1       2.173  -4.176  -3.765  0.00  0.00    +0.069 A 
ATOM      2  C   UNL     1       3.600  -4.452  -3.764  0.00  0.00    -0.023 A 
ATOM      3  C   UNL     1       4.067  -4.950  -4.929  0.00  0.00    -0.004 A 
ATOM      4  S   UNL     1       2.647  -5.044  -5.979  0.00  0.00    -0.077 S 
ATOM      5  C   UNL     1       1.475  -4.456  -4.930  0.00  0.00    +0.084 A 
ATOM      6  C   UNL     1       5.481  -5.330  -5.242  0.00  0.00    +0.043 C 
ATOM      7  C   UNL     1       6.394  -4.719  -4.168  0.00  0.00    +0.005 C 
ATOM      8  C   UNL     1       5.806  -5.023  -2.787  0.00  0.00    +0.005 C 
ATOM      9  C   UNL     1       4.523  -4.215  -2.578  0.00  0.00    +0.037 C 
ENDROOT
BRANCH   1  13
ATOM     10  C   UNL     1       0.776  -1.797  -1.335  0.00  0.00    +0.407 C 
ATOM     11  O   UNL     1       0.312  -2.548  -0.500  0.00  0.00    -0.226 OA
ATOM     12  N   UNL     1       1.395  -2.298  -2.422  0.00  0.00    -0.217 N 
ATOM     13  C   UNL     1       1.500  -3.632  -2.583  0.00  0.00    +0.255 C 
ATOM     14  O   UNL     1       1.036  -4.384  -1.747  0.00  0.00    -0.270 OA
ATOM     15  H   UNL     1       1.765  -1.698  -3.088  0.00  0.00    +0.161 HD
BRANCH  10  16
ATOM     16  O   UNL     1       0.671  -0.465  -1.174  0.00  0.00    -0.450 OA
BRANCH  16  18
ATOM     17  C   UNL     1      -0.019   1.526   0.010  0.00  0.00    +0.048 C 
ATOM     18  C   UNL     1       0.002  -0.004   0.002  0.00  0.00    +0.230 C 
ENDBRANCH  16  18
ENDBRANCH  10  16
ENDBRANCH   1  13
BRANCH   5  19
ATOM     19  N   UNL     1       0.120  -4.287  -5.173  0.00  0.00    -0.279 N 
ATOM     20  C   UNL     1      -0.394  -4.615  -6.375  0.00  0.00    +0.221 C 
ATOM     21  O   UNL     1       0.327  -5.057  -7.243  0.00  0.00    -0.275 OA
ATOM     22  H   UNL     1      -0.457  -3.934  -4.478  0.00  0.00    +0.155 HD
BRANCH  20  23
ATOM     23  C   UNL     1      -1.867  -4.431  -6.639  0.00  0.00    +0.075 C 
ATOM     24  C   UNL     1      -2.672  -5.276  -5.649  0.00  0.00    +0.013 C 
ATOM     25  C   UNL     1      -4.166  -5.090  -5.918  0.00  0.00    +0.001 C 
ATOM     26  C   UNL     1      -4.487  -5.534  -7.346  0.00  0.00    +0.000 C 
ATOM     27  C   UNL     1      -3.682  -4.689  -8.336  0.00  0.00    +0.001 C 
ATOM     28  C   UNL     1      -2.187  -4.875  -8.068  0.00  0.00    +0.013 C 
ENDBRANCH  20  23
ENDBRANCH   5  19
TORSDOF 5
