REMARK  Name = ZINC16534190
REMARK  8 active torsions:
REMARK  status: ('A' for Active; 'I' for Inactive)
REMARK    1  A    between atoms: C_4  and  N_7
REMARK    2  A    between atoms: C_8  and  O_35
REMARK    3  A    between atoms: C_9  and  C_18
REMARK    4  A    between atoms: C_10  and  C_12
REMARK    5  A    between atoms: C_12  and  C_13
REMARK    6  A    between atoms: N_22  and  C_26
REMARK    7  A    between atoms: C_26  and  C_27
REMARK    8  A    between atoms: C_32  and  C_33
REMARK                            x       y       z     vdW  Elec       q    Type
REMARK                         _______ _______ _______ _____ _____    ______ ____
ROOT
ATOM      1  N   UNL     1       4.801   0.711   7.410  0.00  0.00    -0.200 N 
ATOM      2  C   UNL     1       4.178   1.158   6.297  0.00  0.00    +0.223 A 
ATOM      3  C   UNL     1       5.169   1.597   5.422  0.00  0.00    +0.062 A 
ATOM      4  C   UNL     1       6.413   1.383   6.065  0.00  0.00    +0.079 A 
ATOM      5  N   UNL     1       6.181   0.866   7.239  0.00  0.00    -0.167 NA
ENDROOT
BRANCH   3   6
ATOM      6  C   UNL     1       4.964   2.165   4.088  0.00  0.00    +0.043 C 
ATOM      7  C   UNL     1       4.168   1.523   3.191  0.00  0.00    +0.099 C 
ATOM      8  C   UNL     1       3.872   1.934   1.863  0.00  0.00    +0.269 C 
ATOM      9  O   UNL     1       4.284   2.935   1.306  0.00  0.00    -0.268 OA
ATOM     10  N   UNL     1       3.045   1.008   1.339  0.00  0.00    -0.216 N 
ATOM     11  C   UNL     1       2.813   0.044   2.245  0.00  0.00    +0.313 C 
ATOM     12  O   UNL     1       2.109  -0.931   2.063  0.00  0.00    -0.252 OA
ATOM     13  N   UNL     1       3.476   0.317   3.385  0.00  0.00    -0.265 N 
ATOM     14  H   UNL     1       3.475  -0.221   4.192  0.00  0.00    +0.157 HD
BRANCH  10  15
ATOM     15  C   UNL     1       2.489   1.045  -0.016  0.00  0.00    +0.154 C 
BRANCH  15  16
ATOM     16  C   UNL     1       1.174   1.780   0.000  0.00  0.00    -0.012 A 
ATOM     17  C   UNL     1      -0.013   1.076   0.008  0.00  0.00    +0.006 A 
ATOM     18  C   UNL     1      -1.221   1.750   0.017  0.00  0.00    +0.000 A 
ATOM     19  C   UNL     1      -1.249   3.133   0.030  0.00  0.00    +0.001 A 
ATOM     20  C   UNL     1      -0.070   3.850   0.022  0.00  0.00    +0.019 A 
ATOM     21  C   UNL     1       1.153   3.176   0.008  0.00  0.00    +0.056 A 
BRANCH  21  22
ATOM     22  C   UNL     1       2.380   3.914  -0.001  0.00  0.00    +0.099 C 
ATOM     23  N   UNL     1       3.354   4.499  -0.007  0.00  0.00    -0.191 NA
ENDBRANCH  21  22
ENDBRANCH  15  16
ENDBRANCH  10  15
ENDBRANCH   3   6
BRANCH   1  27
ATOM     24  C   UNL     1       2.926  -0.863  10.783  0.00  0.00    +0.000 A 
ATOM     25  C   UNL     1       4.149  -1.366  10.375  0.00  0.00    +0.002 A 
ATOM     26  C   UNL     1       4.772  -0.846   9.258  0.00  0.00    +0.028 A 
ATOM     27  C   UNL     1       4.171   0.182   8.544  0.00  0.00    +0.069 A 
ATOM     28  C   UNL     1       2.946   0.688   8.959  0.00  0.00    +0.028 A 
ATOM     29  C   UNL     1       2.325   0.160  10.074  0.00  0.00    +0.002 A 
ENDBRANCH   1  27
BRANCH   2  30
ATOM     30  O   UNL     1       2.843   1.177   6.075  0.00  0.00    -0.492 OA
ATOM     31  H   UNL     1       2.502   0.373   5.659  0.00  0.00    +0.294 HD
ENDBRANCH   2  30
BRANCH   4  32
ATOM     32  C   UNL     1       7.770   1.702   5.492  0.00  0.00    +0.100 C 
BRANCH  32  33
ATOM     33  C   UNL     1       8.154   3.111   5.866  0.00  0.00    -0.004 A 
ATOM     34  C   UNL     1       8.827   3.551   6.957  0.00  0.00    +0.011 A 
ATOM     35  C   UNL     1       9.070   4.905   7.094  0.00  0.00    +0.008 A 
ATOM     36  C   UNL     1       8.630   5.752   6.132  0.00  0.00    +0.045 A 
ATOM     37  S   UNL     1       7.848   4.632   4.982  0.00  0.00    -0.101 S 
ENDBRANCH  32  33
ENDBRANCH   4  32
TORSDOF 8
