REMARK  Name = ZINC20731426
REMARK  10 active torsions:
REMARK  status: ('A' for Active; 'I' for Inactive)
REMARK    1  A    between atoms: C_1  and  C_2
REMARK    2  A    between atoms: C_2  and  C_3
REMARK    3  A    between atoms: C_2  and  C_4
REMARK    4  A    between atoms: C_4  and  C_6
REMARK    5  A    between atoms: C_4  and  N_10
REMARK    6  A    between atoms: C_6  and  O_8
REMARK    7  A    between atoms: O_8  and  C_9
REMARK    8  A    between atoms: C_22  and  C_24
REMARK    9  A    between atoms: C_29  and  O_30
REMARK   10  A    between atoms: O_30  and  C_31
REMARK                            x       y       z     vdW  Elec       q    Type
REMARK                         _______ _______ _______ _____ _____    ______ ____
ROOT
ATOM      1  N   UNL     1       1.186   1.986  -2.330  0.00  0.00    -0.286 N 
ATOM      2  C   UNL     1       0.265   1.210  -2.936  0.00  0.00    +0.304 C 
ATOM      3  O   UNL     1       0.085   0.070  -2.554  0.00  0.00    -0.253 OA
ATOM      4  N   UNL     1      -0.456   1.698  -3.964  0.00  0.00    -0.273 N 
ATOM      5  C   UNL     1      -1.542   0.910  -4.565  0.00  0.00    +0.116 C 
ATOM      6  C   UNL     1      -2.876   1.632  -4.333  0.00  0.00    +0.076 C 
ATOM      7  C   UNL     1      -2.699   3.096  -4.649  0.00  0.00    +0.066 A 
ATOM      8  C   UNL     1      -1.504   3.720  -4.726  0.00  0.00    +0.064 A 
ATOM      9  N   UNL     1      -1.749   5.025  -5.023  0.00  0.00    -0.346 N 
ATOM     10  H   UNL     1      -1.087   5.724  -5.140  0.00  0.00    +0.167 HD
ATOM     11  C   UNL     1      -3.092   5.162  -5.123  0.00  0.00    +0.197 A 
ATOM     12  N   UNL     1      -3.651   4.001  -4.898  0.00  0.00    -0.240 NA
ATOM     13  C   UNL     1      -0.180   3.039  -4.512  0.00  0.00    +0.160 C 
ATOM     14  H   UNL     1       1.376   2.873  -2.675  0.00  0.00    +0.151 HD
ENDROOT
BRANCH  13  15
ATOM     15  C   UNL     1       0.547   2.917  -5.826  0.00  0.00    +0.021 A 
ATOM     16  C   UNL     1      -0.078   2.333  -6.911  0.00  0.00    +0.009 A 
ATOM     17  C   UNL     1       0.588   2.219  -8.117  0.00  0.00    +0.001 A 
ATOM     18  C   UNL     1       1.883   2.690  -8.241  0.00  0.00    +0.004 A 
ATOM     19  C   UNL     1       2.512   3.276  -7.160  0.00  0.00    +0.046 A 
ATOM     20  C   UNL     1       1.843   3.395  -5.950  0.00  0.00    +0.135 A 
BRANCH  20  21
ATOM     21  O   UNL     1       2.459   3.975  -4.886  0.00  0.00    -0.405 OA
BRANCH  21  22
ATOM     22  C   UNL     1       3.794   4.445  -5.086  0.00  0.00    +0.575 C 
ATOM     23  F   UNL     1       3.801   5.411  -6.098  0.00  0.00    -0.133 F 
ATOM     24  F   UNL     1       4.272   5.010  -3.899  0.00  0.00    -0.133 F 
ATOM     25  F   UNL     1       4.614   3.375  -5.457  0.00  0.00    -0.133 F 
ENDBRANCH  21  22
ENDBRANCH  20  21
ENDBRANCH  13  15
BRANCH   1  26
ATOM     26  C   UNL     1       1.901   1.490  -1.152  0.00  0.00    +0.186 C 
BRANCH  26  28
ATOM     27  C   UNL     1       2.628  -0.524  -2.440  0.00  0.00    +0.009 C 
ATOM     28  C   UNL     1       3.107   0.660  -1.598  0.00  0.00    +0.014 C 
ATOM     29  C   UNL     1       4.045   1.534  -2.434  0.00  0.00    +0.009 C 
ENDBRANCH  26  28
BRANCH  26  30
ATOM     30  C   UNL     1       2.373   2.656  -0.322  0.00  0.00    +0.328 C 
ATOM     31  O   UNL     1       2.137   3.786  -0.679  0.00  0.00    -0.249 OA
BRANCH  30  32
ATOM     32  O   UNL     1       3.057   2.440   0.813  0.00  0.00    -0.467 OA
ATOM     33  C   UNL     1       3.473   3.591   1.549  0.00  0.00    +0.280 C 
ENDBRANCH  30  32
ENDBRANCH  26  30
ENDBRANCH   1  26
TORSDOF 7
