REMARK  Name = ZINC04962395
REMARK  2 active torsions:
REMARK  status: ('A' for Active; 'I' for Inactive)
REMARK    1  A    between atoms: C_5  and  C_7
REMARK    2  A    between atoms: N_8  and  N_9
REMARK                            x       y       z     vdW  Elec       q    Type
REMARK                         _______ _______ _______ _____ _____    ______ ____
ROOT
ATOM      1  C   UNL     1      -2.518   3.869   0.045  0.00  0.00    +0.139 C 
ATOM      2  N   UNL     1      -2.531   5.167   0.051  0.00  0.00    -0.189 NA
ENDROOT
BRANCH   2   3
ATOM      3  N   UNL     1      -3.751   5.856   0.066  0.00  0.00    -0.220 N 
ATOM      4  C   UNL     1      -3.764   7.247   0.072  0.00  0.00    +0.161 A 
ATOM      5  C   UNL     1      -4.977   7.936   0.081  0.00  0.00    +0.050 A 
ATOM      6  C   UNL     1      -4.937   9.320   0.092  0.00  0.00    +0.045 A 
ATOM      7  C   UNL     1      -3.691   9.937   0.084  0.00  0.00    +0.152 A 
ATOM      8  N   UNL     1      -2.594   9.206   0.070  0.00  0.00    -0.136 NA
ATOM      9  N   UNL     1      -2.625   7.923   0.065  0.00  0.00    -0.131 NA
ATOM     10 CL   UNL     1      -3.581  11.669   0.091  0.00  0.00    -0.060 Cl
ATOM     11  H   UNL     1      -4.586   5.363   0.071  0.00  0.00    +0.176 HD
ENDBRANCH   2   3
BRANCH   1  16
ATOM     12  C   UNL     1      -0.013   1.076   0.008  0.00  0.00    +0.001 A 
ATOM     13  C   UNL     1       1.177   1.782   0.000  0.00  0.00    +0.001 A 
ATOM     14  C   UNL     1       1.169   3.166   0.007  0.00  0.00    +0.015 A 
ATOM     15  C   UNL     1      -0.029   3.851   0.022  0.00  0.00    +0.022 A 
ATOM     16  C   UNL     1      -1.234   3.144   0.030  0.00  0.00    +0.008 A 
ATOM     17  C   UNL     1      -1.217   1.747   0.017  0.00  0.00    +0.010 A 
ATOM     18  I   UNL     1      -0.040   5.946   0.032  0.00  0.00    -0.043 I 
ENDBRANCH   1  16
TORSDOF 2
