REMARK  Name = ZINC39747279
REMARK  6 active torsions:
REMARK  status: ('A' for Active; 'I' for Inactive)
REMARK    1  A    between atoms: C_1  and  C_2
REMARK    2  A    between atoms: C_9  and  O_26
REMARK    3  A    between atoms: C_10  and  C_13
REMARK    4  A    between atoms: C_14  and  C_15
REMARK    5  A    between atoms: C_14  and  C_17
REMARK    6  A    between atoms: O_26  and  C_27
REMARK                            x       y       z     vdW  Elec       q    Type
REMARK                         _______ _______ _______ _____ _____    ______ ____
ROOT
ATOM      1  C   UNL     1       0.389   0.923  -0.421  0.00  0.00    +0.047 C 
ATOM      2  C   UNL     1       0.295  -0.573  -0.268  0.00  0.00    -0.007 A 
ATOM      3  C   UNL     1       0.266  -1.376  -1.370  0.00  0.00    +0.008 A 
ATOM      4  C   UNL     1       0.179  -2.765  -1.210  0.00  0.00    +0.019 A 
ATOM      5  C   UNL     1       0.124  -3.304   0.029  0.00  0.00    +0.096 A 
ATOM      6  N   UNL     1       0.153  -2.510   1.136  0.00  0.00    -0.267 N 
ATOM      7  C   UNL     1       0.244  -1.152   1.013  0.00  0.00    +0.147 A 
ATOM      8  N   UNL     1       0.279  -0.360   2.085  0.00  0.00    -0.194 NA
ATOM      9  C   UNL     1       0.233  -0.851   3.313  0.00  0.00    +0.235 A 
ATOM     10  C   UNL     1       0.146  -2.247   3.503  0.00  0.00    +0.103 A 
ATOM     11  C   UNL     1       0.097  -3.079   2.360  0.00  0.00    +0.269 A 
ATOM     12  O   UNL     1       0.021  -4.290   2.477  0.00  0.00    -0.266 OA
ENDROOT
BRANCH  10  13
ATOM     13  C   UNL     1       0.095  -2.801   4.808  0.00  0.00    +0.037 C 
ATOM     14  C   UNL     1      -0.878  -2.417   5.670  0.00  0.00    +0.072 C 
BRANCH  14  15
ATOM     15  C   UNL     1      -0.853  -2.900   7.098  0.00  0.00    +0.216 C 
ATOM     16  N   UNL     1      -2.105  -3.598   7.416  0.00  0.00    -0.359 N 
ATOM     17  C   UNL     1      -2.678  -2.949   8.388  0.00  0.00    +0.060 A 
ATOM     18  C   UNL     1      -3.932  -3.158   9.126  0.00  0.00    +0.027 A 
ATOM     19  C   UNL     1      -4.276  -2.301  10.108  0.00  0.00    +0.002 A 
ATOM     20  C   UNL     1      -3.479  -1.199  10.466  0.00  0.00    +0.002 A 
ATOM     21  C   UNL     1      -2.311  -0.917   9.854  0.00  0.00    +0.027 A 
ATOM     22  C   UNL     1      -1.834  -1.783   8.768  0.00  0.00    +0.060 A 
ATOM     23  N   UNL     1      -0.772  -1.756   8.015  0.00  0.00    -0.359 N 
ATOM     24  H   UNL     1      -2.443  -4.396   6.981  0.00  0.00    +0.162 HD
ATOM     25  H   UNL     1      -0.058  -1.101   8.054  0.00  0.00    +0.162 HD
ENDBRANCH  14  15
BRANCH  14  26
ATOM     26  C   UNL     1      -1.930  -1.554   5.225  0.00  0.00    +0.099 C 
ATOM     27  N   UNL     1      -2.764  -0.868   4.872  0.00  0.00    -0.191 NA
ENDBRANCH  14  26
ENDBRANCH  10  13
BRANCH   9  28
ATOM     28  O   UNL     1       0.271  -0.021   4.380  0.00  0.00    -0.437 OA
BRANCH  28  29
ATOM     29  C   UNL     1       0.459   1.305   4.150  0.00  0.00    +0.130 A 
ATOM     30  C   UNL     1      -0.514   2.040   3.487  0.00  0.00    +0.047 A 
ATOM     31  C   UNL     1      -0.321   3.388   3.255  0.00  0.00    +0.019 A 
ATOM     32  C   UNL     1       0.841   4.005   3.682  0.00  0.00    +0.018 A 
ATOM     33  C   UNL     1       1.812   3.275   4.343  0.00  0.00    +0.019 A 
ATOM     34  C   UNL     1       1.621   1.928   4.583  0.00  0.00    +0.047 A 
ATOM     35 BR   UNL     1       1.103   5.850   3.360  0.00  0.00    -0.050 Br
ENDBRANCH  28  29
ENDBRANCH   9  28
TORSDOF 5
