REMARK  Name = ZINC66971035
REMARK  8 active torsions:
REMARK  status: ('A' for Active; 'I' for Inactive)
REMARK    1  A    between atoms: C_1  and  C_2
REMARK    2  A    between atoms: C_2  and  C_4
REMARK    3  A    between atoms: C_2  and  N_15
REMARK    4  A    between atoms: N_15  and  C_16
REMARK    5  A    between atoms: C_16  and  C_17
REMARK    6  A    between atoms: C_20  and  O_24
REMARK    7  A    between atoms: O_24  and  C_25
REMARK    8  A    between atoms: C_25  and  C_26
REMARK                            x       y       z     vdW  Elec       q    Type
REMARK                         _______ _______ _______ _____ _____    ______ ____
ROOT
ATOM      1  N   UNL     1       0.713  -0.491   1.192  0.00  0.00    +0.386 N 
ATOM      2  H   UNL     1       0.290  -0.099   2.020  0.00  0.00    -0.085 HD
ATOM      3  H   UNL     1       0.655  -1.497   1.230  0.00  0.00    -0.085 HD
ENDROOT
BRANCH   1   5
ATOM      4  C   UNL     1      -0.019   1.526   0.010  0.00  0.00    -0.009 C 
ATOM      5  C   UNL     1       0.002  -0.004   0.002  0.00  0.00    -0.044 C 
BRANCH   5   6
ATOM      6  C   UNL     1      -1.412  -0.526   0.013  0.00  0.00    -0.060 A 
ATOM      7  C   UNL     1      -2.121  -0.570   1.199  0.00  0.00    +0.006 A 
ATOM      8  C   UNL     1      -3.420  -1.046   1.217  0.00  0.00    +0.048 A 
ATOM      9  C   UNL     1      -4.011  -1.480   0.044  0.00  0.00    +0.142 A 
ATOM     10  C   UNL     1      -3.296  -1.437  -1.152  0.00  0.00    +0.076 A 
ATOM     11  C   UNL     1      -1.998  -0.953  -1.165  0.00  0.00    +0.029 A 
ATOM     12  N   UNL     1      -3.906  -1.883  -2.333  0.00  0.00    -0.280 N 
ATOM     13  C   UNL     1      -5.247  -2.043  -2.357  0.00  0.00    +0.255 C 
ATOM     14  O   UNL     1      -5.793  -2.457  -3.357  0.00  0.00    -0.272 OA
ATOM     15  C   UNL     1      -6.062  -1.706  -1.134  0.00  0.00    +0.325 C 
ATOM     16  O   UNL     1      -5.287  -1.951   0.043  0.00  0.00    -0.481 OA
ATOM     17  H   UNL     1      -3.373  -2.072  -3.121  0.00  0.00    +0.155 HD
ENDBRANCH   5   6
ENDBRANCH   1   5
BRANCH   1  18
ATOM     18  C   UNL     1       2.122  -0.083   1.122  0.00  0.00    -0.046 C 
BRANCH  18  19
ATOM     19  C   UNL     1       2.851  -0.582   2.343  0.00  0.00    -0.063 A 
ATOM     20  C   UNL     1       2.914   0.204   3.479  0.00  0.00    +0.005 A 
ATOM     21  C   UNL     1       3.582  -0.250   4.599  0.00  0.00    +0.047 A 
ATOM     22  C   UNL     1       4.189  -1.497   4.585  0.00  0.00    +0.139 A 
ATOM     23  C   UNL     1       4.125  -2.285   3.444  0.00  0.00    +0.083 A 
ATOM     24  C   UNL     1       3.450  -1.827   2.327  0.00  0.00    +0.025 A 
ATOM     25 CL   UNL     1       4.884  -3.846   3.422  0.00  0.00    -0.080 Cl
BRANCH  22  26
ATOM     26  O   UNL     1       4.847  -1.946   5.686  0.00  0.00    -0.487 OA
BRANCH  26  27
ATOM     27  C   UNL     1       4.874  -1.082   6.824  0.00  0.00    +0.256 C 
BRANCH  27  28
ATOM     28  C   UNL     1       5.641  -1.743   7.940  0.00  0.00    +0.006 C 
ATOM     29  C   UNL     1       6.524  -1.058   8.623  0.00  0.00    +0.007 C 
ENDBRANCH  27  28
ENDBRANCH  26  27
ENDBRANCH  22  26
ENDBRANCH  18  19
ENDBRANCH   1  18
TORSDOF 7
