REMARK  Name = ZINC59932761
REMARK  12 active torsions:
REMARK  status: ('A' for Active; 'I' for Inactive)
REMARK    1  A    between atoms: C_1  and  C_2
REMARK    2  A    between atoms: C_2  and  C_4
REMARK    3  A    between atoms: C_2  and  N_17
REMARK    4  A    between atoms: N_6  and  C_7
REMARK    5  A    between atoms: C_10  and  S_13
REMARK    6  A    between atoms: S_13  and  N_16
REMARK    7  A    between atoms: N_17  and  C_18
REMARK    8  A    between atoms: C_21  and  N_25
REMARK    9  A    between atoms: N_25  and  C_26
REMARK   10  A    between atoms: N_25  and  C_27
REMARK   11  A    between atoms: C_27  and  C_28
REMARK   12  A    between atoms: C_27  and  C_29
REMARK                            x       y       z     vdW  Elec       q    Type
REMARK                         _______ _______ _______ _____ _____    ______ ____
ROOT
ATOM      1  C   UNL     1      -0.024   1.532  -0.004  0.00  0.00    +0.038 C 
ATOM      2  C   UNL     1       0.000   0.002  -0.001  0.00  0.00    +0.154 C 
ENDROOT
BRANCH   2   3
ATOM      3  C   UNL     1       0.708  -0.491  -1.237  0.00  0.00    +0.237 C 
ATOM      4  O   UNL     1       0.123  -1.199  -2.029  0.00  0.00    -0.273 OA
ATOM      5  N   UNL     1       1.991  -0.146  -1.462  0.00  0.00    -0.284 N 
ATOM      6  H   UNL     1       2.438   0.474  -0.864  0.00  0.00    +0.155 HD
BRANCH   5   7
ATOM      7  C   UNL     1       2.678  -0.681  -2.557  0.00  0.00    +0.034 A 
ATOM      8  C   UNL     1       4.032  -0.973  -2.454  0.00  0.00    +0.025 A 
ATOM      9  C   UNL     1       4.707  -1.501  -3.537  0.00  0.00    +0.030 A 
ATOM     10  C   UNL     1       4.037  -1.738  -4.723  0.00  0.00    +0.105 A 
ATOM     11  C   UNL     1       2.689  -1.448  -4.829  0.00  0.00    +0.030 A 
ATOM     12  C   UNL     1       2.007  -0.926  -3.747  0.00  0.00    +0.025 A 
BRANCH  10  13
ATOM     13  S   UNL     1       4.902  -2.412  -6.102  0.00  0.00    +0.056 S 
ATOM     14  O   UNL     1       4.176  -2.031  -7.262  0.00  0.00    -0.153 OA
ATOM     15  O   UNL     1       6.273  -2.086  -5.920  0.00  0.00    -0.153 OA
BRANCH  13  16
ATOM     16  N   UNL     1       4.790  -4.061  -5.993  0.00  0.00    -0.204 NA
ATOM     17  H   UNL     1       4.793  -4.601  -6.798  0.00  0.00    +0.144 HD
ATOM     18  H   UNL     1       4.721  -4.486  -5.123  0.00  0.00    +0.144 HD
ENDBRANCH  13  16
ENDBRANCH  10  13
ENDBRANCH   5   7
ENDBRANCH   2   3
BRANCH   2  19
ATOM     19  N   UNL     1      -1.373  -0.508   0.011  0.00  0.00    -0.333 N 
ATOM     20  H   UNL     1      -1.809  -0.747  -0.822  0.00  0.00    +0.147 HD
BRANCH  19  21
ATOM     21  C   UNL     1      -2.056  -0.651   1.225  0.00  0.00    +0.031 A 
ATOM     22  C   UNL     1      -1.433  -0.303   2.417  0.00  0.00    +0.025 A 
ATOM     23  C   UNL     1      -2.106  -0.444   3.615  0.00  0.00    +0.028 A 
ATOM     24  C   UNL     1      -3.405  -0.932   3.629  0.00  0.00    +0.065 A 
ATOM     25  C   UNL     1      -4.029  -1.281   2.436  0.00  0.00    +0.146 A 
ATOM     26  C   UNL     1      -3.357  -1.134   1.237  0.00  0.00    +0.063 A 
ATOM     27  F   UNL     1      -5.293  -1.757   2.449  0.00  0.00    -0.203 F 
BRANCH  24  28
ATOM     28  N   UNL     1      -4.087  -1.075   4.845  0.00  0.00    -0.328 N 
ATOM     29  C   UNL     1      -4.890   0.032   5.369  0.00  0.00    +0.129 C 
BRANCH  28  30
ATOM     30  C   UNL     1      -3.997  -2.333   5.592  0.00  0.00    +0.067 C 
ATOM     31  C   UNL     1      -3.398  -2.063   6.973  0.00  0.00    +0.027 C 
ATOM     32  C   UNL     1      -5.396  -2.933   5.750  0.00  0.00    +0.027 C 
ENDBRANCH  28  30
ENDBRANCH  24  28
ENDBRANCH  19  21
ENDBRANCH   2  19
TORSDOF 8
