REMARK  Name = ZINC14257649
REMARK  8 active torsions:
REMARK  status: ('A' for Active; 'I' for Inactive)
REMARK    1  A    between atoms: C_1  and  C_2
REMARK    2  A    between atoms: C_2  and  C_3
REMARK    3  A    between atoms: C_3  and  C_4
REMARK    4  A    between atoms: C_4  and  C_5
REMARK    5  A    between atoms: C_5  and  C_6
REMARK    6  A    between atoms: N_8  and  C_9
REMARK    7  A    between atoms: C_9  and  N_11
REMARK    8  A    between atoms: C_16  and  C_18
REMARK                            x       y       z     vdW  Elec       q    Type
REMARK                         _______ _______ _______ _____ _____    ______ ____
ROOT
ATOM      1  C   UNL     1      -1.081   6.710  -0.055  0.00  0.00    +0.142 C 
ATOM      2  S   UNL     1      -2.591   5.902  -0.045  0.00  0.00    -0.018 S 
ENDROOT
BRANCH   1   3
ATOM      3  N   UNL     1       0.062   6.002   0.032  0.00  0.00    -0.282 N 
ATOM      4  C   UNL     1       0.022   4.609   0.021  0.00  0.00    +0.124 A 
ATOM      5  C   UNL     1       1.210   3.886   0.003  0.00  0.00    +0.045 A 
ATOM      6  C   UNL     1       1.156   2.503  -0.002  0.00  0.00    +0.020 A 
ATOM      7  C   UNL     1      -0.089   1.889  -0.000  0.00  0.00    +0.039 A 
ATOM      8  C   UNL     1      -1.229   2.670   0.017  0.00  0.00    +0.054 A 
ATOM      9  N   UNL     1      -1.146   3.987   0.027  0.00  0.00    -0.236 NA
ATOM     10  C   UNL     1      -2.583   2.010   0.024  0.00  0.00    +0.067 C 
ATOM     11 BR   UNL     1      -0.224   0.003  -0.014  0.00  0.00    -0.048 Br
ATOM     12  H   UNL     1       0.913   6.462   0.103  0.00  0.00    +0.155 HD
ENDBRANCH   1   3
BRANCH   1  15
ATOM     13  C   UNL     1      -2.180   8.761  -0.238  0.00  0.00    +0.218 C 
ATOM     14  O   UNL     1      -3.249   8.189  -0.231  0.00  0.00    -0.275 OA
ATOM     15  N   UNL     1      -1.037   8.053  -0.150  0.00  0.00    -0.268 N 
ATOM     16  H   UNL     1      -0.181   8.511  -0.156  0.00  0.00    +0.156 HD
BRANCH  13  17
ATOM     17  C   UNL     1      -2.130  10.264  -0.344  0.00  0.00    +0.096 C 
BRANCH  17  18
ATOM     18  C   UNL     1      -3.554  10.816  -0.430  0.00  0.00    +0.009 C 
BRANCH  18  19
ATOM     19  C   UNL     1      -3.503  12.342  -0.538  0.00  0.00    +0.000 C 
BRANCH  19  21
ATOM     20  C   UNL     1      -4.877  14.420  -0.731  0.00  0.00    +0.004 C 
ATOM     21  C   UNL     1      -4.928  12.895  -0.623  0.00  0.00    -0.003 C 
ENDBRANCH  19  21
ENDBRANCH  18  19
ENDBRANCH  17  18
ENDBRANCH  13  17
ENDBRANCH   1  15
TORSDOF 6
