REMARK  Name = ZINC08595822
REMARK  8 active torsions:
REMARK  status: ('A' for Active; 'I' for Inactive)
REMARK    1  A    between atoms: C_1  and  C_2
REMARK    2  A    between atoms: C_5  and  N_9
REMARK    3  A    between atoms: C_6  and  C_8
REMARK    4  A    between atoms: N_17  and  C_18
REMARK    5  A    between atoms: N_20  and  C_29
REMARK    6  A    between atoms: C_29  and  C_30
REMARK    7  A    between atoms: C_30  and  C_31
REMARK    8  A    between atoms: C_30  and  C_32
REMARK                            x       y       z     vdW  Elec       q    Type
REMARK                         _______ _______ _______ _____ _____    ______ ____
ROOT
ATOM      1  N   UNL     1       0.117  -4.149  -0.025  0.00  0.00    -0.327 N 
ATOM      2  C   UNL     1      -1.129  -4.922   0.073  0.00  0.00    +0.124 C 
ATOM      3  C   UNL     1      -1.192  -5.903  -1.104  0.00  0.00    +0.128 C 
ATOM      4  N   UNL     1       0.085  -6.625  -1.183  0.00  0.00    -0.282 N 
ATOM      5  C   UNL     1       1.331  -5.852  -1.282  0.00  0.00    +0.128 C 
ATOM      6  C   UNL     1       1.394  -4.872  -0.110  0.00  0.00    +0.124 C 
ATOM      7  C   UNL     1       0.114  -7.973  -1.164  0.00  0.00    +0.307 C 
ATOM      8  O   UNL     1      -0.913  -8.600  -0.987  0.00  0.00    -0.252 OA
ATOM      9  N   UNL     1       1.280  -8.624  -1.342  0.00  0.00    -0.267 N 
ATOM     10  H   UNL     1       2.111  -8.127  -1.392  0.00  0.00    +0.156 HD
ENDROOT
BRANCH   9  11
ATOM     11  C   UNL     1       1.291 -10.024  -1.456  0.00  0.00    +0.059 A 
ATOM     12  C   UNL     1       0.134 -10.707  -1.566  0.00  0.00    +0.113 A 
ATOM     13  N   UNL     1       0.099 -12.071  -1.679  0.00  0.00    -0.313 N 
ATOM     14  C   UNL     1       1.218 -12.821  -1.687  0.00  0.00    +0.259 A 
ATOM     15  O   UNL     1       1.146 -14.033  -1.789  0.00  0.00    -0.267 OA
ATOM     16  C   UNL     1       2.525 -12.165  -1.571  0.00  0.00    +0.048 A 
ATOM     17  C   UNL     1       2.562 -10.756  -1.462  0.00  0.00    +0.010 A 
ATOM     18  C   UNL     1       3.790 -10.103  -1.356  0.00  0.00    +0.010 A 
ATOM     19  C   UNL     1       4.947 -10.832  -1.365  0.00  0.00    +0.001 A 
ATOM     20  C   UNL     1       4.916 -12.216  -1.479  0.00  0.00    +0.001 A 
ATOM     21  C   UNL     1       3.718 -12.888  -1.573  0.00  0.00    +0.014 A 
BRANCH  13  22
ATOM     22  C   UNL     1      -1.200 -12.737  -1.795  0.00  0.00    +0.128 C 
BRANCH  22  23
ATOM     23  C   UNL     1      -1.585 -12.853  -3.271  0.00  0.00    +0.003 C 
ATOM     24  C   UNL     1      -0.593 -13.772  -3.986  0.00  0.00    +0.009 C 
ATOM     25  C   UNL     1      -2.995 -13.435  -3.388  0.00  0.00    +0.009 C 
ENDBRANCH  22  23
ENDBRANCH  13  22
ENDBRANCH   9  11
BRANCH   1  30
ATOM     26  C   UNL     1      -0.004   1.520  -0.104  0.00  0.00    +0.044 C 
ATOM     27  C   UNL     1       0.029   0.013  -0.083  0.00  0.00    -0.050 A 
ATOM     28  C   UNL     1      -0.046  -0.695  -1.269  0.00  0.00    +0.005 A 
ATOM     29  C   UNL     1      -0.017  -2.075  -1.253  0.00  0.00    +0.023 A 
ATOM     30  C   UNL     1       0.088  -2.753  -0.045  0.00  0.00    +0.033 A 
ATOM     31  C   UNL     1       0.162  -2.039   1.144  0.00  0.00    -0.029 A 
ATOM     32  C   UNL     1       0.138  -0.658   1.121  0.00  0.00    +0.008 A 
ATOM     33  C   UNL     1       0.275  -2.769   2.457  0.00  0.00    +0.045 C 
ENDBRANCH   1  30
TORSDOF 4
