REMARK  Name = ZINC36048034
REMARK  10 active torsions:
REMARK  status: ('A' for Active; 'I' for Inactive)
REMARK    1  A    between atoms: C_1  and  N_2
REMARK    2  A    between atoms: N_2  and  C_3
REMARK    3  A    between atoms: N_2  and  C_4
REMARK    4  A    between atoms: C_7  and  C_10
REMARK    5  A    between atoms: C_12  and  C_36
REMARK    6  A    between atoms: C_16  and  C_30
REMARK    7  A    between atoms: C_18  and  C_21
REMARK    8  A    between atoms: C_24  and  N_27
REMARK    9  A    between atoms: N_27  and  C_28
REMARK   10  A    between atoms: N_27  and  C_29
REMARK                            x       y       z     vdW  Elec       q    Type
REMARK                         _______ _______ _______ _____ _____    ______ ____
ROOT
ATOM      1  C   UNL     1      -4.681  -2.928   0.031  0.00  0.00    +0.099 C 
ATOM      2  C   UNL     1      -5.467  -3.007   1.345  0.00  0.00    +0.107 C 
ATOM      3  C   UNL     1      -6.862  -3.507   1.032  0.00  0.00    +0.152 C 
ATOM      4  O   UNL     1      -7.356  -4.412   1.661  0.00  0.00    -0.296 OA
ATOM      5  C   UNL     1      -7.617  -2.834  -0.095  0.00  0.00    +0.107 C 
ATOM      6  C   UNL     1      -6.694  -2.765  -1.317  0.00  0.00    +0.099 C 
ATOM      7  N   UNL     1      -5.431  -2.119  -0.938  0.00  0.00    -0.301 NA
ATOM      8  H   UNL     1      -5.592  -1.188  -0.585  0.00  0.00    +0.123 HD
ENDROOT
BRANCH   1  12
ATOM      9  C   UNL     1      -0.876  -1.119   0.754  0.00  0.00    +0.029 A 
ATOM     10  C   UNL     1      -1.281  -2.215   1.507  0.00  0.00    +0.023 A 
ATOM     11  C   UNL     1      -2.511  -2.796   1.271  0.00  0.00    +0.007 A 
ATOM     12  C   UNL     1      -3.339  -2.290   0.286  0.00  0.00    -0.029 A 
ATOM     13  C   UNL     1      -2.939  -1.200  -0.465  0.00  0.00    +0.007 A 
ATOM     14  C   UNL     1      -1.713  -0.610  -0.230  0.00  0.00    +0.023 A 
BRANCH   9  16
ATOM     15  C   UNL     1       0.790   0.630   0.200  0.00  0.00    +0.129 C 
ATOM     16  N   UNL     1       0.367  -0.528   0.991  0.00  0.00    -0.336 N 
ATOM     17  C   UNL     1       1.249  -1.067   2.029  0.00  0.00    +0.129 C 
ENDBRANCH   9  16
ENDBRANCH   1  12
BRANCH   6  18
ATOM     18  C   UNL     1      -7.361  -1.965  -2.406  0.00  0.00    -0.029 A 
ATOM     19  C   UNL     1      -7.338  -0.584  -2.360  0.00  0.00    +0.007 A 
ATOM     20  C   UNL     1      -7.947   0.152  -3.357  0.00  0.00    +0.023 A 
ATOM     21  C   UNL     1      -8.585  -0.497  -4.407  0.00  0.00    +0.029 A 
ATOM     22  C   UNL     1      -8.606  -1.885  -4.450  0.00  0.00    +0.023 A 
ATOM     23  C   UNL     1      -7.990  -2.615  -3.452  0.00  0.00    +0.007 A 
BRANCH  21  24
ATOM     24  N   UNL     1      -9.203   0.244  -5.416  0.00  0.00    -0.336 N 
ATOM     25  C   UNL     1      -9.296   1.702  -5.303  0.00  0.00    +0.129 C 
ATOM     26  C   UNL     1      -9.758  -0.436  -6.589  0.00  0.00    +0.129 C 
ENDBRANCH  21  24
ENDBRANCH   6  18
BRANCH   5  27
ATOM     27  C   UNL     1      -8.015  -1.441   0.321  0.00  0.00    -0.035 A 
ATOM     28  C   UNL     1      -9.352  -1.096   0.390  0.00  0.00    +0.004 A 
ATOM     29  C   UNL     1      -9.718   0.181   0.771  0.00  0.00    +0.000 A 
ATOM     30  C   UNL     1      -8.746   1.113   1.085  0.00  0.00    +0.000 A 
ATOM     31  C   UNL     1      -7.410   0.768   1.017  0.00  0.00    +0.000 A 
ATOM     32  C   UNL     1      -7.044  -0.510   0.640  0.00  0.00    +0.004 A 
ENDBRANCH   5  27
BRANCH   2  33
ATOM     33  C   UNL     1      -5.545  -1.641   1.974  0.00  0.00    -0.035 A 
ATOM     34  C   UNL     1      -6.703  -1.238   2.612  0.00  0.00    +0.004 A 
ATOM     35  C   UNL     1      -6.774   0.016   3.189  0.00  0.00    +0.000 A 
ATOM     36  C   UNL     1      -5.687   0.867   3.130  0.00  0.00    +0.000 A 
ATOM     37  C   UNL     1      -4.528   0.464   2.493  0.00  0.00    +0.000 A 
ATOM     38  C   UNL     1      -4.455  -0.791   1.919  0.00  0.00    +0.004 A 
ENDBRANCH   2  33
TORSDOF 6
