REMARK  Name = ZINC09395759
REMARK  10 active torsions:
REMARK  status: ('A' for Active; 'I' for Inactive)
REMARK    1  A    between atoms: C_1  and  C_2
REMARK    2  A    between atoms: C_2  and  C_3
REMARK    3  A    between atoms: C_3  and  N_4
REMARK    4  A    between atoms: C_17  and  S_18
REMARK    5  A    between atoms: S_18  and  C_19
REMARK    6  A    between atoms: C_19  and  C_21
REMARK    7  A    between atoms: C_19  and  C_22
REMARK    8  A    between atoms: N_24  and  C_25
REMARK    9  A    between atoms: C_25  and  C_26
REMARK   10  A    between atoms: C_25  and  C_32
REMARK                            x       y       z     vdW  Elec       q    Type
REMARK                         _______ _______ _______ _____ _____    ______ ____
ROOT
ATOM      1  C   UNL     1      -0.729   1.579   1.267  0.00  0.00    +0.137 C 
ATOM      2  C   UNL     1      -0.013   1.086   0.008  0.00  0.00    +0.029 C 
ENDROOT
BRANCH   1   3
ATOM      3  C   UNL     1      -2.143   1.058   1.278  0.00  0.00    +0.227 C 
ATOM      4  O   UNL     1      -2.427   0.089   1.950  0.00  0.00    -0.275 OA
ATOM      5  N   UNL     1      -3.091   1.667   0.539  0.00  0.00    -0.304 N 
ATOM      6  H   UNL     1      -2.864   2.442   0.002  0.00  0.00    +0.150 HD
BRANCH   5   7
ATOM      7  C   UNL     1      -4.466   1.160   0.550  0.00  0.00    +0.134 C 
BRANCH   7   8
ATOM      8  C   UNL     1      -5.208   1.745   1.724  0.00  0.00    -0.023 A 
ATOM      9  C   UNL     1      -5.014   3.067   2.076  0.00  0.00    +0.006 A 
ATOM     10  C   UNL     1      -5.699   3.605   3.150  0.00  0.00    +0.000 A 
ATOM     11  C   UNL     1      -6.569   2.817   3.878  0.00  0.00    +0.000 A 
ATOM     12  C   UNL     1      -6.759   1.492   3.530  0.00  0.00    +0.000 A 
ATOM     13  C   UNL     1      -6.079   0.957   2.453  0.00  0.00    +0.006 A 
ENDBRANCH   7   8
BRANCH   7  14
ATOM     14  C   UNL     1      -5.157   1.556  -0.729  0.00  0.00    -0.023 A 
ATOM     15  C   UNL     1      -4.953   2.815  -1.264  0.00  0.00    +0.006 A 
ATOM     16  C   UNL     1      -5.583   3.177  -2.440  0.00  0.00    +0.000 A 
ATOM     17  C   UNL     1      -6.426   2.284  -3.075  0.00  0.00    +0.000 A 
ATOM     18  C   UNL     1      -6.634   1.028  -2.538  0.00  0.00    +0.000 A 
ATOM     19  C   UNL     1      -6.000   0.664  -1.365  0.00  0.00    +0.006 A 
ENDBRANCH   7  14
ENDBRANCH   5   7
ENDBRANCH   1   3
BRANCH   1  20
ATOM     20  S   UNL     1       0.148   0.978   2.736  0.00  0.00    -0.073 S 
BRANCH  20  34
ATOM     21  N   UNL     1       4.961   2.502   3.857  0.00  0.00    -0.277 N 
ATOM     22  C   UNL     1       5.131   1.796   4.993  0.00  0.00    +0.263 A 
ATOM     23  O   UNL     1       6.174   1.865   5.615  0.00  0.00    -0.267 OA
ATOM     24  C   UNL     1       4.029   0.939   5.469  0.00  0.00    +0.064 A 
ATOM     25  C   UNL     1       4.150   0.187   6.636  0.00  0.00    +0.015 A 
ATOM     26  C   UNL     1       3.098  -0.603   7.050  0.00  0.00    +0.001 A 
ATOM     27  C   UNL     1       1.926  -0.651   6.311  0.00  0.00    +0.002 A 
ATOM     28  C   UNL     1       1.795   0.089   5.152  0.00  0.00    +0.027 A 
ATOM     29  C   UNL     1       2.843   0.888   4.722  0.00  0.00    +0.064 A 
ATOM     30  N   UNL     1       2.736   1.646   3.557  0.00  0.00    -0.256 N 
ATOM     31  C   UNL     1       3.776   2.432   3.141  0.00  0.00    +0.240 A 
ATOM     32  N   UNL     1       3.408   3.028   2.029  0.00  0.00    -0.109 NA
ATOM     33  N   UNL     1       2.107   2.612   1.722  0.00  0.00    -0.120 NA
ATOM     34  C   UNL     1       1.714   1.782   2.657  0.00  0.00    +0.198 A 
BRANCH  21  35
ATOM     35  C   UNL     1       6.046   3.359   3.372  0.00  0.00    +0.128 C 
BRANCH  35  37
ATOM     36  C   UNL     1       7.030   5.654   3.461  0.00  0.00    +0.005 C 
ATOM     37  C   UNL     1       5.896   4.760   3.968  0.00  0.00    +0.018 C 
ENDBRANCH  35  37
ENDBRANCH  21  35
ENDBRANCH  20  34
ENDBRANCH   1  20
TORSDOF 8
