REMARK  Name = ZINC35023473
REMARK  7 active torsions:
REMARK  status: ('A' for Active; 'I' for Inactive)
REMARK    1  A    between atoms: C_1  and  C_2
REMARK    2  A    between atoms: C_5  and  O_38
REMARK    3  A    between atoms: C_7  and  C_11
REMARK    4  A    between atoms: C_11  and  C_13
REMARK    5  A    between atoms: C_11  and  C_14
REMARK    6  A    between atoms: C_15  and  C_37
REMARK    7  A    between atoms: C_30  and  O_36
REMARK                            x       y       z     vdW  Elec       q    Type
REMARK                         _______ _______ _______ _____ _____    ______ ____
ROOT
ATOM      1  C   UNL     1      -1.294  -0.446   5.200  0.00  0.00    -0.068 C 
ATOM      2  C   UNL     1      -0.979   0.620   5.921  0.00  0.00    -0.062 C 
ATOM      3  C   UNL     1      -0.352   0.289   7.247  0.00  0.00    +0.093 C 
ATOM      4  C   UNL     1      -1.318  -0.781   7.842  0.00  0.00    +0.030 C 
ATOM      5  C   UNL     1      -1.019  -2.083   7.149  0.00  0.00    +0.013 C 
ATOM      6  C   UNL     1      -1.018  -1.851   5.631  0.00  0.00    +0.031 C 
ATOM      7  C   UNL     1      -1.106  -0.660   9.306  0.00  0.00    -0.055 C 
ATOM      8  C   UNL     1      -0.606   0.570   9.567  0.00  0.00    +0.003 C 
ATOM      9  C   UNL     1      -0.431   1.346   8.314  0.00  0.00    +0.167 C 
ATOM     10  O   UNL     1      -0.372   2.550   8.177  0.00  0.00    -0.292 OA
ATOM     11  C   UNL     1      -0.292   1.052  10.947  0.00  0.00    +0.048 C 
ATOM     12  C   UNL     1       1.204   1.200  11.207  0.00  0.00    +0.015 C 
ATOM     13  C   UNL     1       1.398   1.731  12.633  0.00  0.00    +0.032 C 
ATOM     14  C   UNL     1       0.820   0.759  13.660  0.00  0.00    +0.119 C 
ATOM     15  C   UNL     1      -0.689   0.579  13.434  0.00  0.00    +0.062 C 
ATOM     16  C   UNL     1      -0.846   0.116  11.992  0.00  0.00    -0.063 C 
ATOM     17  C   UNL     1      -1.355  -1.043  11.731  0.00  0.00    -0.023 C 
ATOM     18  C   UNL     1      -1.360  -1.688  10.377  0.00  0.00    +0.058 C 
ATOM     19  C   UNL     1      -1.228   2.032   5.457  0.00  0.00    +0.040 C 
ENDROOT
BRANCH   1  20
ATOM     20  C   UNL     1      -1.972  -0.231   3.872  0.00  0.00    +0.000 C 
ATOM     21  C   UNL     1      -3.397  -0.786   3.931  0.00  0.00    +0.010 C 
BRANCH  20  26
ATOM     22  C   UNL     1       0.621   0.561   0.158  0.00  0.00    +0.005 C 
ATOM     23  C   UNL     1       0.476  -0.940   0.416  0.00  0.00    -0.029 C 
ATOM     24  C   UNL     1      -1.000  -1.335   0.315  0.00  0.00    +0.031 C 
ATOM     25  C   UNL     1      -1.789  -0.611   1.410  0.00  0.00    +0.101 C 
ATOM     26  C   UNL     1      -1.188  -0.953   2.775  0.00  0.00    -0.036 C 
ATOM     27  N   UNL     1       0.216  -0.526   2.817  0.00  0.00    +0.383 N 
ATOM     28  C   UNL     1       0.993  -1.270   1.817  0.00  0.00    -0.079 C 
ATOM     29  H   UNL     1       0.272   0.461   2.618  0.00  0.00    -0.085 HD
ATOM     30  H   UNL     1       0.593  -0.705   3.736  0.00  0.00    -0.085 HD
BRANCH  25  31
ATOM     31  O   UNL     1      -3.155  -1.028   1.370  0.00  0.00    -0.393 OA
ATOM     32  H   UNL     1      -3.598  -0.845   0.530  0.00  0.00    +0.210 HD
ENDBRANCH  25  31
ENDBRANCH  20  26
ENDBRANCH   1  20
BRANCH  14  33
ATOM     33  O   UNL     1       1.469  -0.507  13.530  0.00  0.00    -0.391 OA
ATOM     34  H   UNL     1       1.153  -1.177  14.152  0.00  0.00    +0.210 HD
ENDBRANCH  14  33
TORSDOF 4
