REMARK  Name = ZINC54531577
REMARK  5 active torsions:
REMARK  status: ('A' for Active; 'I' for Inactive)
REMARK    1  A    between atoms: C_1  and  C_2
REMARK    2  A    between atoms: C_2  and  C_4
REMARK    3  A    between atoms: C_2  and  N_10
REMARK    4  A    between atoms: C_4  and  N_5
REMARK    5  A    between atoms: C_12  and  C_20
REMARK                            x       y       z     vdW  Elec       q    Type
REMARK                         _______ _______ _______ _____ _____    ______ ____
ROOT
ATOM      1  N   UNL     1      -1.357  -0.545   0.007  0.00  0.00    -0.329 N 
ATOM      2  C   UNL     1      -2.060  -0.663  -1.176  0.00  0.00    +0.111 A 
ATOM      3  C   UNL     1      -3.350  -1.226  -1.171  0.00  0.00    +0.101 A 
ATOM      4  C   UNL     1      -4.038  -1.333  -2.386  0.00  0.00    +0.023 A 
ATOM      5  C   UNL     1      -3.421  -0.880  -3.539  0.00  0.00    -0.027 A 
ATOM      6  C   UNL     1      -2.149  -0.337  -3.467  0.00  0.00    +0.021 A 
ATOM      7  N   UNL     1      -1.520  -0.242  -2.307  0.00  0.00    -0.346 N 
ATOM      8  C   UNL     1      -1.698   0.081  -4.853  0.00  0.00    +0.054 C 
ATOM      9  C   UNL     1      -2.639  -0.661  -5.826  0.00  0.00    +0.011 C 
ATOM     10  C   UNL     1      -3.908  -0.864  -4.971  0.00  0.00    +0.037 C 
ATOM     11  H   UNL     1      -1.781  -0.777   0.848  0.00  0.00    +0.148 HD
ATOM     12  H   UNL     1      -0.631   0.147  -2.286  0.00  0.00    +0.167 HD
ENDROOT
BRANCH   3  13
ATOM     13  C   UNL     1      -3.961  -1.692   0.082  0.00  0.00    +0.390 C 
ATOM     14  O   UNL     1      -5.035  -2.277   0.059  0.00  0.00    -0.240 OA
ATOM     15  O   UNL     1      -3.395  -1.496   1.149  0.00  0.00    -0.240 OA
ENDBRANCH   3  13
BRANCH   1  17
ATOM     16  C   UNL     1       0.044   1.459   0.001  0.00  0.00    +0.026 C 
ATOM     17  C   UNL     1       0.029  -0.070  -0.008  0.00  0.00    +0.052 C 
BRANCH  17  18
ATOM     18  C   UNL     1       0.761  -0.595   1.228  0.00  0.00    -0.057 C 
BRANCH  18  19
ATOM     19  N   UNL     1       0.644  -2.059   1.282  0.00  0.00    +0.381 N 
ATOM     20  C   UNL     1       1.422  -2.676   0.178  0.00  0.00    -0.079 C 
ATOM     21  C   UNL     1       1.668  -4.120   0.682  0.00  0.00    -0.020 C 
ATOM     22  C   UNL     1       1.904  -3.922   2.197  0.00  0.00    -0.020 C 
ATOM     23  C   UNL     1       1.243  -2.572   2.533  0.00  0.00    -0.079 C 
ATOM     24  H   UNL     1      -0.325  -2.333   1.223  0.00  0.00    -0.082 HD
ENDBRANCH  18  19
ENDBRANCH  17  18
ENDBRANCH   1  17
TORSDOF 4
