REMARK  Name = ZINC23056768
REMARK  7 active torsions:
REMARK  status: ('A' for Active; 'I' for Inactive)
REMARK    1  A    between atoms: C_1  and  C_2
REMARK    2  A    between atoms: C_2  and  C_4
REMARK    3  A    between atoms: C_2  and  N_13
REMARK    4  A    between atoms: C_7  and  C_10
REMARK    5  A    between atoms: C_10  and  C_11
REMARK    6  A    between atoms: C_10  and  C_12
REMARK    7  A    between atoms: C_14  and  C_16
REMARK                            x       y       z     vdW  Elec       q    Type
REMARK                         _______ _______ _______ _____ _____    ______ ____
ROOT
ATOM      1  N   UNL     1       0.711  -0.489   1.189  0.00  0.00    -0.306 N 
ATOM      2  C   UNL     1       0.051  -0.633   2.355  0.00  0.00    +0.255 C 
ATOM      3  O   UNL     1      -1.129  -0.361   2.423  0.00  0.00    -0.272 OA
ATOM      4  H   UNL     1       1.654  -0.707   1.135  0.00  0.00    +0.149 HD
ENDROOT
BRANCH   2   5
ATOM      5  C   UNL     1       0.780  -1.133   3.576  0.00  0.00    +0.266 C 
ATOM      6  C   UNL     1       1.843  -0.113   3.988  0.00  0.00    +0.090 C 
ATOM      7  C   UNL     1       2.416  -0.472   5.334  0.00  0.00    -0.029 A 
ATOM      8  C   UNL     1       3.650   0.015   5.714  0.00  0.00    +0.004 A 
ATOM      9  C   UNL     1       4.174  -0.312   6.951  0.00  0.00    +0.000 A 
ATOM     10  C   UNL     1       3.470  -1.130   7.818  0.00  0.00    +0.001 A 
ATOM     11  C   UNL     1       2.235  -1.625   7.452  0.00  0.00    +0.015 A 
ATOM     12  C   UNL     1       1.704  -1.299   6.205  0.00  0.00    +0.062 A 
ATOM     13  C   UNL     1       0.385  -1.825   5.786  0.00  0.00    +0.340 C 
ATOM     14  O   UNL     1      -0.191  -2.680   6.429  0.00  0.00    -0.245 OA
ATOM     15  O   UNL     1      -0.153  -1.310   4.651  0.00  0.00    -0.448 OA
ENDBRANCH   2   5
BRANCH   1  17
ATOM     16  C   UNL     1      -0.019   1.526   0.010  0.00  0.00    +0.033 C 
ATOM     17  C   UNL     1       0.002  -0.004   0.002  0.00  0.00    +0.100 C 
BRANCH  17  18
ATOM     18  C   UNL     1       0.707  -0.490  -1.238  0.00  0.00    -0.027 A 
ATOM     19  C   UNL     1       2.089  -0.511  -1.284  0.00  0.00    +0.006 A 
ATOM     20  C   UNL     1       2.736  -0.957  -2.421  0.00  0.00    +0.004 A 
ATOM     21  C   UNL     1       2.002  -1.382  -3.512  0.00  0.00    -0.045 A 
ATOM     22  C   UNL     1       0.620  -1.362  -3.466  0.00  0.00    +0.004 A 
ATOM     23  C   UNL     1      -0.027  -0.920  -2.327  0.00  0.00    +0.006 A 
BRANCH  21  24
ATOM     24  C   UNL     1       2.707  -1.867  -4.753  0.00  0.00    +0.013 C 
ATOM     25  C   UNL     1       2.307  -3.317  -5.032  0.00  0.00    +0.012 C 
ATOM     26  C   UNL     1       2.309  -0.990  -5.941  0.00  0.00    +0.012 C 
ENDBRANCH  21  24
ENDBRANCH  17  18
ENDBRANCH   1  17
TORSDOF 4
