REMARK  Name = ZINC36986587
REMARK  5 active torsions:
REMARK  status: ('A' for Active; 'I' for Inactive)
REMARK    1  A    between atoms: C_1  and  C_2
REMARK    2  A    between atoms: C_2  and  C_3
REMARK    3  A    between atoms: C_2  and  N_4
REMARK    4  A    between atoms: C_10  and  N_20
REMARK    5  A    between atoms: C_11  and  C_12
REMARK                            x       y       z     vdW  Elec       q    Type
REMARK                         _______ _______ _______ _____ _____    ______ ____
ROOT
ATOM      1  N   UNL     1      -1.442  -0.249   0.107  0.00  0.00    +0.384 N 
ATOM      2  C   UNL     1      -1.680  -1.680   0.338  0.00  0.00    -0.073 C 
ATOM      3  C   UNL     1      -3.135  -1.913   0.757  0.00  0.00    +0.018 C 
ATOM      4  C   UNL     1      -4.032  -1.234  -0.268  0.00  0.00    -0.027 A 
ATOM      5  C   UNL     1      -3.523  -0.303  -1.106  0.00  0.00    -0.021 A 
ATOM      6  S   UNL     1      -4.893   0.199  -2.102  0.00  0.00    -0.080 S 
ATOM      7  C   UNL     1      -6.097  -0.770  -1.445  0.00  0.00    +0.076 A 
ATOM      8  C   UNL     1      -5.448  -1.491  -0.451  0.00  0.00    +0.068 A 
ATOM      9  C   UNL     1      -2.103   0.167  -1.144  0.00  0.00    -0.035 C 
ATOM     10  H   UNL     1      -1.818   0.282   0.878  0.00  0.00    -0.081 HD
ENDROOT
BRANCH   8  11
ATOM     11  C   UNL     1      -6.161  -2.467   0.375  0.00  0.00    +0.249 C 
ATOM     12  O   UNL     1      -6.685  -2.117   1.416  0.00  0.00    -0.270 OA
ATOM     13  N   UNL     1      -6.237  -3.754  -0.018  0.00  0.00    -0.297 N 
ATOM     14  C   UNL     1      -5.604  -4.194  -1.269  0.00  0.00    +0.108 C 
ATOM     15  C   UNL     1      -4.683  -5.379  -0.966  0.00  0.00    +0.019 C 
ATOM     16  C   UNL     1      -5.481  -6.470  -0.248  0.00  0.00    +0.003 C 
ATOM     17  C   UNL     1      -6.017  -5.924   1.077  0.00  0.00    +0.019 C 
ATOM     18  C   UNL     1      -6.949  -4.746   0.800  0.00  0.00    +0.108 C 
ENDBRANCH   8  11
BRANCH   1  20
ATOM     19  C   UNL     1       0.246   1.468  -0.337  0.00  0.00    -0.014 C 
ATOM     20  C   UNL     1       0.002  -0.004   0.002  0.00  0.00    -0.074 C 
ATOM     21  C   UNL     1       0.674  -0.339   1.335  0.00  0.00    -0.014 C 
ENDBRANCH   1  20
BRANCH   7  22
ATOM     22  N   UNL     1      -7.429  -0.835  -1.809  0.00  0.00    -0.352 N 
ATOM     23  H   UNL     1      -7.763  -0.274  -2.527  0.00  0.00    +0.143 HD
ATOM     24  H   UNL     1      -8.029  -1.441  -1.347  0.00  0.00    +0.143 HD
ENDBRANCH   7  22
TORSDOF 3
