REMARK  Name = ZINC39413526
REMARK  4 active torsions:
REMARK  status: ('A' for Active; 'I' for Inactive)
REMARK    1  A    between atoms: C_1  and  C_2
REMARK    2  A    between atoms: C_2  and  C_3
REMARK    3  A    between atoms: C_2  and  S_4
REMARK    4  A    between atoms: S_4  and  C_5
REMARK                            x       y       z     vdW  Elec       q    Type
REMARK                         _______ _______ _______ _____ _____    ______ ____
ROOT
ATOM      1  C   UNL     1      -2.365  -0.093  -1.525  0.00  0.00    +0.182 C 
ATOM      2  N   UNL     1      -1.586   0.598  -2.340  0.00  0.00    -0.151 NA
ATOM      3  C   UNL     1      -1.998   1.042  -3.526  0.00  0.00    +0.272 C 
ATOM      4  O   UNL     1      -1.253   1.679  -4.253  0.00  0.00    -0.268 OA
ATOM      5  C   UNL     1      -3.405   0.735  -3.943  0.00  0.00    +0.071 C 
ATOM      6  C   UNL     1      -4.001   1.029  -5.110  0.00  0.00    -0.042 C 
ATOM      7  C   UNL     1      -3.266   1.603  -6.319  0.00  0.00    +0.033 C 
ATOM      8  C   UNL     1      -3.547   0.660  -7.497  0.00  0.00    +0.004 C 
ATOM      9  C   UNL     1      -5.051   0.453  -7.660  0.00  0.00    +0.002 C 
ATOM     10  C   UNL     1      -5.643  -0.237  -6.428  0.00  0.00    +0.019 C 
ATOM     11  C   UNL     1      -5.484   0.694  -5.223  0.00  0.00    +0.079 C 
ATOM     12  S   UNL     1      -5.785  -0.233  -3.671  0.00  0.00    -0.097 S 
ATOM     13  C   UNL     1      -4.178  -0.034  -2.943  0.00  0.00    +0.112 C 
ATOM     14  N   UNL     1      -3.627  -0.407  -1.816  0.00  0.00    -0.217 NA
ENDROOT
BRANCH   1  15
ATOM     15  S   UNL     1      -1.700  -0.632   0.015  0.00  0.00    -0.086 S 
BRANCH  15  17
ATOM     16  C   UNL     1      -0.019   1.526   0.010  0.00  0.00    +0.019 C 
ATOM     17  C   UNL     1       0.002  -0.004   0.002  0.00  0.00    +0.048 C 
ATOM     18  C   UNL     1       0.742  -0.511   1.242  0.00  0.00    +0.019 C 
ENDBRANCH  15  17
ENDBRANCH   1  15
TORSDOF 2
