REMARK  Name = ZINC64121145
REMARK  6 active torsions:
REMARK  status: ('A' for Active; 'I' for Inactive)
REMARK    1  A    between atoms: C_1  and  C_2
REMARK    2  A    between atoms: C_2  and  C_4
REMARK    3  A    between atoms: C_2  and  N_12
REMARK    4  A    between atoms: N_15  and  C_16
REMARK    5  A    between atoms: C_16  and  C_17
REMARK    6  A    between atoms: C_17  and  C_18
REMARK                            x       y       z     vdW  Elec       q    Type
REMARK                         _______ _______ _______ _____ _____    ______ ____
ROOT
ATOM      1  N   UNL     1      -1.415  -0.369   0.057  0.00  0.00    -0.288 N 
ATOM      2  C   UNL     1      -2.030  -0.508   1.248  0.00  0.00    +0.300 C 
ATOM      3  O   UNL     1      -1.407  -0.330   2.278  0.00  0.00    -0.253 OA
ATOM      4  N   UNL     1      -3.333  -0.845   1.299  0.00  0.00    -0.299 N 
ATOM      5  H   UNL     1      -1.912  -0.512  -0.764  0.00  0.00    +0.151 HD
ATOM      6  H   UNL     1      -3.830  -0.988   0.478  0.00  0.00    +0.150 HD
ENDROOT
BRANCH   1   8
ATOM      7  C   UNL     1       0.139   1.518   0.085  0.00  0.00    +0.038 C 
ATOM      8  C   UNL     1       0.002  -0.003   0.002  0.00  0.00    +0.157 C 
BRANCH   8   9
ATOM      9  C   UNL     1       0.597  -0.491  -1.294  0.00  0.00    +0.236 C 
ATOM     10  O   UNL     1      -0.128  -0.785  -2.221  0.00  0.00    -0.274 OA
ATOM     11  N   UNL     1       1.934  -0.601  -1.423  0.00  0.00    -0.300 N 
ATOM     12  C   UNL     1       2.819  -0.361  -0.274  0.00  0.00    +0.108 C 
ATOM     13  C   UNL     1       3.736  -1.575  -0.096  0.00  0.00    +0.019 C 
ATOM     14  C   UNL     1       4.471  -1.851  -1.409  0.00  0.00    +0.003 C 
ATOM     15  C   UNL     1       3.455  -2.171  -2.508  0.00  0.00    +0.019 C 
ATOM     16  C   UNL     1       2.534  -0.969  -2.712  0.00  0.00    +0.108 C 
ENDBRANCH   8   9
ENDBRANCH   1   8
BRANCH   4  17
ATOM     17  C   UNL     1      -4.001  -0.996   2.595  0.00  0.00    +0.110 C 
BRANCH  17  18
ATOM     18  C   UNL     1      -5.465  -1.379   2.372  0.00  0.00    +0.052 C 
BRANCH  18  19
ATOM     19  C   UNL     1      -6.152  -1.534   3.704  0.00  0.00    -0.040 C 
ATOM     20  C   UNL     1      -6.877  -0.600   4.359  0.00  0.00    -0.001 A 
ATOM     21  C   UNL     1      -7.229   0.789   4.037  0.00  0.00    +0.013 A 
ATOM     22  C   UNL     1      -7.986   1.493   4.908  0.00  0.00    +0.039 A 
ATOM     23  C   UNL     1      -8.444   0.928   6.110  0.00  0.00    +0.125 A 
ATOM     24  C   UNL     1      -8.160  -0.344   6.473  0.00  0.00    +0.064 A 
ATOM     25  C   UNL     1      -7.372  -1.172   5.631  0.00  0.00    +0.046 A 
ATOM     26  N   UNL     1      -6.968  -2.413   5.759  0.00  0.00    -0.380 N 
ATOM     27  C   UNL     1      -6.175  -2.770   4.577  0.00  0.00    +0.144 C 
ATOM     28  F   UNL     1      -9.198   1.686   6.937  0.00  0.00    -0.205 F 
ATOM     29  H   UNL     1      -7.163  -2.999   6.507  0.00  0.00    +0.160 HD
ENDBRANCH  18  19
ENDBRANCH  17  18
ENDBRANCH   4  17
TORSDOF 5
