REMARK  Name = ZINC08557075
REMARK  9 active torsions:
REMARK  status: ('A' for Active; 'I' for Inactive)
REMARK    1  A    between atoms: C_1  and  C_2
REMARK    2  A    between atoms: C_2  and  C_3
REMARK    3  A    between atoms: C_2  and  C_4
REMARK    4  A    between atoms: C_2  and  C_5
REMARK    5  A    between atoms: C_12  and  N_16
REMARK    6  A    between atoms: C_13  and  C_14
REMARK    7  A    between atoms: C_17  and  C_19
REMARK    8  A    between atoms: C_19  and  S_20
REMARK    9  A    between atoms: S_20  and  C_21
REMARK                            x       y       z     vdW  Elec       q    Type
REMARK                         _______ _______ _______ _____ _____    ______ ____
ROOT
ATOM      1  C   UNL     1       0.002  -0.004   0.002  0.00  0.00    -0.000 C 
ATOM      2  C   UNL     1       0.742  -0.514   1.242  0.00  0.00    +0.009 C 
ATOM      3  C   UNL     1       0.985  -2.020   1.120  0.00  0.00    +0.037 C 
ATOM      4  C   UNL     1      -0.340  -2.706   0.809  0.00  0.00    -0.018 A 
ATOM      5  C   UNL     1      -1.390  -2.006   0.327  0.00  0.00    -0.004 A 
ATOM      6  S   UNL     1      -2.678  -3.203   0.127  0.00  0.00    -0.077 S 
ATOM      7  C   UNL     1      -1.835  -4.614   0.676  0.00  0.00    +0.090 A 
ATOM      8  C   UNL     1      -0.579  -4.126   1.000  0.00  0.00    +0.084 A 
ATOM      9  C   UNL     1      -1.437  -0.538   0.030  0.00  0.00    +0.047 C 
ENDROOT
BRANCH   1  11
ATOM     10  C   UNL     1       1.417   2.055  -0.000  0.00  0.00    +0.011 C 
ATOM     11  C   UNL     1      -0.019   1.526   0.010  0.00  0.00    -0.035 C 
ATOM     12  C   UNL     1      -0.759   2.033  -1.229  0.00  0.00    +0.011 C 
ATOM     13  C   UNL     1      -0.735   2.019   1.269  0.00  0.00    +0.011 C 
ENDBRANCH   1  11
BRANCH   7  14
ATOM     14  N   UNL     1      -2.304  -5.918   0.768  0.00  0.00    -0.278 N 
ATOM     15  C   UNL     1      -3.569  -6.206   0.402  0.00  0.00    +0.228 C 
ATOM     16  O   UNL     1      -4.298  -5.327  -0.007  0.00  0.00    -0.275 OA
ATOM     17  H   UNL     1      -1.722  -6.621   1.095  0.00  0.00    +0.155 HD
BRANCH  15  18
ATOM     18  C   UNL     1      -4.078  -7.621   0.502  0.00  0.00    +0.173 C 
BRANCH  18  19
ATOM     19  S   UNL     1      -5.802  -7.684  -0.059  0.00  0.00    -0.075 S 
BRANCH  19  20
ATOM     20  C   UNL     1      -6.245  -9.381   0.117  0.00  0.00    +0.210 A 
ATOM     21  N   UNL     1      -7.439  -9.907  -0.180  0.00  0.00    -0.188 NA
ATOM     22  C   UNL     1      -7.427 -11.199   0.069  0.00  0.00    +0.209 A 
ATOM     23  N   UNL     1      -6.203 -11.522   0.537  0.00  0.00    -0.246 N 
ATOM     24  H   UNL     1      -5.898 -12.403   0.806  0.00  0.00    +0.192 HD
ATOM     25  N   UNL     1      -5.457 -10.333   0.553  0.00  0.00    -0.144 NA
ATOM     26  N   UNL     1      -8.483 -12.073  -0.115  0.00  0.00    -0.328 N 
ATOM     27  H   UNL     1      -9.329 -11.745  -0.458  0.00  0.00    +0.145 HD
ATOM     28  H   UNL     1      -8.378 -13.013   0.099  0.00  0.00    +0.145 HD
ENDBRANCH  19  20
ENDBRANCH  18  19
ENDBRANCH  15  18
ENDBRANCH   7  14
BRANCH   8  29
ATOM     29  C   UNL     1       0.446  -4.990   1.505  0.00  0.00    +0.102 C 
ATOM     30  N   UNL     1       1.258  -5.675   1.906  0.00  0.00    -0.191 NA
ENDBRANCH   8  29
TORSDOF 6
