REMARK  Name = ZINC04477053
REMARK  5 active torsions:
REMARK  status: ('A' for Active; 'I' for Inactive)
REMARK    1  A    between atoms: C_1  and  C_2
REMARK    2  A    between atoms: C_5  and  C_8
REMARK    3  A    between atoms: C_8  and  C_23
REMARK    4  A    between atoms: N_11  and  C_15
REMARK    5  A    between atoms: C_15  and  C_16
REMARK                            x       y       z     vdW  Elec       q    Type
REMARK                         _______ _______ _______ _____ _____    ______ ____
ROOT
ATOM      1  C   UNL     1       0.241  -3.599  -0.848  0.00  0.00    +0.135 C 
ATOM      2  C   UNL     1       1.196  -4.267  -1.818  0.00  0.00    +0.251 C 
ATOM      3  O   UNL     1       1.388  -3.972  -2.978  0.00  0.00    -0.272 OA
ATOM      4  N   UNL     1       1.786  -5.259  -1.122  0.00  0.00    -0.220 N 
ATOM      5  C   UNL     1       1.343  -5.309   0.139  0.00  0.00    +0.310 C 
ATOM      6  O   UNL     1       1.728  -6.119   0.960  0.00  0.00    -0.252 OA
ATOM      7  N   UNL     1       0.422  -4.362   0.398  0.00  0.00    -0.281 N 
ATOM      8  C   UNL     1      -1.200  -3.711  -1.348  0.00  0.00    +0.047 C 
ATOM      9  H   UNL     1      -0.033  -4.212   1.241  0.00  0.00    +0.152 HD
ENDROOT
BRANCH   1  14
ATOM     10  C   UNL     1       1.687   1.942  -0.067  0.00  0.00    +0.044 C 
ATOM     11  C   UNL     1       1.310   0.497  -0.271  0.00  0.00    -0.050 A 
ATOM     12  C   UNL     1       1.573  -0.123  -1.478  0.00  0.00    +0.004 A 
ATOM     13  C   UNL     1       1.232  -1.450  -1.663  0.00  0.00    +0.006 A 
ATOM     14  C   UNL     1       0.619  -2.154  -0.644  0.00  0.00    -0.015 A 
ATOM     15  C   UNL     1       0.351  -1.533   0.561  0.00  0.00    +0.006 A 
ATOM     16  C   UNL     1       0.697  -0.208   0.748  0.00  0.00    +0.004 A 
ENDBRANCH   1  14
BRANCH   4  17
ATOM     17  C   UNL     1       2.790  -6.170  -1.678  0.00  0.00    +0.154 C 
BRANCH  17  18
ATOM     18  C   UNL     1       2.100  -7.285  -2.420  0.00  0.00    -0.016 A 
ATOM     19  C   UNL     1       1.885  -7.181  -3.781  0.00  0.00    +0.006 A 
ATOM     20  C   UNL     1       1.253  -8.204  -4.462  0.00  0.00    +0.000 A 
ATOM     21  C   UNL     1       0.835  -9.333  -3.781  0.00  0.00    +0.001 A 
ATOM     22  C   UNL     1       1.049  -9.438  -2.420  0.00  0.00    +0.015 A 
ATOM     23  C   UNL     1       1.686  -8.416  -1.739  0.00  0.00    +0.023 A 
ATOM     24 BR   UNL     1       1.986  -8.562   0.122  0.00  0.00    -0.050 Br
ENDBRANCH  17  18
ENDBRANCH   4  17
TORSDOF 3
