REMARK  Name = ZINC16431130
REMARK  7 active torsions:
REMARK  status: ('A' for Active; 'I' for Inactive)
REMARK    1  A    between atoms: C_6  and  C_7
REMARK    2  A    between atoms: C_7  and  N_46
REMARK    3  A    between atoms: C_8  and  C_9
REMARK    4  A    between atoms: C_8  and  N_46
REMARK    5  A    between atoms: C_14  and  O_15
REMARK    6  A    between atoms: O_15  and  C_16
REMARK    7  A    between atoms: C_16  and  C_17
REMARK                            x       y       z     vdW  Elec       q    Type
REMARK                         _______ _______ _______ _____ _____    ______ ____
ROOT
ATOM      1  C   UNL     1      -4.577  -0.285   2.881  0.00  0.00    -0.022 A 
ATOM      2  C   UNL     1      -4.320  -1.510   3.467  0.00  0.00    +0.020 A 
ATOM      3  C   UNL     1      -4.679  -1.736   4.784  0.00  0.00    +0.018 A 
ATOM      4  C   UNL     1      -5.295  -0.737   5.517  0.00  0.00    +0.019 A 
ATOM      5  C   UNL     1      -5.554   0.489   4.934  0.00  0.00    +0.047 A 
ATOM      6  C   UNL     1      -5.189   0.720   3.616  0.00  0.00    +0.122 A 
ATOM      7 BR   UNL     1      -4.327  -3.412   5.584  0.00  0.00    -0.050 Br
ENDROOT
BRANCH   1   8
ATOM      8  C   UNL     1      -4.185  -0.039   1.447  0.00  0.00    -0.043 C 
BRANCH   8   9
ATOM      9  N   UNL     1      -2.920   0.719   1.414  0.00  0.00    +0.384 N 
ATOM     10  H   UNL     1      -3.050   1.615   1.899  0.00  0.00    -0.085 HD
ATOM     11  H   UNL     1      -2.188   0.177   1.887  0.00  0.00    -0.085 HD
BRANCH   9  12
ATOM     12  C   UNL     1      -2.512   0.975   0.020  0.00  0.00    -0.046 C 
BRANCH  12  18
ATOM     13  C   UNL     1      -0.013   1.076   0.008  0.00  0.00    +0.005 A 
ATOM     14  C   UNL     1       1.176   1.782   0.000  0.00  0.00    +0.050 A 
ATOM     15  C   UNL     1       1.160   3.167   0.008  0.00  0.00    +0.166 A 
ATOM     16  C   UNL     1      -0.057   3.845   0.023  0.00  0.00    +0.166 A 
ATOM     17  C   UNL     1      -1.244   3.132   0.030  0.00  0.00    +0.051 A 
ATOM     18  C   UNL     1      -1.220   1.749   0.017  0.00  0.00    -0.061 A 
ATOM     19  O   UNL     1       0.193   5.187   0.028  0.00  0.00    -0.453 OA
ATOM     20  C   UNL     1       1.562   5.326  -0.396  0.00  0.00    +0.466 C 
ATOM     21  O   UNL     1       2.171   4.084   0.004  0.00  0.00    -0.453 OA
ENDBRANCH  12  18
ENDBRANCH   9  12
ENDBRANCH   8   9
ENDBRANCH   1   8
BRANCH   6  22
ATOM     22  O   UNL     1      -5.436   1.927   3.043  0.00  0.00    -0.487 OA
BRANCH  22  23
ATOM     23  C   UNL     1      -6.070   2.915   3.858  0.00  0.00    +0.266 C 
BRANCH  23  24
ATOM     24  C   UNL     1      -6.262   4.178   3.059  0.00  0.00    +0.008 A 
ATOM     25  C   UNL     1      -5.842   4.235   1.744  0.00  0.00    +0.010 A 
ATOM     26  C   UNL     1      -6.018   5.393   1.010  0.00  0.00    +0.020 A 
ATOM     27  C   UNL     1      -6.616   6.496   1.593  0.00  0.00    +0.042 A 
ATOM     28  C   UNL     1      -7.037   6.441   2.909  0.00  0.00    +0.040 A 
ATOM     29  C   UNL     1      -6.865   5.279   3.641  0.00  0.00    +0.049 A 
ATOM     30 CL   UNL     1      -7.399   5.206   5.291  0.00  0.00    -0.083 Cl
ATOM     31 CL   UNL     1      -6.837   7.951   0.672  0.00  0.00    -0.083 Cl
ENDBRANCH  23  24
ENDBRANCH  22  23
ENDBRANCH   6  22
TORSDOF 7
