REMARK  Name = ZINC66123386
REMARK  12 active torsions:
REMARK  status: ('A' for Active; 'I' for Inactive)
REMARK    1  A    between atoms: C_1  and  C_2
REMARK    2  A    between atoms: C_4  and  C_8
REMARK    3  A    between atoms: C_5  and  C_7
REMARK    4  A    between atoms: C_8  and  C_10
REMARK    5  A    between atoms: C_8  and  C_11
REMARK    6  A    between atoms: N_13  and  N_14
REMARK    7  A    between atoms: N_14  and  C_15
REMARK    8  A    between atoms: C_15  and  N_17
REMARK    9  A    between atoms: N_17  and  C_18
REMARK   10  A    between atoms: C_23  and  C_24
REMARK   11  A    between atoms: C_24  and  C_25
REMARK   12  A    between atoms: C_24  and  C_26
REMARK                            x       y       z     vdW  Elec       q    Type
REMARK                         _______ _______ _______ _____ _____    ______ ____
ROOT
ATOM      1  N   UNL     1      -3.911  -4.482  -2.355  0.00  0.00    -0.246 N 
ATOM      2  H   UNL     1      -3.688  -3.838  -3.045  0.00  0.00    +0.172 HD
ENDROOT
BRANCH   1   5
ATOM      3  C   UNL     1      -2.684  -3.226  -0.748  0.00  0.00    +0.236 C 
ATOM      4  O   UNL     1      -2.405  -2.420  -1.611  0.00  0.00    -0.274 OA
ATOM      5  N   UNL     1      -3.444  -4.298  -1.047  0.00  0.00    -0.235 N 
ATOM      6  H   UNL     1      -3.667  -4.942  -0.357  0.00  0.00    +0.173 HD
BRANCH   3   7
ATOM      7  C   UNL     1      -2.180  -3.028   0.659  0.00  0.00    +0.107 C 
ATOM      8  C   UNL     1      -3.370  -2.916   1.615  0.00  0.00    +0.022 C 
BRANCH   7  12
ATOM      9  C   UNL     1      -0.759   1.859   0.424  0.00  0.00    +0.086 C 
ATOM     10  C   UNL     1      -0.756   0.364   0.620  0.00  0.00    +0.102 A 
ATOM     11  C   UNL     1      -1.805  -0.456   0.429  0.00  0.00    +0.049 A 
ATOM     12  C   UNL     1      -1.361  -1.765   0.726  0.00  0.00    +0.005 A 
ATOM     13  C   UNL     1      -0.068  -1.666   1.081  0.00  0.00    +0.106 A 
ATOM     14  O   UNL     1       0.295  -0.375   1.010  0.00  0.00    -0.465 OA
ATOM     15  C   UNL     1       0.825  -2.811   1.486  0.00  0.00    +0.086 C 
ENDBRANCH   7  12
ENDBRANCH   3   7
ENDBRANCH   1   5
BRANCH   1  16
ATOM     16  C   UNL     1      -4.671  -5.554  -2.654  0.00  0.00    +0.151 C 
ATOM     17  S   UNL     1      -5.243  -5.779  -4.252  0.00  0.00    -0.017 S 
BRANCH  16  18
ATOM     18  N   UNL     1      -4.981  -6.449  -1.695  0.00  0.00    -0.296 N 
ATOM     19  H   UNL     1      -4.593  -6.366  -0.810  0.00  0.00    +0.154 HD
BRANCH  18  20
ATOM     20  C   UNL     1      -5.863  -7.498  -1.977  0.00  0.00    +0.036 A 
ATOM     21  C   UNL     1      -7.037  -7.252  -2.678  0.00  0.00    +0.023 A 
ATOM     22  C   UNL     1      -7.905  -8.290  -2.954  0.00  0.00    +0.002 A 
ATOM     23  C   UNL     1      -7.607  -9.573  -2.532  0.00  0.00    +0.000 A 
ATOM     24  C   UNL     1      -6.440  -9.821  -1.834  0.00  0.00    +0.006 A 
ATOM     25  C   UNL     1      -5.564  -8.789  -1.560  0.00  0.00    -0.024 A 
BRANCH  25  26
ATOM     26  C   UNL     1      -4.289  -9.061  -0.805  0.00  0.00    +0.015 C 
ATOM     27  C   UNL     1      -4.626  -9.612   0.582  0.00  0.00    +0.012 C 
ATOM     28  C   UNL     1      -3.451 -10.087  -1.571  0.00  0.00    +0.012 C 
ENDBRANCH  25  26
ENDBRANCH  18  20
ENDBRANCH  16  18
ENDBRANCH   1  16
TORSDOF 7
