REMARK  Name = ZINC40739751
REMARK  8 active torsions:
REMARK  status: ('A' for Active; 'I' for Inactive)
REMARK    1  A    between atoms: C_1  and  C_2
REMARK    2  A    between atoms: C_2  and  C_4
REMARK    3  A    between atoms: C_2  and  N_10
REMARK    4  A    between atoms: N_10  and  C_11
REMARK    5  A    between atoms: C_11  and  C_12
REMARK    6  A    between atoms: C_17  and  O_18
REMARK    7  A    between atoms: O_18  and  C_19
REMARK    8  A    between atoms: C_19  and  C_20
REMARK                            x       y       z     vdW  Elec       q    Type
REMARK                         _______ _______ _______ _____ _____    ______ ____
ROOT
ATOM      1  C   UNL     1      -3.464  -0.648  -1.224  0.00  0.00    -0.022 A 
ATOM      2  C   UNL     1      -3.779  -1.806  -1.908  0.00  0.00    +0.020 A 
ATOM      3  C   UNL     1      -5.076  -2.285  -1.899  0.00  0.00    +0.018 A 
ATOM      4  C   UNL     1      -6.061  -1.606  -1.204  0.00  0.00    +0.019 A 
ATOM      5  C   UNL     1      -5.751  -0.448  -0.518  0.00  0.00    +0.047 A 
ATOM      6  C   UNL     1      -4.449   0.031  -0.522  0.00  0.00    +0.122 A 
ATOM      7 BR   UNL     1      -5.504  -3.870  -2.837  0.00  0.00    -0.050 Br
ENDROOT
BRANCH   1   8
ATOM      8  C   UNL     1      -2.050  -0.126  -1.234  0.00  0.00    -0.042 C 
BRANCH   8   9
ATOM      9  N   UNL     1      -1.376  -0.512   0.012  0.00  0.00    +0.386 N 
ATOM     10  H   UNL     1      -1.363  -1.518   0.090  0.00  0.00    -0.085 HD
ATOM     11  H   UNL     1      -1.873  -0.121   0.799  0.00  0.00    -0.085 HD
BRANCH   9  13
ATOM     12  C   UNL     1      -0.019   1.526   0.010  0.00  0.00    -0.009 C 
ATOM     13  C   UNL     1       0.002  -0.004   0.002  0.00  0.00    -0.044 C 
BRANCH  13  14
ATOM     14  C   UNL     1       0.731  -0.503   1.223  0.00  0.00    -0.062 A 
ATOM     15  C   UNL     1       0.081  -0.558   2.442  0.00  0.00    +0.002 A 
ATOM     16  C   UNL     1       0.749  -1.016   3.562  0.00  0.00    +0.000 A 
ATOM     17  C   UNL     1       2.068  -1.420   3.463  0.00  0.00    +0.000 A 
ATOM     18  C   UNL     1       2.718  -1.365   2.244  0.00  0.00    +0.000 A 
ATOM     19  C   UNL     1       2.048  -0.911   1.123  0.00  0.00    +0.002 A 
ENDBRANCH  13  14
ENDBRANCH   9  13
ENDBRANCH   8   9
ENDBRANCH   1   8
BRANCH   6  20
ATOM     20  O   UNL     1      -4.140   1.168   0.157  0.00  0.00    -0.487 OA
BRANCH  20  21
ATOM     21  C   UNL     1      -5.205   1.815   0.857  0.00  0.00    +0.264 C 
BRANCH  21  22
ATOM     22  C   UNL     1      -4.677   3.048   1.545  0.00  0.00    -0.009 A 
ATOM     23  C   UNL     1      -4.183   2.963   2.833  0.00  0.00    +0.008 A 
ATOM     24  C   UNL     1      -3.700   4.093   3.465  0.00  0.00    +0.022 A 
ATOM     25  C   UNL     1      -3.710   5.310   2.808  0.00  0.00    +0.059 A 
ATOM     26  C   UNL     1      -4.204   5.395   1.517  0.00  0.00    +0.060 A 
ATOM     27  C   UNL     1      -4.683   4.262   0.885  0.00  0.00    +0.028 A 
ATOM     28 CL   UNL     1      -4.218   6.922   0.692  0.00  0.00    -0.082 Cl
ATOM     29 CL   UNL     1      -3.103   6.730   3.601  0.00  0.00    -0.082 Cl
ENDBRANCH  21  22
ENDBRANCH  20  21
ENDBRANCH   6  20
TORSDOF 7
