REMARK  Name = ZINC39658288
REMARK  7 active torsions:
REMARK  status: ('A' for Active; 'I' for Inactive)
REMARK    1  A    between atoms: C_4  and  C_7
REMARK    2  A    between atoms: C_7  and  S_8
REMARK    3  A    between atoms: S_8  and  C_9
REMARK    4  A    between atoms: C_9  and  C_10
REMARK    5  A    between atoms: C_10  and  N_11
REMARK    6  A    between atoms: C_12  and  C_14
REMARK    7  A    between atoms: C_25  and  C_27
REMARK                            x       y       z     vdW  Elec       q    Type
REMARK                         _______ _______ _______ _____ _____    ______ ____
ROOT
ATOM      1  C   UNL     1       9.679  -4.041   3.616  0.00  0.00    +0.100 C 
ATOM      2  C   UNL     1      10.680  -3.195   2.798  0.00  0.00    +0.121 C 
ATOM      3  N   UNL     1      11.484  -2.479   3.816  0.00  0.00    -0.296 N 
ATOM      4  C   UNL     1      11.692  -3.477   4.892  0.00  0.00    +0.115 C 
ATOM      5  C   UNL     1      10.348  -4.227   4.988  0.00  0.00    -0.004 C 
ATOM      6  C   UNL     1      10.589  -5.709   5.262  0.00  0.00    -0.010 C 
ATOM      7  C   UNL     1      11.201  -5.873   6.656  0.00  0.00    -0.082 C 
ATOM      8  N   UNL     1      10.291  -5.310   7.662  0.00  0.00    +0.379 N 
ATOM      9  C   UNL     1      10.139  -3.866   7.446  0.00  0.00    -0.082 C 
ATOM     10  C   UNL     1       9.482  -3.617   6.086  0.00  0.00    -0.010 C 
ATOM     11  C   UNL     1      11.928  -1.207   3.773  0.00  0.00    +0.248 C 
ATOM     12  O   UNL     1      11.592  -0.476   2.860  0.00  0.00    -0.270 OA
ATOM     13  H   UNL     1       9.390  -5.757   7.586  0.00  0.00    -0.086 HD
ATOM     14  H   UNL     1      10.668  -5.473   8.583  0.00  0.00    -0.086 HD
ENDROOT
BRANCH  11  15
ATOM     15  C   UNL     1      12.821  -0.700   4.834  0.00  0.00    +0.055 A 
ATOM     16  C   UNL     1      13.768  -1.545   5.416  0.00  0.00    +0.016 A 
ATOM     17  C   UNL     1      14.599  -1.066   6.406  0.00  0.00    +0.021 A 
ATOM     18  C   UNL     1      14.497   0.251   6.825  0.00  0.00    +0.042 A 
ATOM     19  C   UNL     1      13.561   1.095   6.253  0.00  0.00    +0.040 A 
ATOM     20  C   UNL     1      12.727   0.629   5.255  0.00  0.00    +0.054 A 
ATOM     21 CL   UNL     1      11.558   1.690   4.533  0.00  0.00    -0.083 Cl
ATOM     22 CL   UNL     1      15.548   0.845   8.072  0.00  0.00    -0.083 Cl
ENDBRANCH  11  15
BRANCH   1  24
ATOM     23  N   UNL     1       7.218  -3.998   3.866  0.00  0.00    -0.314 N 
ATOM     24  C   UNL     1       8.371  -3.307   3.766  0.00  0.00    +0.218 C 
ATOM     25  O   UNL     1       8.356  -2.095   3.796  0.00  0.00    -0.275 OA
ATOM     26  H   UNL     1       7.230  -4.968   3.842  0.00  0.00    +0.149 HD
BRANCH  23  27
ATOM     27  C   UNL     1       5.947  -3.285   4.011  0.00  0.00    +0.115 C 
BRANCH  27  28
ATOM     28  C   UNL     1       4.802  -4.296   4.103  0.00  0.00    +0.088 C 
BRANCH  28  29
ATOM     29  S   UNL     1       3.228  -3.413   4.283  0.00  0.00    -0.155 S 
BRANCH  29  30
ATOM     30  C   UNL     1       1.991  -4.736   4.377  0.00  0.00    +0.104 C 
BRANCH  30  34
ATOM     31  C   UNL     1      -1.899  -3.024   4.810  0.00  0.00    +0.000 A 
ATOM     32  C   UNL     1      -1.389  -3.272   3.550  0.00  0.00    +0.000 A 
ATOM     33  C   UNL     1      -0.131  -3.826   3.409  0.00  0.00    +0.004 A 
ATOM     34  C   UNL     1       0.619  -4.131   4.530  0.00  0.00    -0.038 A 
ATOM     35  C   UNL     1       0.110  -3.882   5.791  0.00  0.00    +0.004 A 
ATOM     36  C   UNL     1      -1.149  -3.329   5.931  0.00  0.00    +0.000 A 
ENDBRANCH  30  34
ENDBRANCH  29  30
ENDBRANCH  28  29
ENDBRANCH  27  28
ENDBRANCH  23  27
ENDBRANCH   1  24
TORSDOF 7
