REMARK  Name = ZINC13503093
REMARK  9 active torsions:
REMARK  status: ('A' for Active; 'I' for Inactive)
REMARK    1  A    between atoms: C_3  and  S_8
REMARK    2  A    between atoms: S_8  and  N_11
REMARK    3  A    between atoms: N_11  and  C_12
REMARK    4  A    between atoms: C_12  and  C_13
REMARK    5  A    between atoms: N_15  and  C_16
REMARK    6  A    between atoms: N_15  and  C_26
REMARK    7  A    between atoms: C_16  and  C_17
REMARK    8  A    between atoms: C_26  and  C_27
REMARK    9  A    between atoms: N_29  and  C_30
REMARK                            x       y       z     vdW  Elec       q    Type
REMARK                         _______ _______ _______ _____ _____    ______ ____
ROOT
ATOM      1  C   UNL     1       6.687  -0.146   0.482  0.00  0.00    +0.232 C 
ATOM      2  O   UNL     1       6.477   1.033   0.672  0.00  0.00    -0.274 OA
ATOM      3  N   UNL     1       6.051  -1.073   1.226  0.00  0.00    -0.287 N 
ENDROOT
BRANCH   1   4
ATOM      4  C   UNL     1       7.658  -0.575  -0.587  0.00  0.00    +0.201 C 
BRANCH   4   5
ATOM      5  N   UNL     1       8.211   0.610  -1.249  0.00  0.00    -0.181 NA
ATOM      6  H   UNL     1       7.786   1.473  -1.131  0.00  0.00    +0.149 HD
BRANCH   5   7
ATOM      7  S   UNL     1       9.562   0.474  -2.196  0.00  0.00    +0.059 S 
ATOM      8  O   UNL     1       9.830   1.772  -2.710  0.00  0.00    -0.153 OA
ATOM      9  O   UNL     1      10.517  -0.258  -1.440  0.00  0.00    -0.153 OA
BRANCH   7  12
ATOM     10  C   UNL     1       8.297  -0.746  -5.809  0.00  0.00    +0.040 A 
ATOM     11  C   UNL     1       8.634   0.045  -4.727  0.00  0.00    +0.031 A 
ATOM     12  C   UNL     1       9.133  -0.535  -3.575  0.00  0.00    +0.105 A 
ATOM     13  C   UNL     1       9.300  -1.906  -3.507  0.00  0.00    +0.031 A 
ATOM     14  C   UNL     1       8.959  -2.699  -4.586  0.00  0.00    +0.040 A 
ATOM     15  C   UNL     1       8.459  -2.119  -5.740  0.00  0.00    +0.124 A 
ATOM     16  F   UNL     1       8.130  -2.893  -6.797  0.00  0.00    -0.205 F 
ENDBRANCH   7  12
ENDBRANCH   5   7
ENDBRANCH   4   5
ENDBRANCH   1   4
BRANCH   3  17
ATOM     17  C   UNL     1       5.107  -0.655   2.265  0.00  0.00    +0.143 C 
BRANCH  17  18
ATOM     18  C   UNL     1       3.725  -0.548   1.674  0.00  0.00    -0.026 A 
ATOM     19  C   UNL     1       2.885  -1.646   1.677  0.00  0.00    +0.009 A 
ATOM     20  C   UNL     1       1.617  -1.553   1.135  0.00  0.00    +0.050 A 
ATOM     21  C   UNL     1       1.183  -0.356   0.589  0.00  0.00    +0.166 A 
ATOM     22  C   UNL     1       2.028   0.751   0.586  0.00  0.00    +0.167 A 
ATOM     23  C   UNL     1       3.299   0.650   1.130  0.00  0.00    +0.054 A 
ATOM     24  O   UNL     1       1.376   1.797  -0.001  0.00  0.00    -0.453 OA
ATOM     25  C   UNL     1      -0.018   1.436   0.010  0.00  0.00    +0.466 C 
ATOM     26  O   UNL     1       0.002  -0.004   0.002  0.00  0.00    -0.453 OA
ENDBRANCH  17  18
ENDBRANCH   3  17
BRANCH   3  27
ATOM     27  C   UNL     1       6.305  -2.497   0.996  0.00  0.00    +0.203 C 
BRANCH  27  28
ATOM     28  C   UNL     1       5.334  -3.021  -0.031  0.00  0.00    +0.231 C 
ATOM     29  O   UNL     1       4.511  -2.277  -0.522  0.00  0.00    -0.274 OA
ATOM     30  N   UNL     1       5.380  -4.315  -0.403  0.00  0.00    -0.311 N 
ATOM     31  H   UNL     1       6.038  -4.910  -0.011  0.00  0.00    +0.149 HD
BRANCH  30  32
ATOM     32  C   UNL     1       4.436  -4.824  -1.401  0.00  0.00    +0.073 C 
ATOM     33  C   UNL     1       3.139  -5.295  -0.710  0.00  0.00    +0.022 C 
ATOM     34  C   UNL     1       2.716  -6.550  -1.512  0.00  0.00    +0.002 C 
ATOM     35  C   UNL     1       4.072  -7.231  -1.822  0.00  0.00    +0.002 C 
ATOM     36  C   UNL     1       5.029  -6.055  -2.108  0.00  0.00    +0.022 C 
ENDBRANCH  30  32
ENDBRANCH  27  28
ENDBRANCH   3  27
TORSDOF 9
