REMARK  Name = ZINC01440249
REMARK  9 active torsions:
REMARK  status: ('A' for Active; 'I' for Inactive)
REMARK    1  A    between atoms: C_1  and  C_2
REMARK    2  A    between atoms: C_7  and  C_17
REMARK    3  A    between atoms: C_19  and  O_26
REMARK    4  A    between atoms: C_20  and  O_24
REMARK    5  A    between atoms: O_24  and  C_25
REMARK    6  A    between atoms: O_26  and  C_27
REMARK    7  A    between atoms: C_30  and  C_32
REMARK    8  A    between atoms: C_32  and  O_34
REMARK    9  A    between atoms: O_34  and  C_35
REMARK                            x       y       z     vdW  Elec       q    Type
REMARK                         _______ _______ _______ _____ _____    ______ ____
ROOT
ATOM      1  C   UNL     1      -1.141   1.407   5.687  0.00  0.00    +0.009 C 
ATOM      2  C   UNL     1      -0.440   1.093   4.364  0.00  0.00    +0.013 C 
ATOM      3  C   UNL     1       1.010   1.570   4.421  0.00  0.00    +0.055 C 
ATOM      4  C   UNL     1       1.054   3.068   4.666  0.00  0.00    +0.017 C 
ATOM      5  C   UNL     1       0.085   3.866   4.185  0.00  0.00    +0.037 C 
ATOM      6  C   UNL     1       0.008   5.365   4.351  0.00  0.00    +0.136 C 
ATOM      7  N   UNL     1       1.214   5.976   4.866  0.00  0.00    -0.331 N 
ATOM      8  C   UNL     1       1.671   5.691   6.151  0.00  0.00    +0.049 A 
ATOM      9  C   UNL     1       1.719   6.665   7.136  0.00  0.00    +0.025 A 
ATOM     10  C   UNL     1       2.136   6.322   8.411  0.00  0.00    +0.002 A 
ATOM     11  C   UNL     1       2.498   5.020   8.703  0.00  0.00    +0.002 A 
ATOM     12  C   UNL     1       2.468   4.049   7.717  0.00  0.00    +0.025 A 
ATOM     13  C   UNL     1       2.073   4.394   6.437  0.00  0.00    +0.052 A 
ATOM     14  N   UNL     1       2.128   3.498   5.376  0.00  0.00    -0.316 N 
ATOM     15  C   UNL     1      -0.997   3.314   3.459  0.00  0.00    +0.177 C 
ATOM     16  O   UNL     1      -1.846   4.061   3.014  0.00  0.00    -0.291 OA
ATOM     17  C   UNL     1      -1.133   1.841   3.218  0.00  0.00    +0.171 C 
ATOM     18  H   UNL     1       1.713   6.593   4.308  0.00  0.00    +0.147 HD
ATOM     19  H   UNL     1       2.999   3.154   5.124  0.00  0.00    +0.152 HD
ENDROOT
BRANCH   6  20
ATOM     20  C   UNL     1      -1.127   5.684   5.290  0.00  0.00    -0.018 A 
ATOM     21  C   UNL     1      -2.214   6.409   4.838  0.00  0.00    +0.055 A 
ATOM     22  C   UNL     1      -3.260   6.699   5.698  0.00  0.00    +0.163 A 
ATOM     23  C   UNL     1      -3.210   6.267   7.020  0.00  0.00    +0.175 A 
ATOM     24  C   UNL     1      -2.116   5.545   7.469  0.00  0.00    +0.063 A 
ATOM     25  C   UNL     1      -1.077   5.254   6.603  0.00  0.00    +0.025 A 
ATOM     26 BR   UNL     1      -2.042   4.957   9.264  0.00  0.00    -0.046 Br
BRANCH  23  27
ATOM     27  O   UNL     1      -4.232   6.554   7.870  0.00  0.00    -0.490 OA
ATOM     28  C   UNL     1      -4.140   7.775   8.607  0.00  0.00    +0.277 C 
ENDBRANCH  23  27
BRANCH  22  29
ATOM     29  O   UNL     1      -4.332   7.408   5.253  0.00  0.00    -0.491 OA
ATOM     30  C   UNL     1      -4.315   7.818   3.884  0.00  0.00    +0.277 C 
ENDBRANCH  22  29
ENDBRANCH   6  20
BRANCH  17  31
ATOM     31  C   UNL     1      -0.478   1.479   1.910  0.00  0.00    +0.318 C 
ATOM     32  O   UNL     1       0.447   0.703   1.891  0.00  0.00    -0.250 OA
BRANCH  31  33
ATOM     33  O   UNL     1      -0.924   2.019   0.765  0.00  0.00    -0.467 OA
ATOM     34  C   UNL     1      -0.247   1.625  -0.458  0.00  0.00    +0.280 C 
ENDBRANCH  31  33
ENDBRANCH  17  31
TORSDOF 5
