REMARK  Name = ZINC01306527
REMARK  5 active torsions:
REMARK  status: ('A' for Active; 'I' for Inactive)
REMARK    1  A    between atoms: C_4  and  C_7
REMARK    2  A    between atoms: C_16  and  C_23
REMARK    3  A    between atoms: N_17  and  C_18
REMARK    4  A    between atoms: C_18  and  C_19
REMARK    5  A    between atoms: N_21  and  N_22
REMARK                            x       y       z     vdW  Elec       q    Type
REMARK                         _______ _______ _______ _____ _____    ______ ____
ROOT
ATOM      1  C   UNL     1       3.962  -0.817   0.015  0.00  0.00    +0.138 C 
ATOM      2  C   UNL     1       4.196  -1.316   1.420  0.00  0.00    +0.004 A 
ATOM      3  C   UNL     1       5.010  -0.621   2.286  0.00  0.00    +0.023 A 
ATOM      4  C   UNL     1       5.213  -1.091   3.573  0.00  0.00    +0.018 A 
ATOM      5  C   UNL     1       4.599  -2.260   3.994  0.00  0.00    +0.017 A 
ATOM      6  C   UNL     1       3.782  -2.965   3.135  0.00  0.00    +0.029 A 
ATOM      7  C   UNL     1       3.574  -2.497   1.835  0.00  0.00    +0.071 A 
ATOM      8  N   UNL     1       2.769  -3.188   0.974  0.00  0.00    -0.232 NA
ATOM      9  C   UNL     1       2.793  -2.946  -0.314  0.00  0.00    +0.131 C 
ATOM     10  N   UNL     1       3.635  -1.979  -0.827  0.00  0.00    -0.295 N 
ATOM     11 BR   UNL     1       6.332  -0.135   4.760  0.00  0.00    -0.050 Br
ENDROOT
BRANCH   9  12
ATOM     12  C   UNL     1       1.915  -3.713  -1.222  0.00  0.00    +0.029 A 
ATOM     13  C   UNL     1       1.929  -5.109  -1.200  0.00  0.00    +0.012 A 
ATOM     14  C   UNL     1       1.106  -5.818  -2.050  0.00  0.00    +0.001 A 
ATOM     15  C   UNL     1       0.268  -5.149  -2.925  0.00  0.00    +0.001 A 
ATOM     16  C   UNL     1       0.248  -3.767  -2.953  0.00  0.00    +0.016 A 
ATOM     17  C   UNL     1       1.062  -3.044  -2.104  0.00  0.00    +0.028 A 
ATOM     18 BR   UNL     1       1.028  -1.153  -2.139  0.00  0.00    -0.050 Br
ENDBRANCH   9  12
BRANCH   1  22
ATOM     19  C   UNL     1       0.710   1.952  -0.017  0.00  0.00    +0.000 A 
ATOM     20  C   UNL     1       1.969   2.360  -0.416  0.00  0.00    +0.000 A 
ATOM     21  C   UNL     1       3.021   1.464  -0.406  0.00  0.00    +0.006 A 
ATOM     22  C   UNL     1       2.815   0.160   0.004  0.00  0.00    -0.023 A 
ATOM     23  C   UNL     1       1.556  -0.247   0.405  0.00  0.00    +0.006 A 
ATOM     24  C   UNL     1       0.503   0.648   0.393  0.00  0.00    +0.000 A 
ENDBRANCH   1  22
BRANCH  10  25
ATOM     25  C   UNL     1       4.190  -2.106  -2.177  0.00  0.00    +0.204 C 
BRANCH  25  26
ATOM     26  C   UNL     1       5.559  -2.730  -2.100  0.00  0.00    +0.244 C 
ATOM     27  O   UNL     1       6.025  -3.039  -1.024  0.00  0.00    -0.273 OA
ATOM     28  N   UNL     1       6.266  -2.946  -3.227  0.00  0.00    -0.252 N 
ATOM     29  H   UNL     1       5.893  -2.699  -4.088  0.00  0.00    +0.169 HD
BRANCH  28  30
ATOM     30  N   UNL     1       7.507  -3.512  -3.157  0.00  0.00    -0.254 NA
ATOM     31  H   UNL     1       7.912  -3.610  -4.076  0.00  0.00    +0.140 HD
ATOM     32  H   UNL     1       8.113  -2.981  -2.550  0.00  0.00    +0.140 HD
ENDBRANCH  28  30
ENDBRANCH  25  26
ENDBRANCH  10  25
TORSDOF 5
