REMARK  Name = ZINC38128910
REMARK  5 active torsions:
REMARK  status: ('A' for Active; 'I' for Inactive)
REMARK    1  A    between atoms: C_3  and  N_19
REMARK    2  A    between atoms: C_6  and  C_7
REMARK    3  A    between atoms: C_7  and  C_8
REMARK    4  A    between atoms: C_8  and  C_10
REMARK    5  A    between atoms: C_8  and  N_18
REMARK                            x       y       z     vdW  Elec       q    Type
REMARK                         _______ _______ _______ _____ _____    ______ ____
ROOT
ATOM      1  C   UNL     1      -1.744  -1.028  -1.429  0.00  0.00    -0.038 C 
ENDROOT
BRANCH   1   2
ATOM      2  C   UNL     1      -3.098  -1.691  -1.422  0.00  0.00    -0.043 A 
ATOM      3  C   UNL     1      -3.194  -3.068  -1.493  0.00  0.00    +0.005 A 
ATOM      4  C   UNL     1      -4.435  -3.676  -1.486  0.00  0.00    +0.020 A 
ATOM      5  C   UNL     1      -5.583  -2.906  -1.408  0.00  0.00    +0.042 A 
ATOM      6  C   UNL     1      -5.487  -1.528  -1.336  0.00  0.00    +0.040 A 
ATOM      7  C   UNL     1      -4.244  -0.920  -1.338  0.00  0.00    +0.044 A 
ATOM      8 CL   UNL     1      -4.123   0.809  -1.242  0.00  0.00    -0.083 Cl
ATOM      9 CL   UNL     1      -7.142  -3.670  -1.400  0.00  0.00    -0.083 Cl
ENDBRANCH   1   2
BRANCH   1  10
ATOM     10  N   UNL     1      -0.775  -1.905  -2.100  0.00  0.00    +0.383 N 
ATOM     11  H   UNL     1      -1.073  -2.071  -3.050  0.00  0.00    -0.089 HD
ATOM     12  H   UNL     1       0.132  -1.461  -2.105  0.00  0.00    -0.089 HD
ATOM     13  H   UNL     1      -0.717  -2.783  -1.607  0.00  0.00    -0.089 HD
ENDBRANCH   1  10
BRANCH   1  14
ATOM     14  C   UNL     1      -1.293  -0.775   0.010  0.00  0.00    +0.023 C 
BRANCH  14  20
ATOM     15  C   UNL     1      -0.017   1.378   0.010  0.00  0.00    +0.006 A 
ATOM     16  C   UNL     1       1.171   2.086   0.002  0.00  0.00    +0.033 A 
ATOM     17  C   UNL     1       2.377   1.411  -0.013  0.00  0.00    +0.126 A 
ATOM     18  C   UNL     1       2.396   0.029  -0.020  0.00  0.00    +0.033 A 
ATOM     19  C   UNL     1       1.208  -0.679  -0.012  0.00  0.00    +0.006 A 
ATOM     20  C   UNL     1       0.002  -0.004   0.002  0.00  0.00    -0.048 A 
BRANCH  17  21
ATOM     21  N   UNL     1       3.649   2.168  -0.022  0.00  0.00    +0.056 N 
ATOM     22  O   UNL     1       3.633   3.377  -0.016  0.00  0.00    -0.126 OA
ATOM     23  O   UNL     1       4.704   1.578  -0.035  0.00  0.00    -0.126 OA
ENDBRANCH  17  21
ENDBRANCH  14  20
ENDBRANCH   1  14
TORSDOF 5
