REMARK  Name = ZINC39883870
REMARK  8 active torsions:
REMARK  status: ('A' for Active; 'I' for Inactive)
REMARK    1  A    between atoms: C_1  and  C_2
REMARK    2  A    between atoms: C_2  and  C_3
REMARK    3  A    between atoms: C_2  and  C_4
REMARK    4  A    between atoms: C_10  and  C_13
REMARK    5  A    between atoms: C_13  and  C_14
REMARK    6  A    between atoms: N_16  and  C_17
REMARK    7  A    between atoms: C_25  and  C_26
REMARK    8  A    between atoms: N_28  and  C_29
REMARK                            x       y       z     vdW  Elec       q    Type
REMARK                         _______ _______ _______ _____ _____    ______ ____
ROOT
ATOM      1  C   UNL     1      -1.567  -6.459  -3.655  0.00  0.00    +0.092 A 
ATOM      2  C   UNL     1      -1.571  -7.239  -2.412  0.00  0.00    +0.042 A 
ATOM      3  C   UNL     1      -2.245  -7.124  -1.196  0.00  0.00    +0.013 A 
ATOM      4  C   UNL     1      -2.022  -8.041  -0.208  0.00  0.00    +0.001 A 
ATOM      5  C   UNL     1      -1.130  -9.085  -0.407  0.00  0.00    +0.004 A 
ATOM      6  C   UNL     1      -0.454  -9.216  -1.601  0.00  0.00    +0.047 A 
ATOM      7  C   UNL     1      -0.666  -8.294  -2.620  0.00  0.00    +0.138 A 
ATOM      8  O   UNL     1      -0.163  -8.167  -3.864  0.00  0.00    -0.448 OA
ATOM      9  C   UNL     1      -0.688  -7.091  -4.492  0.00  0.00    +0.212 A 
ENDROOT
BRANCH   1  12
ATOM     10  C   UNL     1      -2.566  -4.428  -2.947  0.00  0.00    +0.222 C 
ATOM     11  O   UNL     1      -2.237  -4.675  -1.806  0.00  0.00    -0.275 OA
ATOM     12  N   UNL     1      -2.308  -5.315  -3.929  0.00  0.00    -0.282 N 
ATOM     13  H   UNL     1      -2.639  -5.154  -4.826  0.00  0.00    +0.155 HD
BRANCH  10  14
ATOM     14  C   UNL     1      -3.264  -3.132  -3.267  0.00  0.00    +0.135 C 
BRANCH  14  21
ATOM     15  C   UNL     1      -0.491  -0.132  -0.935  0.00  0.00    -0.044 A 
ATOM     16  C   UNL     1      -1.096   0.374   0.206  0.00  0.00    +0.007 A 
ATOM     17  C   UNL     1      -2.374  -0.010   0.554  0.00  0.00    +0.047 A 
ATOM     18  C   UNL     1      -3.066  -0.911  -0.245  0.00  0.00    +0.135 A 
ATOM     19  C   UNL     1      -2.448  -1.419  -1.400  0.00  0.00    +0.024 A 
ATOM     20  C   UNL     1      -1.157  -1.016  -1.738  0.00  0.00    +0.015 A 
ATOM     21  C   UNL     1      -3.432  -2.327  -2.004  0.00  0.00    +0.007 A 
ATOM     22  C   UNL     1      -4.508  -2.295  -1.206  0.00  0.00    +0.200 A 
ATOM     23  O   UNL     1      -4.294  -1.463  -0.172  0.00  0.00    -0.463 OA
BRANCH  15  25
ATOM     24  C   UNL     1       0.936   1.818  -1.493  0.00  0.00    +0.012 C 
ATOM     25  C   UNL     1       0.906   0.301  -1.296  0.00  0.00    +0.013 C 
ATOM     26  C   UNL     1       1.867  -0.086  -0.170  0.00  0.00    +0.012 C 
ENDBRANCH  15  25
ENDBRANCH  14  21
ENDBRANCH  10  14
ENDBRANCH   1  12
BRANCH   9  27
ATOM     27  C   UNL     1      -0.365  -6.667  -5.852  0.00  0.00    +0.285 C 
ATOM     28  O   UNL     1      -0.822  -5.627  -6.291  0.00  0.00    -0.266 OA
ATOM     29  N   UNL     1       0.439  -7.427  -6.622  0.00  0.00    -0.279 N 
ATOM     30  H   UNL     1       0.858  -8.220  -6.251  0.00  0.00    +0.155 HD
BRANCH  29  31
ATOM     31  C   UNL     1       0.669  -7.074  -7.956  0.00  0.00    +0.034 A 
ATOM     32  C   UNL     1       0.751  -5.735  -8.316  0.00  0.00    +0.025 A 
ATOM     33  C   UNL     1       0.978  -5.389  -9.634  0.00  0.00    +0.022 A 
ATOM     34  C   UNL     1       1.123  -6.374 -10.594  0.00  0.00    +0.041 A 
ATOM     35  C   UNL     1       1.042  -7.709 -10.238  0.00  0.00    +0.022 A 
ATOM     36  C   UNL     1       0.821  -8.061  -8.921  0.00  0.00    +0.025 A 
ATOM     37 CL   UNL     1       1.407  -5.935 -12.250  0.00  0.00    -0.084 Cl
ENDBRANCH  29  31
ENDBRANCH   9  27
TORSDOF 6
