REMARK  Name = ZINC65740414
REMARK  13 active torsions:
REMARK  status: ('A' for Active; 'I' for Inactive)
REMARK    1  A    between atoms: C_1  and  C_2
REMARK    2  A    between atoms: C_2  and  C_4
REMARK    3  A    between atoms: C_2  and  C_35
REMARK    4  A    between atoms: C_4  and  C_5
REMARK    5  A    between atoms: C_5  and  C_6
REMARK    6  A    between atoms: C_6  and  C_7
REMARK    7  A    between atoms: C_7  and  C_9
REMARK    8  A    between atoms: C_7  and  C_10
REMARK    9  A    between atoms: C_16  and  C_34
REMARK   10  A    between atoms: C_21  and  C_22
REMARK   11  A    between atoms: C_25  and  O_33
REMARK   12  A    between atoms: C_28  and  O_32
REMARK   13  A    between atoms: C_35  and  O_36
REMARK                            x       y       z     vdW  Elec       q    Type
REMARK                         _______ _______ _______ _____ _____    ______ ____
ROOT
ATOM      1  C   UNL     1      -5.985  -0.507  -2.358  0.00  0.00    -0.002 C 
ATOM      2  C   UNL     1      -6.976   0.267  -1.450  0.00  0.00    +0.005 C 
ATOM      3  C   UNL     1      -8.062   0.858  -2.394  0.00  0.00    +0.009 C 
ATOM      4  C   UNL     1      -8.004  -0.077  -3.604  0.00  0.00    +0.021 C 
ATOM      5  C   UNL     1      -6.468  -0.256  -3.778  0.00  0.00    -0.022 C 
ATOM      6  C   UNL     1      -6.246  -1.335  -4.812  0.00  0.00    +0.008 C 
ATOM      7  C   UNL     1      -6.721  -0.783  -6.167  0.00  0.00    +0.005 C 
ATOM      8  C   UNL     1      -8.196  -0.387  -6.131  0.00  0.00    +0.031 C 
ATOM      9  C   UNL     1      -8.507   0.473  -4.905  0.00  0.00    -0.066 C 
ATOM     10  C   UNL     1      -9.166   1.629  -4.985  0.00  0.00    -0.000 C 
ATOM     11  C   UNL     1      -5.865   1.053  -4.293  0.00  0.00    +0.012 C 
ENDROOT
BRANCH  10  12
ATOM     12  C   UNL     1      -9.634   2.117  -6.284  0.00  0.00    +0.004 C 
ATOM     13  C   UNL     1     -10.302   3.286  -6.364  0.00  0.00    -0.040 C 
ATOM     14  C   UNL     1     -10.808   3.823  -7.688  0.00  0.00    +0.067 C 
ATOM     15  C   UNL     1     -10.430   5.304  -7.785  0.00  0.00    +0.122 C 
ATOM     16  C   UNL     1     -11.023   6.069  -6.600  0.00  0.00    +0.067 C 
ATOM     17  C   UNL     1     -10.363   5.602  -5.299  0.00  0.00    +0.147 C 
ATOM     18  C   UNL     1     -10.580   4.104  -5.165  0.00  0.00    -0.023 C 
ATOM     19  C   UNL     1     -10.997   3.553  -4.025  0.00  0.00    +0.015 C 
BRANCH  17  20
ATOM     20  O   UNL     1      -8.964   5.889  -5.339  0.00  0.00    -0.387 OA
ATOM     21  H   UNL     1      -8.484   5.619  -4.544  0.00  0.00    +0.210 HD
ENDBRANCH  17  20
BRANCH  15  22
ATOM     22  O   UNL     1     -10.944   5.847  -9.003  0.00  0.00    -0.391 OA
ATOM     23  H   UNL     1     -10.607   5.414  -9.799  0.00  0.00    +0.210 HD
ENDBRANCH  15  22
ENDBRANCH  10  12
BRANCH   1  24
ATOM     24  C   UNL     1      -4.565   0.032  -2.176  0.00  0.00    -0.010 C 
ATOM     25  C   UNL     1      -3.616  -0.696  -3.130  0.00  0.00    +0.008 C 
BRANCH  24  26
ATOM     26  C   UNL     1      -4.113  -0.198  -0.733  0.00  0.00    +0.003 C 
BRANCH  26  27
ATOM     27  C   UNL     1      -2.744   0.451  -0.517  0.00  0.00    +0.001 C 
BRANCH  27  28
ATOM     28  C   UNL     1      -2.292   0.221   0.926  0.00  0.00    +0.005 C 
BRANCH  28  30
ATOM     29  C   UNL     1      -1.050   2.388   0.995  0.00  0.00    +0.010 C 
ATOM     30  C   UNL     1      -0.923   0.870   1.141  0.00  0.00    +0.011 C 
BRANCH  30  31
ATOM     31  C   UNL     1      -0.415   0.534   2.545  0.00  0.00    +0.159 C 
BRANCH  31  32
ATOM     32  O   UNL     1       0.911   1.042   2.705  0.00  0.00    -0.395 OA
ATOM     33  H   UNL     1       1.298   0.865   3.574  0.00  0.00    +0.209 HD
ENDBRANCH  31  32
ENDBRANCH  30  31
ENDBRANCH  28  30
ENDBRANCH  27  28
ENDBRANCH  26  27
ENDBRANCH  24  26
ENDBRANCH   1  24
TORSDOF 10
