REMARK  Name = ZINC36996931
REMARK  4 active torsions:
REMARK  status: ('A' for Active; 'I' for Inactive)
REMARK    1  A    between atoms: C_5  and  O_20
REMARK    2  A    between atoms: C_6  and  C_7
REMARK    3  A    between atoms: C_7  and  N_8
REMARK    4  A    between atoms: N_8  and  C_9
REMARK                            x       y       z     vdW  Elec       q    Type
REMARK                         _______ _______ _______ _____ _____    ______ ____
ROOT
ATOM      1  N   UNL     1      -1.576  -1.240   1.375  0.00  0.00    -0.311 NA
ATOM      2  H   UNL     1      -0.810  -1.788   1.737  0.00  0.00    +0.122 HD
ENDROOT
BRANCH   1   3
ATOM      3  C   UNL     1      -2.834  -1.998   1.422  0.00  0.00    +0.039 C 
ATOM      4  C   UNL     1      -4.033  -1.046   1.663  0.00  0.00    -0.002 C 
ATOM      5  C   UNL     1      -4.609  -1.470   3.041  0.00  0.00    -0.077 C 
ATOM      6  N   UNL     1      -3.464  -2.107   3.709  0.00  0.00    +0.383 N 
ATOM      7  C   UNL     1      -2.850  -2.936   2.633  0.00  0.00    -0.051 C 
ATOM      8  C   UNL     1      -1.470  -3.366   3.109  0.00  0.00    -0.014 C 
ATOM      9  C   UNL     1      -1.667  -4.259   4.345  0.00  0.00    -0.003 C 
ATOM     10  C   UNL     1      -2.486  -3.530   5.409  0.00  0.00    -0.019 C 
ATOM     11  C   UNL     1      -3.803  -2.990   4.817  0.00  0.00    -0.078 C 
ATOM     12  H   UNL     1      -2.812  -1.402   4.019  0.00  0.00    -0.081 HD
ENDBRANCH   1   3
BRANCH   1  13
ATOM     13  C   UNL     1      -1.292  -0.776   0.011  0.00  0.00    +0.120 C 
BRANCH  13  19
ATOM     14  C   UNL     1      -0.017   1.377   0.010  0.00  0.00    +0.028 A 
ATOM     15  C   UNL     1       1.171   2.087   0.002  0.00  0.00    +0.043 A 
ATOM     16  C   UNL     1       2.381   1.415  -0.013  0.00  0.00    +0.043 A 
ATOM     17  C   UNL     1       2.404   0.032  -0.021  0.00  0.00    +0.084 A 
ATOM     18  C   UNL     1       1.213  -0.680  -0.013  0.00  0.00    +0.140 A 
ATOM     19  C   UNL     1       0.002  -0.004   0.002  0.00  0.00    +0.011 A 
ATOM     20 CL   UNL     1       3.921  -0.811  -0.040  0.00  0.00    -0.080 Cl
ATOM     21 CL   UNL     1       1.145   3.822   0.011  0.00  0.00    -0.083 Cl
BRANCH  18  22
ATOM     22  O   UNL     1       1.233  -2.040  -0.021  0.00  0.00    -0.505 OA
ATOM     23  H   UNL     1       1.248  -2.438   0.860  0.00  0.00    +0.292 HD
ENDBRANCH  18  22
ENDBRANCH  13  19
ENDBRANCH   1  13
TORSDOF 4
