REMARK  Name = ZINC00678005
REMARK  8 active torsions:
REMARK  status: ('A' for Active; 'I' for Inactive)
REMARK    1  A    between atoms: C_1  and  C_2
REMARK    2  A    between atoms: C_7  and  C_8
REMARK    3  A    between atoms: C_13  and  C_14
REMARK    4  A    between atoms: C_17  and  O_22
REMARK    5  A    between atoms: C_18  and  O_20
REMARK    6  A    between atoms: O_20  and  C_21
REMARK    7  A    between atoms: O_22  and  C_23
REMARK    8  A    between atoms: C_23  and  C_24
REMARK                            x       y       z     vdW  Elec       q    Type
REMARK                         _______ _______ _______ _____ _____    ______ ____
ROOT
ATOM      1  C   UNL     1       0.270  15.181  -2.358  0.00  0.00    +0.044 C 
ATOM      2  C   UNL     1       0.247  13.710  -2.031  0.00  0.00    -0.045 A 
ATOM      3  C   UNL     1      -0.326  13.281  -0.853  0.00  0.00    +0.033 A 
ATOM      4  C   UNL     1      -0.346  11.916  -0.552  0.00  0.00    +0.091 A 
ATOM      5  C   UNL     1       0.218  11.004  -1.453  0.00  0.00    +0.078 A 
ATOM      6  C   UNL     1       0.789  11.449  -2.632  0.00  0.00    +0.032 A 
ATOM      7  C   UNL     1       0.803  12.801  -2.917  0.00  0.00    -0.045 A 
ATOM      8  C   UNL     1       1.425  13.290  -4.200  0.00  0.00    +0.044 C 
ATOM      9  N   UNL     1       0.056   9.722  -0.894  0.00  0.00    -0.253 N 
ATOM     10  C   UNL     1       0.371   8.465  -1.241  0.00  0.00    +0.272 A 
ATOM     11  O   UNL     1       0.949   8.227  -2.285  0.00  0.00    -0.266 OA
ATOM     12  C   UNL     1      -0.007   7.383  -0.321  0.00  0.00    +0.081 A 
ATOM     13  C   UNL     1       0.189   6.045  -0.436  0.00  0.00    +0.028 C 
ATOM     14  S   UNL     1      -0.788   8.306   0.994  0.00  0.00    -0.046 S 
ATOM     15  C   UNL     1      -0.591   9.934   0.301  0.00  0.00    +0.182 A 
ATOM     16  N   UNL     1      -0.823  11.200   0.499  0.00  0.00    -0.221 NA
ENDROOT
BRANCH  13  17
ATOM     17  C   UNL     1      -0.418   5.127   0.537  0.00  0.00    -0.020 A 
ATOM     18  C   UNL     1      -1.469   5.564   1.353  0.00  0.00    +0.012 A 
ATOM     19  C   UNL     1      -2.035   4.701   2.265  0.00  0.00    +0.050 A 
ATOM     20  C   UNL     1      -1.567   3.398   2.378  0.00  0.00    +0.163 A 
ATOM     21  C   UNL     1      -0.521   2.956   1.569  0.00  0.00    +0.162 A 
ATOM     22  C   UNL     1       0.057   3.815   0.655  0.00  0.00    +0.057 A 
BRANCH  21  23
ATOM     23  O   UNL     1      -0.066   1.679   1.684  0.00  0.00    -0.491 OA
ATOM     24  C   UNL     1       1.008   1.294   0.824  0.00  0.00    +0.277 C 
ENDBRANCH  21  23
BRANCH  20  25
ATOM     25  O   UNL     1      -2.130   2.552   3.280  0.00  0.00    -0.479 OA
BRANCH  25  26
ATOM     26  C   UNL     1      -3.197   3.070   4.077  0.00  0.00    +0.324 C 
BRANCH  26  27
ATOM     27  C   UNL     1      -3.692   1.997   5.012  0.00  0.00    +0.248 C 
ATOM     28  O   UNL     1      -3.181   0.897   4.997  0.00  0.00    -0.272 OA
ATOM     29  N   UNL     1      -4.702   2.259   5.864  0.00  0.00    -0.327 N 
ATOM     30  H   UNL     1      -5.111   3.139   5.876  0.00  0.00    +0.145 HD
ATOM     31  H   UNL     1      -5.021   1.568   6.466  0.00  0.00    +0.145 HD
ENDBRANCH  26  27
ENDBRANCH  25  26
ENDBRANCH  20  25
ENDBRANCH  13  17
TORSDOF 5
