REMARK  Name = ZINC09884905
REMARK  9 active torsions:
REMARK  status: ('A' for Active; 'I' for Inactive)
REMARK    1  A    between atoms: C_1  and  C_2
REMARK    2  A    between atoms: C_2  and  C_3
REMARK    3  A    between atoms: C_6  and  N_9
REMARK    4  A    between atoms: C_10  and  C_12
REMARK    5  A    between atoms: C_12  and  C_14
REMARK    6  A    between atoms: C_12  and  S_15
REMARK    7  A    between atoms: S_15  and  C_16
REMARK    8  A    between atoms: C_19  and  C_22
REMARK    9  A    between atoms: N_20  and  N_21
REMARK                            x       y       z     vdW  Elec       q    Type
REMARK                         _______ _______ _______ _____ _____    ______ ____
ROOT
ATOM      1  S   UNL     1       4.631   7.117  -0.043  0.00  0.00    -0.072 S 
ENDROOT
BRANCH   1   2
ATOM      2  C   UNL     1       3.876   5.526   0.021  0.00  0.00    +0.209 A 
ATOM      3  N   UNL     1       4.498   4.370   0.086  0.00  0.00    -0.121 NA
ATOM      4  N   UNL     1       3.644   3.410   0.118  0.00  0.00    -0.127 NA
ATOM      5  C   UNL     1       2.425   3.894   0.075  0.00  0.00    +0.183 A 
ATOM      6  N   UNL     1       2.536   5.263   0.005  0.00  0.00    -0.224 N 
BRANCH   5   7
ATOM      7  C   UNL     1       1.169   3.114   0.092  0.00  0.00    +0.035 A 
ATOM      8  C   UNL     1       0.153   3.401  -0.822  0.00  0.00    +0.013 A 
ATOM      9  C   UNL     1      -1.016   2.670  -0.801  0.00  0.00    +0.001 A 
ATOM     10  C   UNL     1      -1.186   1.657   0.127  0.00  0.00    +0.001 A 
ATOM     11  C   UNL     1      -0.182   1.363   1.032  0.00  0.00    +0.016 A 
ATOM     12  C   UNL     1       0.994   2.087   1.022  0.00  0.00    +0.029 A 
ATOM     13 BR   UNL     1       2.363   1.689   2.264  0.00  0.00    -0.050 Br
ENDBRANCH   5   7
BRANCH   6  14
ATOM     14  N   UNL     1       1.518   6.172  -0.062  0.00  0.00    -0.295 N 
ATOM     15  H   UNL     1       1.179   6.404   0.859  0.00  0.00    +0.163 HD
ATOM     16  H   UNL     1       1.805   7.000  -0.562  0.00  0.00    +0.163 HD
ENDBRANCH   6  14
ENDBRANCH   1   2
BRANCH   1  17
ATOM     17  C   UNL     1       6.376   6.639   0.008  0.00  0.00    +0.137 C 
ATOM     18  C   UNL     1       6.685   5.980   1.354  0.00  0.00    +0.029 C 
BRANCH  17  20
ATOM     19  N   UNL     1       8.487   7.747  -0.651  0.00  0.00    -0.285 N 
ATOM     20  C   UNL     1       7.237   7.864  -0.161  0.00  0.00    +0.230 C 
ATOM     21  O   UNL     1       6.806   8.956   0.145  0.00  0.00    -0.274 OA
ATOM     22  H   UNL     1       8.806   6.886  -0.965  0.00  0.00    +0.155 HD
BRANCH  19  26
ATOM     23  C   UNL     1      10.979  11.081  -0.822  0.00  0.00    -0.048 A 
ATOM     24  C   UNL     1      10.065  10.955   0.208  0.00  0.00    +0.005 A 
ATOM     25  C   UNL     1       9.237   9.851   0.267  0.00  0.00    +0.023 A 
ATOM     26  C   UNL     1       9.324   8.867  -0.709  0.00  0.00    +0.033 A 
ATOM     27  C   UNL     1      10.247   8.993  -1.738  0.00  0.00    +0.023 A 
ATOM     28  C   UNL     1      11.068  10.102  -1.795  0.00  0.00    +0.005 A 
BRANCH  23  30
ATOM     29  C   UNL     1      13.171  12.000  -0.115  0.00  0.00    +0.009 C 
ATOM     30  C   UNL     1      11.880  12.287  -0.884  0.00  0.00    +0.032 C 
ENDBRANCH  23  30
ENDBRANCH  19  26
ENDBRANCH  17  20
ENDBRANCH   1  17
TORSDOF 7
