REMARK  Name = ZINC39974115
REMARK  8 active torsions:
REMARK  status: ('A' for Active; 'I' for Inactive)
REMARK    1  A    between atoms: C_1  and  C_2
REMARK    2  A    between atoms: C_4  and  N_9
REMARK    3  A    between atoms: N_9  and  C_10
REMARK    4  A    between atoms: C_10  and  N_12
REMARK    5  A    between atoms: N_12  and  C_13
REMARK    6  A    between atoms: C_16  and  S_19
REMARK    7  A    between atoms: S_19  and  N_22
REMARK    8  A    between atoms: N_22  and  C_23
REMARK                            x       y       z     vdW  Elec       q    Type
REMARK                         _______ _______ _______ _____ _____    ______ ____
ROOT
ATOM      1  C   UNL     1       0.159  -6.173  -3.782  0.00  0.00    +0.033 A 
ATOM      2  C   UNL     1       0.165  -6.878  -2.586  0.00  0.00    +0.025 A 
ATOM      3  C   UNL     1       0.176  -8.258  -2.599  0.00  0.00    +0.031 A 
ATOM      4  C   UNL     1       0.180  -8.940  -3.803  0.00  0.00    +0.111 A 
ATOM      5  C   UNL     1       0.175  -8.241  -4.996  0.00  0.00    +0.031 A 
ATOM      6  C   UNL     1       0.158  -6.860  -4.989  0.00  0.00    +0.025 A 
ENDROOT
BRANCH   4   7
ATOM      7  S   UNL     1       0.194 -10.702  -3.815  0.00  0.00    +0.093 S 
ATOM      8  O   UNL     1       0.748 -11.094  -5.064  0.00  0.00    -0.148 OA
ATOM      9  O   UNL     1       0.749 -11.112  -2.573  0.00  0.00    -0.148 OA
BRANCH   7  10
ATOM     10  N   UNL     1      -1.384 -11.204  -3.818  0.00  0.00    -0.070 NA
BRANCH  10  11
ATOM     11  C   UNL     1      -1.680 -12.558  -3.828  0.00  0.00    +0.201 A 
ATOM     12  N   UNL     1      -0.848 -13.577  -3.830  0.00  0.00    -0.231 NA
ATOM     13  C   UNL     1      -1.294 -14.821  -3.839  0.00  0.00    +0.120 A 
ATOM     14  C   UNL     1      -2.637 -14.994  -3.846  0.00  0.00    +0.068 A 
ATOM     15  S   UNL     1      -3.192 -13.297  -3.832  0.00  0.00    -0.058 S 
ENDBRANCH  10  11
ENDBRANCH   7  10
ENDBRANCH   4   7
BRANCH   1  16
ATOM     16  N   UNL     1       0.148  -4.774  -3.772  0.00  0.00    -0.297 N 
ATOM     17  H   UNL     1      -0.410  -4.289  -4.401  0.00  0.00    +0.154 HD
BRANCH  16  18
ATOM     18  C   UNL     1       0.912  -4.101  -2.890  0.00  0.00    +0.139 C 
ATOM     19  S   UNL     1       2.004  -4.949  -1.881  0.00  0.00    -0.018 S 
BRANCH  18  20
ATOM     20  N   UNL     1       0.816  -2.759  -2.801  0.00  0.00    -0.297 N 
ATOM     21  H   UNL     1       0.140  -2.287  -3.311  0.00  0.00    +0.154 HD
BRANCH  20  25
ATOM     22  C   UNL     1       5.355  -2.067  -1.045  0.00  0.00    +0.045 C 
ATOM     23  C   UNL     1       3.897  -1.691  -1.103  0.00  0.00    -0.035 A 
ATOM     24  C   UNL     1       3.035  -2.395  -1.921  0.00  0.00    +0.027 A 
ATOM     25  C   UNL     1       1.691  -2.048  -1.973  0.00  0.00    +0.033 A 
ATOM     26  C   UNL     1       1.218  -0.994  -1.202  0.00  0.00    +0.024 A 
ATOM     27  C   UNL     1       2.085  -0.294  -0.386  0.00  0.00    +0.017 A 
ATOM     28  C   UNL     1       3.422  -0.645  -0.332  0.00  0.00    +0.021 A 
ATOM     29 BR   UNL     1       4.604   0.311   0.793  0.00  0.00    -0.050 Br
ENDBRANCH  20  25
ENDBRANCH  18  20
ENDBRANCH  16  18
ENDBRANCH   1  16
TORSDOF 7
