REMARK  Name = ZINC08719242
REMARK  10 active torsions:
REMARK  status: ('A' for Active; 'I' for Inactive)
REMARK    1  A    between atoms: C_1  and  C_2
REMARK    2  A    between atoms: C_5  and  C_32
REMARK    3  A    between atoms: C_6  and  N_8
REMARK    4  A    between atoms: C_9  and  C_25
REMARK    5  A    between atoms: C_12  and  S_13
REMARK    6  A    between atoms: S_13  and  C_14
REMARK    7  A    between atoms: C_14  and  C_16
REMARK    8  A    between atoms: C_14  and  C_19
REMARK    9  A    between atoms: C_16  and  C_17
REMARK   10  A    between atoms: C_16  and  C_18
REMARK                            x       y       z     vdW  Elec       q    Type
REMARK                         _______ _______ _______ _____ _____    ______ ____
ROOT
ATOM      1  N   UNL     1       0.943  -1.498  -2.135  0.00  0.00    -0.270 N 
ATOM      2  C   UNL     1       1.526  -1.258  -3.360  0.00  0.00    +0.171 A 
ATOM      3  N   UNL     1       1.625   0.045  -3.491  0.00  0.00    -0.128 NA
ATOM      4  N   UNL     1       1.146   0.629  -2.451  0.00  0.00    -0.122 NA
ATOM      5  C   UNL     1       0.720  -0.265  -1.586  0.00  0.00    +0.197 A 
ENDROOT
BRANCH   1  11
ATOM      6  C   UNL     1      -2.290  -5.119  -1.344  0.00  0.00    +0.044 C 
ATOM      7  C   UNL     1      -0.917  -4.522  -1.171  0.00  0.00    -0.048 A 
ATOM      8  C   UNL     1       0.047  -5.205  -0.452  0.00  0.00    +0.004 A 
ATOM      9  C   UNL     1       1.308  -4.660  -0.291  0.00  0.00    +0.005 A 
ATOM     10  C   UNL     1       1.607  -3.432  -0.848  0.00  0.00    -0.026 A 
ATOM     11  C   UNL     1       0.642  -2.744  -1.569  0.00  0.00    +0.054 A 
ATOM     12  C   UNL     1      -0.625  -3.291  -1.725  0.00  0.00    +0.030 A 
ATOM     13  C   UNL     1       2.982  -2.839  -0.671  0.00  0.00    +0.046 C 
ENDBRANCH   1  11
BRANCH   2  14
ATOM     14  C   UNL     1       1.959  -2.275  -4.341  0.00  0.00    +0.038 A 
ATOM     15  C   UNL     1       1.105  -3.323  -4.688  0.00  0.00    +0.013 A 
ATOM     16  C   UNL     1       1.516  -4.269  -5.605  0.00  0.00    +0.001 A 
ATOM     17  C   UNL     1       2.771  -4.181  -6.180  0.00  0.00    +0.001 A 
ATOM     18  C   UNL     1       3.623  -3.145  -5.842  0.00  0.00    +0.021 A 
ATOM     19  C   UNL     1       3.223  -2.188  -4.930  0.00  0.00    +0.052 A 
ATOM     20 CL   UNL     1       4.290  -0.884  -4.512  0.00  0.00    -0.083 Cl
ENDBRANCH   2  14
BRANCH   5  21
ATOM     21  S   UNL     1      -0.009   0.065  -0.017  0.00  0.00    -0.073 S 
BRANCH  21  22
ATOM     22  C   UNL     1       0.043   1.874  -0.019  0.00  0.00    +0.143 C 
BRANCH  22  23
ATOM     23  C   UNL     1      -0.656   2.399   1.209  0.00  0.00    +0.234 C 
ATOM     24  O   UNL     1      -0.739   1.707   2.201  0.00  0.00    -0.274 OA
ATOM     25  N   UNL     1      -1.189   3.637   1.203  0.00  0.00    -0.239 N 
ATOM     26  C   UNL     1      -1.814   4.106   2.301  0.00  0.00    +0.303 C 
ATOM     27  O   UNL     1      -1.898   3.412   3.296  0.00  0.00    -0.253 OA
ATOM     28  N   UNL     1      -2.347   5.344   2.296  0.00  0.00    -0.313 N 
ATOM     29  H   UNL     1      -1.122   4.190   0.409  0.00  0.00    +0.159 HD
ATOM     30  H   UNL     1      -2.280   5.897   1.502  0.00  0.00    +0.146 HD
ATOM     31  H   UNL     1      -2.797   5.681   3.086  0.00  0.00    +0.146 HD
ENDBRANCH  22  23
BRANCH  22  32
ATOM     32  C   UNL     1       1.500   2.342  -0.015  0.00  0.00    +0.005 C 
ATOM     33  C   UNL     1       1.545   3.871  -0.017  0.00  0.00    +0.009 C 
ATOM     34  C   UNL     1       2.202   1.813   1.237  0.00  0.00    +0.009 C 
ENDBRANCH  22  32
ENDBRANCH  21  22
ENDBRANCH   5  21
TORSDOF 6
