REMARK  Name = ZINC20750122
REMARK  5 active torsions:
REMARK  status: ('A' for Active; 'I' for Inactive)
REMARK    1  A    between atoms: C_2  and  C_3
REMARK    2  A    between atoms: C_3  and  N_4
REMARK    3  A    between atoms: N_4  and  S_5
REMARK    4  A    between atoms: S_5  and  C_8
REMARK    5  A    between atoms: C_21  and  C_24
REMARK                            x       y       z     vdW  Elec       q    Type
REMARK                         _______ _______ _______ _____ _____    ______ ____
ROOT
ATOM      1  C   UNL     1      -1.516  -2.421  -2.594  0.00  0.00    +0.106 A 
ATOM      2  C   UNL     1      -1.906  -1.314  -1.862  0.00  0.00    +0.030 A 
ATOM      3  C   UNL     1      -2.981  -0.559  -2.285  0.00  0.00    +0.025 A 
ATOM      4  C   UNL     1      -3.673  -0.917  -3.435  0.00  0.00    +0.031 A 
ATOM      5  C   UNL     1      -3.288  -2.029  -4.169  0.00  0.00    -0.018 A 
ATOM      6  C   UNL     1      -2.202  -2.777  -3.736  0.00  0.00    +0.034 A 
ATOM      7  C   UNL     1      -4.002  -2.452  -5.414  0.00  0.00    +0.049 C 
ATOM      8  C   UNL     1      -4.869  -3.664  -5.168  0.00  0.00    -0.023 C 
ATOM      9  C   UNL     1      -5.971  -3.584  -5.872  0.00  0.00    -0.030 C 
ATOM     10  C   UNL     1      -5.987  -2.307  -6.689  0.00  0.00    +0.033 C 
ATOM     11  C   UNL     1      -4.997  -1.393  -5.927  0.00  0.00    +0.029 C 
ATOM     12  C   UNL     1      -5.753  -0.774  -4.748  0.00  0.00    +0.108 C 
ATOM     13  N   UNL     1      -4.786  -0.166  -3.829  0.00  0.00    -0.336 N 
ATOM     14  H   UNL     1      -4.943   0.860  -3.464  0.00  0.00    +0.147 HD
ENDROOT
BRANCH  12  15
ATOM     15  C   UNL     1      -6.530  -1.845  -4.027  0.00  0.00    +0.010 A 
ATOM     16  C   UNL     1      -7.724  -2.305  -4.552  0.00  0.00    +0.047 A 
ATOM     17  C   UNL     1      -8.434  -3.294  -3.893  0.00  0.00    +0.020 A 
ATOM     18  C   UNL     1      -7.955  -3.813  -2.705  0.00  0.00    +0.003 A 
ATOM     19  C   UNL     1      -6.764  -3.350  -2.178  0.00  0.00    +0.020 A 
ATOM     20  C   UNL     1      -6.051  -2.366  -2.839  0.00  0.00    +0.047 A 
ATOM     21 CL   UNL     1      -4.555  -1.785  -2.177  0.00  0.00    -0.083 Cl
ATOM     22 CL   UNL     1      -8.330  -1.648  -6.040  0.00  0.00    -0.083 Cl
ENDBRANCH  12  15
BRANCH   1  23
ATOM     23  S   UNL     1      -0.140  -3.385  -2.061  0.00  0.00    +0.059 S 
ATOM     24  O   UNL     1      -0.316  -4.683  -2.610  0.00  0.00    -0.153 OA
ATOM     25  O   UNL     1      -0.003  -3.160  -0.664  0.00  0.00    -0.153 OA
BRANCH  23  26
ATOM     26  N   UNL     1       1.211  -2.748  -2.777  0.00  0.00    -0.186 NA
ATOM     27  H   UNL     1       1.674  -3.280  -3.620  0.00  0.00    +0.148 HD
BRANCH  26  28
ATOM     28  C   UNL     1       1.650  -1.392  -2.437  0.00  0.00    +0.132 C 
BRANCH  28  30
ATOM     29  C   UNL     1       3.346  -0.180  -3.708  0.00  0.00    +0.005 C 
ATOM     30  C   UNL     1       3.063  -1.186  -2.917  0.00  0.00    -0.018 C 
ENDBRANCH  28  30
ENDBRANCH  26  28
ENDBRANCH  23  26
ENDBRANCH   1  23
TORSDOF 5
