REMARK  Name = ZINC14748185
REMARK  11 active torsions:
REMARK  status: ('A' for Active; 'I' for Inactive)
REMARK    1  A    between atoms: C_1  and  C_2
REMARK    2  A    between atoms: C_2  and  C_3
REMARK    3  A    between atoms: C_2  and  C_4
REMARK    4  A    between atoms: C_4  and  C_5
REMARK    5  A    between atoms: C_5  and  N_6
REMARK    6  A    between atoms: N_9  and  C_23
REMARK    7  A    between atoms: C_17  and  N_65
REMARK    8  A    between atoms: C_23  and  C_24
REMARK    9  A    between atoms: C_24  and  N_67
REMARK   10  A    between atoms: C_25  and  N_67
REMARK   11  A    between atoms: C_26  and  N_67
REMARK                            x       y       z     vdW  Elec       q    Type
REMARK                         _______ _______ _______ _____ _____    ______ ____
ROOT
ATOM      1  N   UNL     1       1.310   4.058   2.501  0.00  0.00    -0.271 N 
ATOM      2  C   UNL     1       1.557   5.316   2.912  0.00  0.00    +0.312 C 
ATOM      3  O   UNL     1       2.180   5.588   3.920  0.00  0.00    -0.252 OA
ATOM      4  N   UNL     1       1.041   6.234   2.086  0.00  0.00    -0.226 N 
ATOM      5  C   UNL     1       0.400   5.662   1.046  0.00  0.00    +0.247 C 
ATOM      6  O   UNL     1      -0.168   6.224   0.134  0.00  0.00    -0.273 OA
ATOM      7  C   UNL     1       0.539   4.172   1.258  0.00  0.00    +0.112 C 
ATOM      8  C   UNL     1       1.297   3.536   0.097  0.00  0.00    +0.017 C 
ATOM      9  C   UNL     1       1.398   2.025   0.325  0.00  0.00    -0.076 C 
ATOM     10  C   UNL     1      -0.663   2.014   1.601  0.00  0.00    -0.076 C 
ATOM     11  C   UNL     1      -0.834   3.525   1.416  0.00  0.00    +0.017 C 
ATOM     12  N   UNL     1       0.034   1.463   0.419  0.00  0.00    +0.382 N 
ATOM     13  H   UNL     1      -0.491   1.720  -0.426  0.00  0.00    -0.081 HD
ENDROOT
BRANCH  12  14
ATOM     14  C   UNL     1       0.100  -0.009   0.513  0.00  0.00    -0.067 C 
ATOM     15  C   UNL     1       0.586  -0.559  -0.825  0.00  0.00    -0.005 C 
ATOM     16  C   UNL     1       0.922  -2.047  -0.687  0.00  0.00    +0.067 C 
ATOM     17  S   UNL     1      -0.593  -2.947  -0.239  0.00  0.00    -0.161 S 
ATOM     18  C   UNL     1      -1.203  -2.031   1.208  0.00  0.00    +0.067 C 
ATOM     19  C   UNL     1      -1.289  -0.545   0.847  0.00  0.00    -0.005 C 
ENDBRANCH  12  14
BRANCH   1  20
ATOM     20  C   UNL     1       1.727   2.820   3.165  0.00  0.00    +0.110 C 
BRANCH  20  21
ATOM     21  C   UNL     1       0.988   2.682   4.498  0.00  0.00    +0.022 C 
BRANCH  21  23
ATOM     22  C   UNL     1       2.978   1.664   5.615  0.00  0.00    +0.007 C 
ATOM     23  C   UNL     1       1.509   1.451   5.244  0.00  0.00    -0.016 C 
ATOM     24  C   UNL     1       0.686   1.241   6.517  0.00  0.00    +0.007 C 
ENDBRANCH  21  23
ENDBRANCH  20  21
ENDBRANCH   1  20
BRANCH   4  25
ATOM     25  C   UNL     1       1.157   7.681   2.286  0.00  0.00    +0.099 C 
BRANCH  25  26
ATOM     26  C   UNL     1       2.424   8.191   1.597  0.00  0.00    -0.060 C 
BRANCH  26  29
ATOM     27  C   UNL     1       3.855  10.129   1.359  0.00  0.00    -0.097 C 
ATOM     28  C   UNL     1       1.457  10.357   1.111  0.00  0.00    -0.097 C 
ATOM     29  N   UNL     1       2.538   9.646   1.826  0.00  0.00    +0.377 N 
ATOM     30  H   UNL     1       2.452   9.834   2.832  0.00  0.00    -0.083 HD
ENDBRANCH  26  29
ENDBRANCH  25  26
ENDBRANCH   4  25
TORSDOF 7
