REMARK  Name = ZINC39561828
REMARK  7 active torsions:
REMARK  status: ('A' for Active; 'I' for Inactive)
REMARK    1  A    between atoms: C_1  and  C_2
REMARK    2  A    between atoms: C_11  and  O_15
REMARK    3  A    between atoms: O_15  and  C_16
REMARK    4  A    between atoms: C_16  and  C_17
REMARK    5  A    between atoms: N_19  and  C_20
REMARK    6  A    between atoms: C_24  and  S_26
REMARK    7  A    between atoms: S_26  and  N_29
REMARK                            x       y       z     vdW  Elec       q    Type
REMARK                         _______ _______ _______ _____ _____    ______ ____
ROOT
ATOM      1  C   UNL     1      -3.210  -5.823  -0.858  0.00  0.00    +0.326 C 
ENDROOT
BRANCH   1   2
ATOM      2  C   UNL     1      -4.212  -5.269  -1.838  0.00  0.00    +0.255 C 
ATOM      3  O   UNL     1      -4.206  -4.087  -2.108  0.00  0.00    -0.272 OA
ATOM      4  N   UNL     1      -5.113  -6.087  -2.416  0.00  0.00    -0.283 N 
ATOM      5  H   UNL     1      -5.076  -7.043  -2.252  0.00  0.00    +0.155 HD
BRANCH   4   6
ATOM      6  C   UNL     1      -6.104  -5.559  -3.251  0.00  0.00    +0.035 A 
ATOM      7  C   UNL     1      -7.374  -6.120  -3.265  0.00  0.00    +0.023 A 
ATOM      8  C   UNL     1      -8.350  -5.596  -4.091  0.00  0.00    +0.004 A 
ATOM      9  C   UNL     1      -8.062  -4.514  -4.903  0.00  0.00    +0.028 A 
ATOM     10  C   UNL     1      -6.798  -3.954  -4.892  0.00  0.00    +0.107 A 
ATOM     11  C   UNL     1      -5.820  -4.469  -4.063  0.00  0.00    +0.051 A 
BRANCH  10  12
ATOM     12  S   UNL     1      -6.437  -2.576  -5.929  0.00  0.00    +0.056 S 
ATOM     13  O   UNL     1      -5.031  -2.581  -6.135  0.00  0.00    -0.153 OA
ATOM     14  O   UNL     1      -7.365  -2.623  -7.004  0.00  0.00    -0.153 OA
BRANCH  12  15
ATOM     15  N   UNL     1      -6.784  -1.208  -5.064  0.00  0.00    -0.204 NA
ATOM     16  H   UNL     1      -7.121  -1.279  -4.157  0.00  0.00    +0.144 HD
ATOM     17  H   UNL     1      -6.651  -0.334  -5.464  0.00  0.00    +0.144 HD
ENDBRANCH  12  15
ENDBRANCH  10  12
ENDBRANCH   4   6
ENDBRANCH   1   2
BRANCH   1  18
ATOM     18  O   UNL     1      -2.370  -4.768  -0.388  0.00  0.00    -0.466 OA
BRANCH  18  28
ATOM     19  C   UNL     1      -0.039   1.531   0.035  0.00  0.00    +0.008 C 
ATOM     20  C   UNL     1      -0.012   0.002   0.018  0.00  0.00    -0.009 C 
ATOM     21  C   UNL     1      -1.446  -0.537   0.039  0.00  0.00    +0.008 C 
ATOM     22  C   UNL     1      -1.437  -2.043  -0.226  0.00  0.00    +0.037 C 
ATOM     23  C   UNL     1      -0.473  -2.712   0.750  0.00  0.00    -0.023 A 
ATOM     24  C   UNL     1       0.473  -1.986   1.387  0.00  0.00    -0.004 A 
ATOM     25  S   UNL     1       1.351  -3.148   2.403  0.00  0.00    -0.073 S 
ATOM     26  C   UNL     1       0.451  -4.604   1.975  0.00  0.00    +0.116 A 
ATOM     27  C   UNL     1      -0.513  -4.135   1.046  0.00  0.00    +0.073 A 
ATOM     28  C   UNL     1      -1.409  -5.099   0.507  0.00  0.00    +0.227 A 
ATOM     29  N   UNL     1      -1.244  -6.347   0.938  0.00  0.00    -0.201 NA
ATOM     30  C   UNL     1      -0.323  -6.712   1.807  0.00  0.00    +0.226 A 
ATOM     31  N   UNL     1       0.544  -5.864   2.347  0.00  0.00    -0.228 NA
ATOM     32  C   UNL     1       0.729  -0.514   1.259  0.00  0.00    +0.046 C 
ENDBRANCH  18  28
ENDBRANCH   1  18
TORSDOF 6
