REMARK  Name = ZINC45827948
REMARK  4 active torsions:
REMARK  status: ('A' for Active; 'I' for Inactive)
REMARK    1  A    between atoms: C_3  and  N_23
REMARK    2  A    between atoms: C_6  and  N_7
REMARK    3  A    between atoms: C_8  and  C_10
REMARK    4  A    between atoms: C_11  and  C_12
REMARK                            x       y       z     vdW  Elec       q    Type
REMARK                         _______ _______ _______ _____ _____    ______ ____
ROOT
ATOM      1  N   UNL     1      -1.201  -0.721   0.010  0.00  0.00    -0.282 N 
ATOM      2  C   UNL     1      -0.992  -2.048   0.114  0.00  0.00    +0.241 C 
ATOM      3  O   UNL     1       0.138  -2.476   0.263  0.00  0.00    -0.270 OA
ATOM      4  H   UNL     1      -2.106  -0.374  -0.029  0.00  0.00    +0.155 HD
ENDROOT
BRANCH   1  10
ATOM      5  C   UNL     1       1.060  -0.225  -0.682  0.00  0.00    +0.025 A 
ATOM      6  C   UNL     1       2.133   0.641  -0.732  0.00  0.00    +0.025 A 
ATOM      7  C   UNL     1       2.042   1.895  -0.142  0.00  0.00    +0.038 A 
ATOM      8  C   UNL     1       0.872   2.277   0.499  0.00  0.00    +0.025 A 
ATOM      9  C   UNL     1      -0.202   1.411   0.550  0.00  0.00    +0.025 A 
ATOM     10  C   UNL     1      -0.112   0.158  -0.041  0.00  0.00    +0.034 A 
BRANCH   7  11
ATOM     11  N   UNL     1       3.132   2.774  -0.193  0.00  0.00    -0.254 N 
ATOM     12  C   UNL     1       3.132   4.161   0.296  0.00  0.00    +0.134 C 
ATOM     13  C   UNL     1       4.560   4.658  -0.002  0.00  0.00    +0.125 C 
ATOM     14  N   UNL     1       5.213   3.498  -0.627  0.00  0.00    -0.297 N 
ATOM     15  C   UNL     1       4.342   2.483  -0.690  0.00  0.00    +0.307 C 
ATOM     16  O   UNL     1       4.622   1.397  -1.158  0.00  0.00    -0.252 OA
ATOM     17  H   UNL     1       6.131   3.471  -0.940  0.00  0.00    +0.150 HD
ENDBRANCH   7  11
ENDBRANCH   1  10
BRANCH   2  18
ATOM     18  C   UNL     1      -2.122  -2.973   0.047  0.00  0.00    +0.068 C 
ATOM     19  C   UNL     1      -1.912  -4.303   0.151  0.00  0.00    +0.013 C 
BRANCH  19  20
ATOM     20  C   UNL     1      -3.048  -5.233   0.085  0.00  0.00    -0.020 A 
ATOM     21  C   UNL     1      -2.835  -6.612   0.198  0.00  0.00    +0.057 A 
ATOM     22  C   UNL     1      -3.906  -7.484   0.136  0.00  0.00    +0.164 A 
ATOM     23  C   UNL     1      -5.197  -6.990  -0.038  0.00  0.00    +0.180 A 
ATOM     24  C   UNL     1      -5.410  -5.620  -0.153  0.00  0.00    +0.087 A 
ATOM     25  C   UNL     1      -4.348  -4.744  -0.087  0.00  0.00    +0.031 A 
ATOM     26 CL   UNL     1      -7.020  -5.011  -0.374  0.00  0.00    -0.080 Cl
ATOM     27  O   UNL     1      -6.262  -7.834  -0.093  0.00  0.00    -0.483 OA
ATOM     28  C   UNL     1      -5.978  -9.213  -0.350  0.00  0.00    +0.270 C 
ATOM     29  C   UNL     1      -4.814  -9.641   0.554  0.00  0.00    +0.270 C 
ATOM     30  O   UNL     1      -3.681  -8.822   0.244  0.00  0.00    -0.485 OA
ENDBRANCH  19  20
ENDBRANCH   2  18
TORSDOF 4
