REMARK  Name = ZINC34782307
REMARK  5 active torsions:
REMARK  status: ('A' for Active; 'I' for Inactive)
REMARK    1  A    between atoms: C_1  and  C_2
REMARK    2  A    between atoms: C_6  and  N_9
REMARK    3  A    between atoms: C_7  and  C_8
REMARK    4  A    between atoms: N_20  and  C_23
REMARK    5  A    between atoms: C_23  and  N_24
REMARK                            x       y       z     vdW  Elec       q    Type
REMARK                         _______ _______ _______ _____ _____    ______ ____
ROOT
ATOM      1  N   UNL     1       0.051  -2.798   2.394  0.00  0.00    -0.223 N 
ATOM      2  C   UNL     1      -1.096  -3.145   2.953  0.00  0.00    +0.263 C 
ATOM      3  O   UNL     1      -2.166  -2.865   2.449  0.00  0.00    -0.269 OA
ATOM      4  C   UNL     1      -1.005  -3.896   4.234  0.00  0.00    +0.090 C 
ATOM      5  C   UNL     1      -2.013  -4.387   5.042  0.00  0.00    +0.065 C 
ATOM      6  C   UNL     1      -1.867  -5.125   6.314  0.00  0.00    +0.010 A 
ATOM      7  C   UNL     1      -0.764  -5.536   7.057  0.00  0.00    +0.010 A 
ATOM      8  C   UNL     1      -0.953  -6.228   8.236  0.00  0.00    +0.001 A 
ATOM      9  C   UNL     1      -2.235  -6.511   8.678  0.00  0.00    +0.002 A 
ATOM     10  C   UNL     1      -3.336  -6.107   7.949  0.00  0.00    +0.024 A 
ATOM     11  C   UNL     1      -3.167  -5.410   6.758  0.00  0.00    +0.046 A 
ATOM     12  N   UNL     1      -4.085  -4.898   5.848  0.00  0.00    -0.253 N 
ATOM     13  C   UNL     1      -3.470  -4.282   4.825  0.00  0.00    +0.254 C 
ATOM     14  O   UNL     1      -4.016  -3.737   3.884  0.00  0.00    -0.270 OA
ATOM     15  S   UNL     1       0.768  -3.989   4.441  0.00  0.00    -0.060 S 
ATOM     16  C   UNL     1       1.235  -3.115   2.955  0.00  0.00    +0.125 C 
ATOM     17  S   UNL     1       2.809  -2.763   2.382  0.00  0.00    -0.027 S 
ENDROOT
BRANCH   1  23
ATOM     18  C   UNL     1      -0.018   1.503   0.010  0.00  0.00    +0.044 C 
ATOM     19  C   UNL     1       0.002  -0.004   0.002  0.00  0.00    -0.046 A 
ATOM     20  C   UNL     1       0.006  -0.688  -1.200  0.00  0.00    +0.004 A 
ATOM     21  C   UNL     1       0.024  -2.071  -1.212  0.00  0.00    +0.002 A 
ATOM     22  C   UNL     1       0.040  -2.773  -0.022  0.00  0.00    +0.024 A 
ATOM     23  C   UNL     1       0.036  -2.089   1.186  0.00  0.00    +0.046 A 
ATOM     24  C   UNL     1       0.023  -0.700   1.194  0.00  0.00    -0.026 A 
ATOM     25  C   UNL     1       0.026   0.046   2.504  0.00  0.00    +0.046 C 
ENDBRANCH   1  23
BRANCH  12  26
ATOM     26  C   UNL     1      -5.539  -5.010   5.991  0.00  0.00    +0.201 C 
BRANCH  26  27
ATOM     27  N   UNL     1      -6.049  -3.852   6.736  0.00  0.00    -0.287 NA
ATOM     28  C   UNL     1      -5.861  -4.031   8.181  0.00  0.00    +0.086 C 
ATOM     29  C   UNL     1      -6.268  -2.750   8.913  0.00  0.00    +0.015 C 
ATOM     30  C   UNL     1      -7.735  -2.435   8.605  0.00  0.00    +0.002 C 
ATOM     31  C   UNL     1      -7.912  -2.301   7.090  0.00  0.00    +0.015 C 
ATOM     32  C   UNL     1      -7.458  -3.595   6.411  0.00  0.00    +0.086 C 
ENDBRANCH  26  27
ENDBRANCH  12  26
TORSDOF 3
