REMARK  Name = ZINC00824811
REMARK  2 active torsions:
REMARK  status: ('A' for Active; 'I' for Inactive)
REMARK    1  A    between atoms: C_2  and  N_10
REMARK    2  A    between atoms: C_5  and  N_8
REMARK                            x       y       z     vdW  Elec       q    Type
REMARK                         _______ _______ _______ _____ _____    ______ ____
ROOT
ATOM      1  N   UNL     1      -0.017   1.399   0.010  0.00  0.00    -0.202 N 
ATOM      2  C   UNL     1      -1.136   2.145   0.019  0.00  0.00    +0.258 C 
ATOM      3  O   UNL     1      -2.273   1.718   0.021  0.00  0.00    -0.269 OA
ATOM      4  C   UNL     1      -0.752   3.572   0.028  0.00  0.00    +0.051 A 
ATOM      5  C   UNL     1      -1.458   4.764   0.042  0.00  0.00    +0.035 A 
ATOM      6  C   UNL     1      -0.771   5.970   0.042  0.00  0.00    +0.060 A 
ATOM      7  C   UNL     1       0.613   5.989   0.028  0.00  0.00    +0.060 A 
ATOM      8  C   UNL     1       1.332   4.802   0.015  0.00  0.00    +0.035 A 
ATOM      9  C   UNL     1       0.658   3.591   0.015  0.00  0.00    +0.051 A 
ATOM     10  C   UNL     1       1.082   2.175   0.003  0.00  0.00    +0.258 C 
ATOM     11  O   UNL     1       2.230   1.779  -0.010  0.00  0.00    -0.269 OA
ATOM     12 CL   UNL     1       1.455   7.507   0.028  0.00  0.00    -0.082 Cl
ATOM     13 CL   UNL     1      -1.654   7.464   0.058  0.00  0.00    -0.082 Cl
ENDROOT
BRANCH   1  15
ATOM     14  C   UNL     1       1.214  -0.681  -0.019  0.00  0.00    +0.046 A 
ATOM     15  C   UNL     1       0.002  -0.004   0.002  0.00  0.00    +0.047 A 
ATOM     16  C   UNL     1      -1.190  -0.714   0.010  0.00  0.00    +0.041 A 
ATOM     17  C   UNL     1      -1.173  -2.096   0.003  0.00  0.00    +0.042 A 
ATOM     18  C   UNL     1       0.039  -2.774  -0.013  0.00  0.00    +0.057 A 
ATOM     19  C   UNL     1       1.233  -2.063  -0.021  0.00  0.00    +0.064 A 
ATOM     20 CL   UNL     1       2.748  -2.910  -0.040  0.00  0.00    -0.082 Cl
ATOM     21 BR   UNL     1      -2.798  -3.063   0.013  0.00  0.00    -0.048 Br
BRANCH  18  22
ATOM     22  N   UNL     1       0.058  -4.174  -0.019  0.00  0.00    -0.356 N 
ATOM     23  H   UNL     1      -0.775  -4.670  -0.014  0.00  0.00    +0.142 HD
ATOM     24  H   UNL     1       0.905  -4.648  -0.030  0.00  0.00    +0.142 HD
ENDBRANCH  18  22
ENDBRANCH   1  15
TORSDOF 2
