REMARK  Name = ZINC35747573
REMARK  13 active torsions:
REMARK  status: ('A' for Active; 'I' for Inactive)
REMARK    1  A    between atoms: C_1  and  C_2
REMARK    2  A    between atoms: C_2  and  C_3
REMARK    3  A    between atoms: C_2  and  C_4
REMARK    4  A    between atoms: C_4  and  N_5
REMARK    5  A    between atoms: N_5  and  C_6
REMARK    6  A    between atoms: N_5  and  C_25
REMARK    7  A    between atoms: C_6  and  C_7
REMARK    8  A    between atoms: C_13  and  C_18
REMARK    9  A    between atoms: C_25  and  C_26
REMARK   10  A    between atoms: C_26  and  C_28
REMARK   11  A    between atoms: C_26  and  O_31
REMARK   12  A    between atoms: C_28  and  O_29
REMARK   13  A    between atoms: O_29  and  C_30
REMARK                            x       y       z     vdW  Elec       q    Type
REMARK                         _______ _______ _______ _____ _____    ______ ____
ROOT
ATOM      1  C   UNL     1      -1.602  -1.142   4.252  0.00  0.00    +0.094 A 
ATOM      2  N   UNL     1      -2.569  -2.035   4.582  0.00  0.00    -0.312 N 
ATOM      3  H   UNL     1      -2.929  -2.621   3.898  0.00  0.00    +0.170 HD
ATOM      4  C   UNL     1      -3.039  -2.124   5.840  0.00  0.00    +0.260 A 
ATOM      5  O   UNL     1      -3.908  -2.932   6.121  0.00  0.00    -0.267 OA
ATOM      6  C   UNL     1      -2.503  -1.256   6.844  0.00  0.00    +0.080 A 
ATOM      7  C   UNL     1      -2.842  -1.161   8.259  0.00  0.00    +0.004 A 
ATOM      8  C   UNL     1      -2.193  -0.252   9.025  0.00  0.00    +0.056 A 
ATOM      9  S   UNL     1      -1.079   0.535   7.877  0.00  0.00    -0.076 S 
ATOM     10  C   UNL     1      -1.507  -0.366   6.410  0.00  0.00    +0.116 A 
ATOM     11  N   UNL     1      -1.089  -0.340   5.147  0.00  0.00    -0.229 NA
ENDROOT
BRANCH   7  12
ATOM     12  C   UNL     1      -3.878  -2.043   8.848  0.00  0.00    -0.015 A 
ATOM     13  C   UNL     1      -5.124  -2.167   8.234  0.00  0.00    +0.008 A 
ATOM     14  C   UNL     1      -6.084  -2.989   8.786  0.00  0.00    +0.002 A 
ATOM     15  C   UNL     1      -5.814  -3.690   9.948  0.00  0.00    +0.020 A 
ATOM     16  C   UNL     1      -4.579  -3.572  10.562  0.00  0.00    +0.042 A 
ATOM     17  C   UNL     1      -3.608  -2.756  10.015  0.00  0.00    +0.028 A 
ATOM     18 CL   UNL     1      -4.249  -4.455  12.020  0.00  0.00    -0.084 Cl
ENDBRANCH   7  12
BRANCH   1  19
ATOM     19  C   UNL     1      -1.107  -1.078   2.830  0.00  0.00    -0.003 C 
BRANCH  19  20
ATOM     20  N   UNL     1       0.033  -0.154   2.750  0.00  0.00    +0.386 N 
ATOM     21  H   UNL     1      -0.217   0.726   3.174  0.00  0.00    -0.081 HD
BRANCH  20  22
ATOM     22  C   UNL     1       0.388   0.064   1.341  0.00  0.00    -0.075 C 
BRANCH  22  24
ATOM     23  C   UNL     1      -1.089   2.076   1.237  0.00  0.00    +0.005 C 
ATOM     24  C   UNL     1      -0.792   0.712   0.613  0.00  0.00    -0.034 C 
ATOM     25  C   UNL     1      -0.442   0.892  -0.866  0.00  0.00    +0.005 C 
ENDBRANCH  22  24
ENDBRANCH  20  22
BRANCH  20  26
ATOM     26  C   UNL     1       1.182  -0.732   3.460  0.00  0.00    -0.044 C 
BRANCH  26  27
ATOM     27  C   UNL     1       2.303   0.306   3.545  0.00  0.00    +0.124 C 
BRANCH  27  28
ATOM     28  O   UNL     1       2.853   0.521   2.244  0.00  0.00    -0.391 OA
ATOM     29  H   UNL     1       3.229  -0.272   1.839  0.00  0.00    +0.210 HD
ENDBRANCH  27  28
BRANCH  27  30
ATOM     30  C   UNL     1       3.399  -0.202   4.484  0.00  0.00    +0.188 C 
BRANCH  30  31
ATOM     31  O   UNL     1       4.389   0.814   4.655  0.00  0.00    -0.381 OA
ATOM     32  C   UNL     1       5.463   0.439   5.519  0.00  0.00    +0.194 C 
ENDBRANCH  30  31
ENDBRANCH  27  30
ENDBRANCH  26  27
ENDBRANCH  20  26
ENDBRANCH  19  20
ENDBRANCH   1  19
TORSDOF 10
