REMARK  Name = ZINC40986275
REMARK  12 active torsions:
REMARK  status: ('A' for Active; 'I' for Inactive)
REMARK    1  A    between atoms: C_1  and  C_2
REMARK    2  A    between atoms: C_2  and  C_3
REMARK    3  A    between atoms: C_3  and  C_4
REMARK    4  A    between atoms: C_4  and  S_5
REMARK    5  A    between atoms: S_5  and  C_8
REMARK    6  A    between atoms: C_11  and  C_15
REMARK    7  A    between atoms: N_17  and  C_18
REMARK    8  A    between atoms: C_18  and  C_19
REMARK    9  A    between atoms: C_19  and  C_21
REMARK   10  A    between atoms: C_19  and  N_29
REMARK   11  A    between atoms: C_24  and  C_27
REMARK   12  A    between atoms: C_27  and  C_28
REMARK                            x       y       z     vdW  Elec       q    Type
REMARK                         _______ _______ _______ _____ _____    ______ ____
ROOT
ATOM      1  C   UNL     1      -0.842 -10.683   0.721  0.00  0.00    +0.248 C 
ATOM      2  O   UNL     1      -1.614  -9.935   1.289  0.00  0.00    -0.270 OA
ATOM      3  N   UNL     1      -1.090 -11.072  -0.546  0.00  0.00    -0.312 N 
ATOM      4  H   UNL     1      -0.474 -11.669  -0.999  0.00  0.00    +0.149 HD
ENDROOT
BRANCH   1   8
ATOM      5  C   UNL     1       2.561 -12.041   2.685  0.00  0.00    +0.272 A 
ATOM      6  N   UNL     1       2.338 -12.434   1.446  0.00  0.00    -0.219 NA
ATOM      7  C   UNL     1       1.269 -12.027   0.784  0.00  0.00    +0.130 A 
ATOM      8  C   UNL     1       0.367 -11.166   1.419  0.00  0.00    +0.092 A 
ATOM      9  C   UNL     1       0.645 -10.774   2.735  0.00  0.00    +0.146 A 
ATOM     10  N   UNL     1       1.737 -11.234   3.323  0.00  0.00    -0.199 NA
ATOM     11 CL   UNL     1      -0.431  -9.707   3.583  0.00  0.00    -0.061 Cl
BRANCH   5  12
ATOM     12  S   UNL     1       4.004 -12.617   3.516  0.00  0.00    +0.032 S 
ATOM     13  O   UNL     1       4.286 -11.620   4.488  0.00  0.00    -0.166 OA
ATOM     14  O   UNL     1       4.932 -12.899   2.478  0.00  0.00    -0.166 OA
BRANCH  12  15
ATOM     15  C   UNL     1       3.490 -14.155   4.330  0.00  0.00    +0.175 C 
BRANCH  15  16
ATOM     16  C   UNL     1       4.677 -14.751   5.090  0.00  0.00    +0.023 C 
BRANCH  16  18
ATOM     17  C   UNL     1       5.430 -16.643   6.537  0.00  0.00    +0.004 C 
ATOM     18  C   UNL     1       4.243 -16.047   5.776  0.00  0.00    -0.002 C 
ENDBRANCH  16  18
ENDBRANCH  15  16
ENDBRANCH  12  15
ENDBRANCH   5  12
ENDBRANCH   1   8
BRANCH   3  19
ATOM     19  C   UNL     1      -2.289 -10.594  -1.238  0.00  0.00    +0.094 C 
BRANCH  19  20
ATOM     20  C   UNL     1      -2.276 -11.093  -2.684  0.00  0.00    -0.020 C 
BRANCH  20  21
ATOM     21  C   UNL     1      -2.396 -12.595  -2.698  0.00  0.00    -0.059 A 
ATOM     22  C   UNL     1      -3.634 -13.191  -2.544  0.00  0.00    +0.002 A 
ATOM     23  C   UNL     1      -3.744 -14.569  -2.557  0.00  0.00    +0.004 A 
ATOM     24  C   UNL     1      -2.616 -15.351  -2.723  0.00  0.00    -0.048 A 
ATOM     25  C   UNL     1      -1.379 -14.755  -2.877  0.00  0.00    +0.004 A 
ATOM     26  C   UNL     1      -1.269 -13.377  -2.869  0.00  0.00    +0.002 A 
BRANCH  24  27
ATOM     27  C   UNL     1      -2.736 -16.854  -2.736  0.00  0.00    +0.032 C 
ATOM     28  C   UNL     1      -2.968 -17.334  -4.170  0.00  0.00    +0.009 C 
ENDBRANCH  24  27
ENDBRANCH  20  21
BRANCH  20  29
ATOM     29  N   UNL     1      -3.407 -10.505  -3.415  0.00  0.00    +0.385 N 
ATOM     30  C   UNL     1      -3.266  -9.028  -3.474  0.00  0.00    -0.078 C 
ATOM     31  C   UNL     1      -4.145  -8.636  -4.688  0.00  0.00    -0.020 C 
ATOM     32  C   UNL     1      -3.894  -9.791  -5.684  0.00  0.00    -0.020 C 
ATOM     33  C   UNL     1      -3.402 -10.967  -4.820  0.00  0.00    -0.078 C 
ATOM     34  H   UNL     1      -4.277 -10.755  -2.970  0.00  0.00    -0.081 HD
ENDBRANCH  20  29
ENDBRANCH  19  20
ENDBRANCH   3  19
TORSDOF 10
