REMARK  Name = ZINC36570983
REMARK  14 active torsions:
REMARK  status: ('A' for Active; 'I' for Inactive)
REMARK    1  A    between atoms: C_1  and  C_2
REMARK    2  A    between atoms: C_2  and  C_3
REMARK    3  A    between atoms: C_3  and  N_4
REMARK    4  A    between atoms: N_4  and  C_5
REMARK    5  A    between atoms: C_5  and  C_7
REMARK    6  A    between atoms: C_5  and  C_17
REMARK    7  A    between atoms: C_10  and  C_13
REMARK    8  A    between atoms: N_19  and  C_20
REMARK    9  A    between atoms: C_20  and  C_21
REMARK   10  A    between atoms: C_20  and  C_22
REMARK   11  A    between atoms: C_20  and  C_23
REMARK   12  A    between atoms: C_24  and  C_26
REMARK   13  A    between atoms: C_27  and  O_33
REMARK   14  A    between atoms: C_31  and  O_32
REMARK                            x       y       z     vdW  Elec       q    Type
REMARK                         _______ _______ _______ _____ _____    ______ ____
ROOT
ATOM      1  C   UNL     1      -0.161  -2.680  -1.999  0.00  0.00    +0.192 C 
ENDROOT
BRANCH   1   2
ATOM      2  C   UNL     1      -0.055  -2.430  -3.481  0.00  0.00    -0.018 A 
ATOM      3  C   UNL     1       0.093  -1.140  -3.956  0.00  0.00    +0.006 A 
ATOM      4  C   UNL     1       0.190  -0.910  -5.315  0.00  0.00    +0.013 A 
ATOM      5  C   UNL     1       0.140  -1.970  -6.201  0.00  0.00    +0.055 A 
ATOM      6  C   UNL     1      -0.007  -3.260  -5.726  0.00  0.00    +0.013 A 
ATOM      7  C   UNL     1      -0.100  -3.490  -4.367  0.00  0.00    +0.006 A 
BRANCH   5   8
ATOM      8  C   UNL     1       0.245  -1.720  -7.683  0.00  0.00    +0.417 C 
ATOM      9  F   UNL     1       1.589  -1.765  -8.069  0.00  0.00    -0.166 F 
ATOM     10  F   UNL     1      -0.472  -2.703  -8.374  0.00  0.00    -0.166 F 
ATOM     11  F   UNL     1      -0.284  -0.460  -7.982  0.00  0.00    -0.166 F 
ENDBRANCH   5   8
ENDBRANCH   1   2
BRANCH   1  12
ATOM     12  C   UNL     1      -1.520  -2.245  -1.512  0.00  0.00    +0.238 C 
ATOM     13  O   UNL     1      -1.614  -1.353  -0.696  0.00  0.00    -0.273 OA
ATOM     14  N   UNL     1      -2.629  -2.847  -1.984  0.00  0.00    -0.309 N 
ATOM     15  H   UNL     1      -2.554  -3.560  -2.636  0.00  0.00    +0.149 HD
BRANCH  14  16
ATOM     16  C   UNL     1      -3.950  -2.424  -1.510  0.00  0.00    +0.026 C 
ATOM     17  C   UNL     1      -4.161  -0.945  -1.843  0.00  0.00    +0.031 C 
ATOM     18  C   UNL     1      -5.030  -3.261  -2.197  0.00  0.00    +0.031 C 
ATOM     19  C   UNL     1      -4.036  -2.622   0.004  0.00  0.00    +0.031 C 
ENDBRANCH  14  16
ENDBRANCH   1  12
BRANCH   1  20
ATOM     20  N   UNL     1       0.876  -1.918  -1.300  0.00  0.00    -0.282 N 
ATOM     21  C   UNL     1       2.130  -2.404  -1.218  0.00  0.00    +0.255 C 
ATOM     22  O   UNL     1       2.401  -3.475  -1.725  0.00  0.00    -0.270 OA
BRANCH  21  23
ATOM     23  C   UNL     1       3.172  -1.637  -0.515  0.00  0.00    +0.119 A 
ATOM     24  C   UNL     1       3.391  -1.836   0.856  0.00  0.00    +0.133 A 
ATOM     25  C   UNL     1       4.375  -1.110   1.508  0.00  0.00    +0.046 A 
ATOM     26  C   UNL     1       5.139  -0.193   0.811  0.00  0.00    +0.007 A 
ATOM     27  C   UNL     1       4.932   0.011  -0.540  0.00  0.00    +0.046 A 
ATOM     28  C   UNL     1       3.957  -0.708  -1.213  0.00  0.00    +0.133 A 
BRANCH  28  29
ATOM     29  O   UNL     1       3.760  -0.510  -2.540  0.00  0.00    -0.506 OA
ATOM     30  H   UNL     1       3.114   0.180  -2.744  0.00  0.00    +0.292 HD
ENDBRANCH  28  29
BRANCH  24  31
ATOM     31  O   UNL     1       2.642  -2.735   1.542  0.00  0.00    -0.506 OA
ATOM     32  H   UNL     1       3.014  -3.628   1.555  0.00  0.00    +0.292 HD
ENDBRANCH  24  31
ENDBRANCH  21  23
BRANCH  20  33
ATOM     33  C   UNL     1       0.549  -0.627  -0.689  0.00  0.00    +0.109 C 
BRANCH  33  35
ATOM     34  C   UNL     1      -0.292   0.476   1.389  0.00  0.00    +0.005 C 
ATOM     35  C   UNL     1       0.250  -0.827   0.798  0.00  0.00    +0.016 C 
ENDBRANCH  33  35
ENDBRANCH  20  33
ENDBRANCH   1  20
TORSDOF 10
