REMARK  Name = ZINC39364195
REMARK  9 active torsions:
REMARK  status: ('A' for Active; 'I' for Inactive)
REMARK    1  A    between atoms: C_1  and  C_2
REMARK    2  A    between atoms: C_2  and  C_3
REMARK    3  A    between atoms: C_2  and  C_4
REMARK    4  A    between atoms: C_8  and  C_10
REMARK    5  A    between atoms: N_15  and  C_17
REMARK    6  A    between atoms: C_17  and  C_18
REMARK    7  A    between atoms: C_20  and  O_25
REMARK    8  A    between atoms: C_23  and  O_24
REMARK    9  A    between atoms: O_25  and  C_26
REMARK                            x       y       z     vdW  Elec       q    Type
REMARK                         _______ _______ _______ _____ _____    ______ ____
ROOT
ATOM      1  C   UNL     1      -2.084  -0.515   2.111  0.00  0.00    +0.003 C 
ATOM      2  C   UNL     1      -0.938   0.441   2.450  0.00  0.00    +0.002 C 
ATOM      3  C   UNL     1      -0.360   0.065   3.818  0.00  0.00    -0.018 C 
ATOM      4  C   UNL     1      -1.476   0.102   4.864  0.00  0.00    -0.078 C 
ATOM      5  N   UNL     1      -2.529  -0.852   4.497  0.00  0.00    +0.383 N 
ATOM      6  C   UNL     1      -3.137  -0.457   3.220  0.00  0.00    -0.072 C 
ATOM      7  H   UNL     1      -2.130  -1.774   4.406  0.00  0.00    -0.081 HD
ENDROOT
BRANCH   1  12
ATOM      8  C   UNL     1      -3.783  -1.097   0.360  0.00  0.00    -0.021 C 
ATOM      9  C   UNL     1      -4.907  -0.377   0.334  0.00  0.00    +0.136 C 
ATOM     10  N   UNL     1      -4.662   0.907   0.674  0.00  0.00    -0.162 NA
ATOM     11  N   UNL     1      -3.481   1.152   0.935  0.00  0.00    -0.180 NA
ATOM     12  C   UNL     1      -2.719  -0.100   0.782  0.00  0.00    +0.157 C 
BRANCH   8  14
ATOM     13  C   UNL     1      -4.978  -3.250   0.064  0.00  0.00    +0.012 C 
ATOM     14  C   UNL     1      -3.611  -2.562   0.049  0.00  0.00    +0.012 C 
ATOM     15  C   UNL     1      -2.977  -2.719  -1.334  0.00  0.00    +0.012 C 
ENDBRANCH   8  14
ENDBRANCH   1  12
BRANCH   5  16
ATOM     16  C   UNL     1      -3.560  -0.869   5.543  0.00  0.00    -0.039 C 
BRANCH  16  17
ATOM     17  C   UNL     1      -2.968  -1.401   6.823  0.00  0.00    -0.019 A 
ATOM     18  C   UNL     1      -2.679  -0.537   7.862  0.00  0.00    +0.051 A 
ATOM     19  C   UNL     1      -2.135  -1.027   9.040  0.00  0.00    +0.121 A 
ATOM     20  C   UNL     1      -1.880  -2.384   9.174  0.00  0.00    +0.049 A 
ATOM     21  C   UNL     1      -2.169  -3.247   8.136  0.00  0.00    +0.049 A 
ATOM     22  C   UNL     1      -2.719  -2.758   6.960  0.00  0.00    +0.118 A 
BRANCH  22  23
ATOM     23  O   UNL     1      -3.008  -3.609   5.939  0.00  0.00    -0.507 OA
ATOM     24  H   UNL     1      -2.280  -3.739   5.316  0.00  0.00    +0.292 HD
ENDBRANCH  22  23
BRANCH  19  25
ATOM     25  O   UNL     1      -1.850  -0.177  10.062  0.00  0.00    -0.495 OA
ATOM     26  C   UNL     1      -1.291  -0.750  11.245  0.00  0.00    +0.277 C 
ENDBRANCH  19  25
ENDBRANCH  16  17
ENDBRANCH   5  16
TORSDOF 6
