REMARK  Name = ZINC25474870
REMARK  7 active torsions:
REMARK  status: ('A' for Active; 'I' for Inactive)
REMARK    1  A    between atoms: C_1  and  C_2
REMARK    2  A    between atoms: C_2  and  C_4
REMARK    3  A    between atoms: C_2  and  N_15
REMARK    4  A    between atoms: C_4  and  C_5
REMARK    5  A    between atoms: N_7  and  C_8
REMARK    6  A    between atoms: C_8  and  C_9
REMARK    7  A    between atoms: C_16  and  C_18
REMARK                            x       y       z     vdW  Elec       q    Type
REMARK                         _______ _______ _______ _____ _____    ______ ____
ROOT
ATOM      1  C   UNL     1      -0.019   1.526   0.010  0.00  0.00    +0.028 C 
ATOM      2  C   UNL     1       0.002  -0.004   0.002  0.00  0.00    +0.079 C 
ENDROOT
BRANCH   2   3
ATOM      3  N   UNL     1       0.711  -0.489   1.189  0.00  0.00    -0.308 N 
ATOM      4  C   UNL     1       2.054  -0.600   1.174  0.00  0.00    +0.244 C 
ATOM      5  O   UNL     1       2.677  -0.297   0.175  0.00  0.00    -0.270 OA
ATOM      6  H   UNL     1       0.213  -0.731   1.986  0.00  0.00    +0.149 HD
BRANCH   4   7
ATOM      7  C   UNL     1       2.769  -1.090   2.372  0.00  0.00    +0.037 A 
ATOM      8  C   UNL     1       2.055  -1.444   3.518  0.00  0.00    +0.013 A 
ATOM      9  C   UNL     1       2.729  -1.901   4.632  0.00  0.00    +0.001 A 
ATOM     10  C   UNL     1       4.108  -2.007   4.615  0.00  0.00    +0.000 A 
ATOM     11  C   UNL     1       4.821  -1.657   3.482  0.00  0.00    +0.001 A 
ATOM     12  C   UNL     1       4.160  -1.205   2.359  0.00  0.00    +0.013 A 
ENDBRANCH   4   7
ENDBRANCH   2   3
BRANCH   2  13
ATOM     13  C   UNL     1      -1.433  -0.534   0.013  0.00  0.00    +0.117 C 
BRANCH  13  14
ATOM     14  C   UNL     1      -1.416  -2.035  -0.119  0.00  0.00    +0.215 C 
ATOM     15  O   UNL     1      -0.359  -2.623  -0.213  0.00  0.00    -0.276 OA
ATOM     16  N   UNL     1      -2.574  -2.724  -0.133  0.00  0.00    -0.311 N 
ATOM     17  H   UNL     1      -3.419  -2.253  -0.058  0.00  0.00    +0.149 HD
BRANCH  16  18
ATOM     18  C   UNL     1      -2.558  -4.183  -0.262  0.00  0.00    +0.146 C 
BRANCH  18  19
ATOM     19  C   UNL     1      -3.971  -4.704  -0.251  0.00  0.00    +0.008 A 
ATOM     20  C   UNL     1      -4.812  -4.913  -1.294  0.00  0.00    +0.014 A 
ATOM     21  C   UNL     1      -6.080  -5.404  -1.045  0.00  0.00    +0.023 A 
ATOM     22  C   UNL     1      -6.445  -5.662   0.236  0.00  0.00    +0.055 A 
ATOM     23  S   UNL     1      -4.971  -5.215   1.137  0.00  0.00    -0.085 S 
ATOM     24 BR   UNL     1      -8.087  -6.330   0.894  0.00  0.00    -0.043 Br
ENDBRANCH  18  19
ENDBRANCH  16  18
ENDBRANCH  13  14
ENDBRANCH   2  13
TORSDOF 6
