REMARK  Name = ZINC20755008
REMARK  13 active torsions:
REMARK  status: ('A' for Active; 'I' for Inactive)
REMARK    1  A    between atoms: C_1  and  O_2
REMARK    2  A    between atoms: O_2  and  C_3
REMARK    3  A    between atoms: C_6  and  N_9
REMARK    4  A    between atoms: N_9  and  S_10
REMARK    5  A    between atoms: S_10  and  C_13
REMARK    6  A    between atoms: C_15  and  N_32
REMARK    7  A    between atoms: C_18  and  N_19
REMARK    8  A    between atoms: N_19  and  N_20
REMARK    9  A    between atoms: C_21  and  C_22
REMARK   10  A    between atoms: C_25  and  O_30
REMARK   11  A    between atoms: C_27  and  O_28
REMARK   12  A    between atoms: O_28  and  C_29
REMARK   13  A    between atoms: O_30  and  C_31
REMARK                            x       y       z     vdW  Elec       q    Type
REMARK                         _______ _______ _______ _____ _____    ______ ____
ROOT
ATOM      1  C   UNL     1      -6.785   3.858  -0.062  0.00  0.00    +0.133 A 
ATOM      2  C   UNL     1      -7.899   3.052   0.029  0.00  0.00    +0.063 A 
ATOM      3  C   UNL     1      -7.759   1.673   0.063  0.00  0.00    +0.128 A 
ATOM      4  C   UNL     1      -6.500   1.095   0.002  0.00  0.00    +0.035 A 
ATOM      5  C   UNL     1      -5.378   1.887  -0.094  0.00  0.00    +0.029 A 
ATOM      6  C   UNL     1      -5.511   3.281  -0.129  0.00  0.00    +0.075 A 
ENDROOT
BRANCH   1   7
ATOM      7  S   UNL     1      -6.965   5.611  -0.098  0.00  0.00    +0.074 S 
ATOM      8  O   UNL     1      -6.198   6.075  -1.201  0.00  0.00    -0.150 OA
ATOM      9  O   UNL     1      -8.354   5.880   0.030  0.00  0.00    -0.150 OA
BRANCH   7  10
ATOM     10  N   UNL     1      -6.239   6.206   1.266  0.00  0.00    -0.216 N 
ATOM     11  H   UNL     1      -5.382   6.889   1.180  0.00  0.00    +0.174 HD
BRANCH  10  15
ATOM     12  C   UNL     1      -7.662   5.113   5.029  0.00  0.00    +0.120 A 
ATOM     13  C   UNL     1      -6.299   5.090   4.769  0.00  0.00    +0.047 A 
ATOM     14  C   UNL     1      -5.827   5.452   3.523  0.00  0.00    +0.028 A 
ATOM     15  C   UNL     1      -6.717   5.839   2.529  0.00  0.00    +0.048 A 
ATOM     16  C   UNL     1      -8.080   5.866   2.792  0.00  0.00    +0.028 A 
ATOM     17  C   UNL     1      -8.551   5.498   4.037  0.00  0.00    +0.047 A 
BRANCH  12  19
ATOM     18  C   UNL     1      -9.544   4.697   6.422  0.00  0.00    +0.277 C 
ATOM     19  O   UNL     1      -8.126   4.757   6.256  0.00  0.00    -0.495 OA
ENDBRANCH  12  19
ENDBRANCH  10  15
ENDBRANCH   7  10
ENDBRANCH   1   7
BRANCH   3  20
ATOM     20  N   UNL     1      -8.961   0.814   0.166  0.00  0.00    +0.056 N 
ATOM     21  O   UNL     1      -8.832  -0.497   0.200  0.00  0.00    -0.126 OA
ATOM     22  O   UNL     1     -10.158   1.360   0.225  0.00  0.00    -0.126 OA
ENDBRANCH   3  20
BRANCH   6  23
ATOM     23  N   UNL     1      -4.398   4.078  -0.224  0.00  0.00    -0.236 N 
ATOM     24  H   UNL     1      -4.508   5.167  -0.334  0.00  0.00    +0.174 HD
BRANCH  23  25
ATOM     25  N   UNL     1      -3.222   3.549  -0.184  0.00  0.00    -0.190 NA
ATOM     26  C   UNL     1      -2.130   4.337  -0.175  0.00  0.00    +0.141 C 
BRANCH  26  27
ATOM     27  C   UNL     1      -0.864   3.769  -0.237  0.00  0.00    +0.036 A 
ATOM     28  C   UNL     1       0.333   4.612  -0.343  0.00  0.00    +0.016 A 
ATOM     29  C   UNL     1       1.552   4.026  -0.402  0.00  0.00    +0.046 A 
ATOM     30  C   UNL     1       1.689   2.626  -0.364  0.00  0.00    +0.124 A 
ATOM     31  C   UNL     1       0.587   1.784  -0.265  0.00  0.00    +0.091 A 
ATOM     32  C   UNL     1      -0.689   2.304  -0.205  0.00  0.00    +0.132 A 
BRANCH  32  33
ATOM     33  O   UNL     1      -1.761   1.485  -0.113  0.00  0.00    -0.494 OA
ATOM     34  C   UNL     1      -1.504   0.080  -0.083  0.00  0.00    +0.277 C 
ENDBRANCH  32  33
BRANCH  30  35
ATOM     35  O   UNL     1       2.925   2.085  -0.425  0.00  0.00    -0.495 OA
ATOM     36  C   UNL     1       4.026   2.991  -0.527  0.00  0.00    +0.277 C 
ENDBRANCH  30  35
ENDBRANCH  26  27
ENDBRANCH  23  25
ENDBRANCH   6  23
TORSDOF 10
