REMARK  Name = ZINC67604533
REMARK  7 active torsions:
REMARK  status: ('A' for Active; 'I' for Inactive)
REMARK    1  A    between atoms: C_1  and  C_2
REMARK    2  A    between atoms: C_7  and  C_8
REMARK    3  A    between atoms: C_11  and  C_13
REMARK    4  A    between atoms: C_13  and  N_14
REMARK    5  A    between atoms: C_23  and  C_25
REMARK    6  A    between atoms: C_25  and  O_27
REMARK    7  A    between atoms: O_27  and  C_28
REMARK                            x       y       z     vdW  Elec       q    Type
REMARK                         _______ _______ _______ _____ _____    ______ ____
ROOT
ATOM      1  N   UNL     1      -1.040   1.611   7.055  0.00  0.00    -0.279 NA
ATOM      2  C   UNL     1      -1.736   2.838   6.630  0.00  0.00    +0.140 C 
ATOM      3  C   UNL     1      -3.200   2.685   6.950  0.00  0.00    +0.051 A 
ATOM      4  C   UNL     1      -3.690   1.752   7.797  0.00  0.00    +0.040 A 
ATOM      5  N   UNL     1      -5.014   1.895   7.847  0.00  0.00    -0.349 N 
ATOM      6  C   UNL     1      -5.369   2.882   7.064  0.00  0.00    +0.171 A 
ATOM      7  N   UNL     1      -4.259   3.400   6.487  0.00  0.00    -0.349 N 
ATOM      8  H   UNL     1      -4.226   4.141   5.862  0.00  0.00    +0.166 HD
ATOM      9  C   UNL     1      -2.815   0.760   8.524  0.00  0.00    +0.085 C 
ATOM     10  C   UNL     1      -1.367   1.262   8.444  0.00  0.00    +0.173 C 
ATOM     11  H   UNL     1      -5.619   1.353   8.378  0.00  0.00    +0.166 HD
ENDROOT
BRANCH  10  12
ATOM     12  C   UNL     1      -0.434   0.179   8.922  0.00  0.00    +0.325 C 
ATOM     13  O   UNL     1      -0.033   0.188  10.062  0.00  0.00    -0.249 OA
BRANCH  12  14
ATOM     14  O   UNL     1      -0.048  -0.794   8.082  0.00  0.00    -0.467 OA
ATOM     15  C   UNL     1       0.837  -1.787   8.603  0.00  0.00    +0.280 C 
ENDBRANCH  12  14
ENDBRANCH  10  12
BRANCH   1  16
ATOM     16  C   UNL     1       0.412   1.739   6.872  0.00  0.00    +0.129 C 
BRANCH  16  20
ATOM     17  C   UNL     1       1.345   1.277   2.830  0.00  0.00    +0.109 A 
ATOM     18  N   UNL     1       1.127   2.511   3.263  0.00  0.00    -0.247 NA
ATOM     19  C   UNL     1       0.828   2.750   4.518  0.00  0.00    +0.124 A 
ATOM     20  C   UNL     1       0.737   1.720   5.401  0.00  0.00    +0.024 A 
ATOM     21  S   UNL     1       1.102   0.335   4.330  0.00  0.00    -0.071 S 
BRANCH  17  28
ATOM     22  C   UNL     1       1.640   3.195   0.684  0.00  0.00    +0.044 C 
ATOM     23  C   UNL     1       1.835   1.722   0.428  0.00  0.00    -0.041 A 
ATOM     24  C   UNL     1       2.162   1.277  -0.836  0.00  0.00    +0.004 A 
ATOM     25  C   UNL     1       2.342  -0.074  -1.072  0.00  0.00    +0.000 A 
ATOM     26  C   UNL     1       2.194  -0.988  -0.043  0.00  0.00    +0.001 A 
ATOM     27  C   UNL     1       1.867  -0.556   1.225  0.00  0.00    +0.011 A 
ATOM     28  C   UNL     1       1.690   0.807   1.471  0.00  0.00    +0.010 A 
ENDBRANCH  17  28
ENDBRANCH  16  20
ENDBRANCH   1  16
TORSDOF 5
