REMARK  Name = ZINC14550604
REMARK  4 active torsions:
REMARK  status: ('A' for Active; 'I' for Inactive)
REMARK    1  A    between atoms: C_1  and  O_2
REMARK    2  A    between atoms: O_2  and  C_3
REMARK    3  A    between atoms: C_7  and  C_9
REMARK    4  A    between atoms: C_20  and  C_25
REMARK                            x       y       z     vdW  Elec       q    Type
REMARK                         _______ _______ _______ _____ _____    ______ ____
ROOT
ATOM      1  C   UNL     1      -2.664   8.468   0.645  0.00  0.00    +0.105 C 
ATOM      2  C   UNL     1      -3.747   7.892   1.540  0.00  0.00    +0.029 C 
ATOM      3  C   UNL     1      -5.049   8.693   1.669  0.00  0.00    +0.033 C 
ATOM      4  C   UNL     1      -6.068   7.583   1.935  0.00  0.00    -0.030 C 
ATOM      5  C   UNL     1      -5.634   6.437   1.425  0.00  0.00    -0.023 C 
ATOM      6  C   UNL     1      -4.331   6.679   0.756  0.00  0.00    +0.049 C 
ATOM      7  C   UNL     1      -3.283   5.638   0.681  0.00  0.00    -0.019 A 
ATOM      8  C   UNL     1      -3.575   4.297   0.712  0.00  0.00    +0.019 A 
ATOM      9  C   UNL     1      -2.550   3.352   0.617  0.00  0.00    +0.037 A 
ATOM     10  C   UNL     1      -1.224   3.779   0.491  0.00  0.00    +0.015 A 
ATOM     11  C   UNL     1      -0.935   5.122   0.457  0.00  0.00    +0.024 A 
ATOM     12  C   UNL     1      -1.952   6.068   0.560  0.00  0.00    +0.031 A 
ATOM     13  N   UNL     1      -1.623   7.422   0.553  0.00  0.00    -0.336 N 
ATOM     14  H   UNL     1      -0.691   7.684   0.487  0.00  0.00    +0.147 HD
ENDROOT
BRANCH   9  15
ATOM     15  C   UNL     1      -2.864   1.911   0.656  0.00  0.00    +0.247 C 
ATOM     16  O   UNL     1      -3.954   1.516   0.288  0.00  0.00    -0.270 OA
ATOM     17  N   UNL     1      -1.943   1.032   1.099  0.00  0.00    -0.298 N 
ATOM     18  C   UNL     1      -0.600   1.504   1.351  0.00  0.00    +0.108 C 
ATOM     19  C   UNL     1       0.243   1.387   0.058  0.00  0.00    +0.019 C 
ATOM     20  C   UNL     1       0.530  -0.025  -0.239  0.00  0.00    +0.002 C 
ATOM     21  C   UNL     1      -0.708  -0.873  -0.518  0.00  0.00    +0.002 C 
ATOM     22  C   UNL     1      -1.283  -1.362   0.789  0.00  0.00    +0.019 C 
ATOM     23  C   UNL     1      -2.346  -0.373   1.301  0.00  0.00    +0.108 C 
ENDBRANCH   9  15
BRANCH   1  28
ATOM     24  C   UNL     1      -4.302  10.281  -2.238  0.00  0.00    +0.120 A 
ATOM     25  C   UNL     1      -4.252   9.316  -3.233  0.00  0.00    +0.045 A 
ATOM     26  C   UNL     1      -3.688   8.082  -2.970  0.00  0.00    +0.004 A 
ATOM     27  C   UNL     1      -3.171   7.811  -1.716  0.00  0.00    +0.006 A 
ATOM     28  C   UNL     1      -3.225   8.769  -0.721  0.00  0.00    -0.024 A 
ATOM     29  C   UNL     1      -3.787  10.004  -0.980  0.00  0.00    +0.051 A 
BRANCH  24  31
ATOM     30  C   UNL     1      -5.366  11.710  -3.812  0.00  0.00    +0.277 C 
ATOM     31  O   UNL     1      -4.856  11.495  -2.495  0.00  0.00    -0.495 OA
ENDBRANCH  24  31
ENDBRANCH   1  28
TORSDOF 3
