REMARK  Name = ZINC39695539
REMARK  9 active torsions:
REMARK  status: ('A' for Active; 'I' for Inactive)
REMARK    1  A    between atoms: C_1  and  C_2
REMARK    2  A    between atoms: C_2  and  N_3
REMARK    3  A    between atoms: C_7  and  C_9
REMARK    4  A    between atoms: C_9  and  N_10
REMARK    5  A    between atoms: C_11  and  C_13
REMARK    6  A    between atoms: C_24  and  C_26
REMARK    7  A    between atoms: C_31  and  O_32
REMARK    8  A    between atoms: O_32  and  C_33
REMARK    9  A    between atoms: C_33  and  C_34
REMARK                            x       y       z     vdW  Elec       q    Type
REMARK                         _______ _______ _______ _____ _____    ______ ____
ROOT
ATOM      1  C   UNL     1      -1.489  -1.215  -4.956  0.00  0.00    +0.100 C 
ATOM      2  C   UNL     1      -1.785   0.300  -4.884  0.00  0.00    +0.121 C 
ATOM      3  N   UNL     1      -2.043   0.698  -6.287  0.00  0.00    -0.296 N 
ATOM      4  C   UNL     1      -2.822  -0.429  -6.853  0.00  0.00    +0.115 C 
ATOM      5  C   UNL     1      -2.172  -1.690  -6.249  0.00  0.00    -0.004 C 
ATOM      6  C   UNL     1      -3.239  -2.732  -5.931  0.00  0.00    -0.010 C 
ATOM      7  C   UNL     1      -3.864  -3.232  -7.237  0.00  0.00    -0.082 C 
ATOM      8  N   UNL     1      -2.820  -3.815  -8.089  0.00  0.00    +0.379 N 
ATOM      9  C   UNL     1      -1.848  -2.782  -8.467  0.00  0.00    -0.082 C 
ATOM     10  C   UNL     1      -1.138  -2.264  -7.213  0.00  0.00    -0.010 C 
ATOM     11  C   UNL     1      -1.656   1.830  -6.909  0.00  0.00    +0.250 C 
ATOM     12  O   UNL     1      -0.933   2.622  -6.336  0.00  0.00    -0.270 OA
ATOM     13  H   UNL     1      -2.349  -4.551  -7.585  0.00  0.00    -0.086 HD
ATOM     14  H   UNL     1      -3.243  -4.197  -8.922  0.00  0.00    -0.086 HD
ENDROOT
BRANCH  11  15
ATOM     15  C   UNL     1      -2.110   2.107  -8.286  0.00  0.00    +0.078 A 
ATOM     16  C   UNL     1      -3.386   1.715  -8.697  0.00  0.00    +0.017 A 
ATOM     17  C   UNL     1      -3.804   1.978  -9.983  0.00  0.00    +0.001 A 
ATOM     18  C   UNL     1      -2.965   2.629 -10.872  0.00  0.00    +0.004 A 
ATOM     19  C   UNL     1      -1.701   3.021 -10.479  0.00  0.00    +0.046 A 
ATOM     20  C   UNL     1      -1.265   2.770  -9.186  0.00  0.00    +0.133 A 
BRANCH  20  21
ATOM     21  O   UNL     1      -0.026   3.160  -8.797  0.00  0.00    -0.491 OA
BRANCH  21  22
ATOM     22  C   UNL     1       0.779   3.830  -9.769  0.00  0.00    +0.226 C 
ATOM     23  C   UNL     1       2.131   4.190  -9.151  0.00  0.00    +0.048 C 
ENDBRANCH  21  22
ENDBRANCH  20  21
ENDBRANCH  11  15
BRANCH   1  25
ATOM     24  N   UNL     1      -1.608  -3.132  -3.397  0.00  0.00    -0.317 N 
ATOM     25  C   UNL     1      -2.076  -1.922  -3.762  0.00  0.00    +0.218 C 
ATOM     26  O   UNL     1      -2.971  -1.403  -3.130  0.00  0.00    -0.275 OA
ATOM     27  H   UNL     1      -0.892  -3.547  -3.903  0.00  0.00    +0.149 HD
BRANCH  24  28
ATOM     28  C   UNL     1      -2.179  -3.819  -2.236  0.00  0.00    +0.089 C 
BRANCH  28  33
ATOM     29  N   UNL     1      -0.018  -4.954  -1.936  0.00  0.00    +0.382 N 
ATOM     30  C   UNL     1       0.438  -5.466  -0.626  0.00  0.00    -0.078 C 
ATOM     31  C   UNL     1      -0.820  -5.416   0.277  0.00  0.00    -0.020 C 
ATOM     32  C   UNL     1      -1.939  -5.813  -0.721  0.00  0.00    -0.016 C 
ATOM     33  C   UNL     1      -1.474  -5.163  -2.041  0.00  0.00    -0.051 C 
ATOM     34  H   UNL     1       0.190  -3.969  -2.004  0.00  0.00    -0.081 HD
BRANCH  29  36
ATOM     35  C   UNL     1       2.161  -5.362  -2.978  0.00  0.00    -0.017 C 
ATOM     36  C   UNL     1       0.665  -5.681  -3.015  0.00  0.00    -0.082 C 
ENDBRANCH  29  36
ENDBRANCH  28  33
ENDBRANCH  24  28
ENDBRANCH   1  25
TORSDOF 7
