REMARK  Name = ZINC05078050
REMARK  7 active torsions:
REMARK  status: ('A' for Active; 'I' for Inactive)
REMARK    1  A    between atoms: C_3  and  C_6
REMARK    2  A    between atoms: C_8  and  C_22
REMARK    3  A    between atoms: C_9  and  C_20
REMARK    4  A    between atoms: C_10  and  S_12
REMARK    5  A    between atoms: S_12  and  C_13
REMARK    6  A    between atoms: C_13  and  C_14
REMARK    7  A    between atoms: C_14  and  N_44
REMARK                            x       y       z     vdW  Elec       q    Type
REMARK                         _______ _______ _______ _____ _____    ______ ____
ROOT
ATOM      1  C   UNL     1       0.913   5.129   0.020  0.00  0.00    +0.079 A 
ATOM      2  C   UNL     1       2.289   5.376   0.008  0.00  0.00    +0.042 A 
ATOM      3  C   UNL     1       2.743   6.667   0.011  0.00  0.00    +0.077 A 
ATOM      4  C   UNL     1       1.804   7.709   0.025  0.00  0.00    +0.095 A 
ATOM      5  C   UNL     1       0.433   7.393   0.036  0.00  0.00    +0.115 A 
ATOM      6  N   UNL     1       0.038   6.130   0.028  0.00  0.00    -0.239 NA
ENDROOT
BRANCH   1   9
ATOM      7  C   UNL     1      -1.081   1.916   0.017  0.00  0.00    +0.008 A 
ATOM      8  C   UNL     1      -0.866   3.274   0.026  0.00  0.00    +0.017 A 
ATOM      9  C   UNL     1       0.425   3.737   0.017  0.00  0.00    +0.038 A 
ATOM     10  S   UNL     1       1.360   2.217   0.001  0.00  0.00    -0.095 S 
ATOM     11  C   UNL     1      -0.013   1.076   0.008  0.00  0.00    +0.046 A 
ENDBRANCH   1   9
BRANCH   3  12
ATOM     12  C   UNL     1       4.221   6.963  -0.002  0.00  0.00    +0.419 C 
ATOM     13  F   UNL     1       4.937   5.762  -0.015  0.00  0.00    -0.166 F 
ATOM     14  F   UNL     1       4.537   7.708  -1.143  0.00  0.00    -0.166 F 
ATOM     15  F   UNL     1       4.559   7.696   1.141  0.00  0.00    -0.166 F 
ENDBRANCH   3  12
BRANCH   4  16
ATOM     16  C   UNL     1       2.235   9.075   0.028  0.00  0.00    +0.102 C 
ATOM     17  N   UNL     1       2.576  10.158   0.030  0.00  0.00    -0.191 NA
ENDBRANCH   4  16
BRANCH   5  18
ATOM     18  S   UNL     1      -0.765   8.685   0.054  0.00  0.00    -0.106 S 
BRANCH  18  19
ATOM     19  C   UNL     1      -2.286   7.704   0.063  0.00  0.00    +0.057 C 
BRANCH  19  20
ATOM     20  C   UNL     1      -3.496   8.640   0.079  0.00  0.00    -0.068 C 
BRANCH  20  26
ATOM     21  C   UNL     1      -4.880   7.093  -1.167  0.00  0.00    -0.079 C 
ATOM     22  C   UNL     1      -6.095   6.167  -1.067  0.00  0.00    -0.019 C 
ATOM     23  C   UNL     1      -7.348   7.005  -0.800  0.00  0.00    -0.004 C 
ATOM     24  C   UNL     1      -7.147   7.814   0.484  0.00  0.00    -0.019 C 
ATOM     25  C   UNL     1      -5.902   8.692   0.339  0.00  0.00    -0.079 C 
ATOM     26  N   UNL     1      -4.728   7.824   0.109  0.00  0.00    +0.380 N 
ATOM     27  H   UNL     1      -4.659   7.146   0.876  0.00  0.00    -0.082 HD
ENDBRANCH  20  26
ENDBRANCH  19  20
ENDBRANCH  18  19
ENDBRANCH   5  18
TORSDOF 7
