REMARK  Name = ZINC08430790
REMARK  13 active torsions:
REMARK  status: ('A' for Active; 'I' for Inactive)
REMARK    1  A    between atoms: C_1  and  C_2
REMARK    2  A    between atoms: C_2  and  C_3
REMARK    3  A    between atoms: C_3  and  C_4
REMARK    4  A    between atoms: C_4  and  N_5
REMARK    5  A    between atoms: N_5  and  C_6
REMARK    6  A    between atoms: N_5  and  C_7
REMARK    7  A    between atoms: C_7  and  C_8
REMARK    8  A    between atoms: C_8  and  C_10
REMARK    9  A    between atoms: C_8  and  O_31
REMARK   10  A    between atoms: C_10  and  N_11
REMARK   11  A    between atoms: C_13  and  C_20
REMARK   12  A    between atoms: C_21  and  C_22
REMARK   13  A    between atoms: C_22  and  C_24
REMARK                            x       y       z     vdW  Elec       q    Type
REMARK                         _______ _______ _______ _____ _____    ______ ____
ROOT
ATOM      1  N   UNL     1      -5.250  -6.648   0.647  0.00  0.00    -0.344 N 
ATOM      2  C   UNL     1      -5.902  -6.784   1.827  0.00  0.00    +0.094 A 
ATOM      3  C   UNL     1      -7.123  -7.386   1.612  0.00  0.00    +0.000 A 
ATOM      4  C   UNL     1      -7.211  -7.634   0.160  0.00  0.00    +0.007 A 
ATOM      5  C   UNL     1      -6.014  -7.146  -0.389  0.00  0.00    +0.050 A 
ATOM      6  C   UNL     1      -5.808  -7.238  -1.762  0.00  0.00    +0.026 A 
ATOM      7  C   UNL     1      -6.774  -7.799  -2.567  0.00  0.00    +0.002 A 
ATOM      8  C   UNL     1      -7.957  -8.277  -2.023  0.00  0.00    +0.001 A 
ATOM      9  C   UNL     1      -8.177  -8.204  -0.665  0.00  0.00    +0.010 A 
ENDROOT
BRANCH   3  10
ATOM     10  C   UNL     1      -8.129  -7.713   2.621  0.00  0.00    +0.014 C 
ATOM     11  C   UNL     1      -7.901  -7.420   3.927  0.00  0.00    +0.052 C 
BRANCH  11  12
ATOM     12  C   UNL     1      -8.873  -7.737   4.901  0.00  0.00    +0.186 C 
ATOM     13  O   UNL     1      -9.916  -8.272   4.570  0.00  0.00    -0.287 OA
BRANCH  12  14
ATOM     14  C   UNL     1      -8.625  -7.418   6.324  0.00  0.00    +0.022 A 
ATOM     15  C   UNL     1      -7.433  -6.799   6.706  0.00  0.00    +0.013 A 
ATOM     16  C   UNL     1      -7.208  -6.504   8.034  0.00  0.00    +0.016 A 
ATOM     17  C   UNL     1      -8.160  -6.820   8.988  0.00  0.00    +0.018 A 
ATOM     18  C   UNL     1      -9.344  -7.434   8.616  0.00  0.00    +0.016 A 
ATOM     19  C   UNL     1      -9.584  -7.729   7.290  0.00  0.00    +0.013 A 
ATOM     20 BR   UNL     1      -7.843  -6.413  10.807  0.00  0.00    -0.050 Br
ENDBRANCH  12  14
ENDBRANCH  11  12
ENDBRANCH   3  10
BRANCH   1  21
ATOM     21  C   UNL     1      -3.922  -6.049   0.490  0.00  0.00    +0.151 C 
BRANCH  21  22
ATOM     22  C   UNL     1      -4.069  -4.568   0.135  0.00  0.00    +0.118 C 
BRANCH  22  23
ATOM     23  O   UNL     1      -4.692  -4.445  -1.145  0.00  0.00    -0.392 OA
ATOM     24  H   UNL     1      -4.200  -4.863  -1.864  0.00  0.00    +0.210 HD
ENDBRANCH  22  23
BRANCH  22  25
ATOM     25  C   UNL     1      -2.687  -3.914   0.095  0.00  0.00    -0.046 C 
BRANCH  25  26
ATOM     26  N   UNL     1      -2.835  -2.470  -0.131  0.00  0.00    +0.380 N 
ATOM     27  C   UNL     1      -1.510  -1.865  -0.322  0.00  0.00    -0.096 C 
ATOM     28  H   UNL     1      -3.398  -2.313  -0.953  0.00  0.00    -0.082 HD
BRANCH  26  29
ATOM     29  C   UNL     1      -3.489  -1.857   1.034  0.00  0.00    -0.079 C 
BRANCH  29  30
ATOM     30  C   UNL     1      -3.756  -0.378   0.749  0.00  0.00    -0.019 C 
BRANCH  30  32
ATOM     31  C   UNL     1      -4.704   1.740   1.677  0.00  0.00    +0.004 C 
ATOM     32  C   UNL     1      -4.436   0.260   1.961  0.00  0.00    -0.005 C 
ENDBRANCH  30  32
ENDBRANCH  29  30
ENDBRANCH  26  29
ENDBRANCH  25  26
ENDBRANCH  22  25
ENDBRANCH  21  22
ENDBRANCH   1  21
TORSDOF 11
