REMARK  Name = ZINC20762525
REMARK  12 active torsions:
REMARK  status: ('A' for Active; 'I' for Inactive)
REMARK    1  A    between atoms: C_1  and  O_2
REMARK    2  A    between atoms: O_2  and  C_3
REMARK    3  A    between atoms: C_7  and  C_9
REMARK    4  A    between atoms: N_22  and  C_23
REMARK    5  A    between atoms: C_23  and  C_25
REMARK    6  A    between atoms: C_23  and  C_31
REMARK    7  A    between atoms: C_25  and  C_26
REMARK    8  A    between atoms: C_26  and  C_27
REMARK    9  A    between atoms: C_27  and  O_29
REMARK   10  A    between atoms: O_29  and  C_30
REMARK   11  A    between atoms: C_31  and  O_33
REMARK   12  A    between atoms: O_33  and  C_34
REMARK                            x       y       z     vdW  Elec       q    Type
REMARK                         _______ _______ _______ _____ _____    ______ ____
ROOT
ATOM      1  C   UNL     1       1.388  -4.128   2.212  0.00  0.00    +0.156 C 
ATOM      2  C   UNL     1       2.702  -4.604   1.646  0.00  0.00    +0.064 A 
ATOM      3  C   UNL     1       3.705  -5.121   2.389  0.00  0.00    +0.066 A 
ATOM      4  N   UNL     1       4.709  -5.428   1.563  0.00  0.00    -0.240 NA
ATOM      5  C   UNL     1       4.367  -5.126   0.338  0.00  0.00    +0.197 A 
ATOM      6  N   UNL     1       3.116  -4.609   0.351  0.00  0.00    -0.346 N 
ATOM      7  H   UNL     1       2.612  -4.300  -0.418  0.00  0.00    +0.167 HD
ATOM      8  C   UNL     1       3.649  -5.303   3.885  0.00  0.00    +0.076 C 
ATOM      9  C   UNL     1       2.525  -4.426   4.450  0.00  0.00    +0.116 C 
ATOM     10  N   UNL     1       1.323  -4.580   3.614  0.00  0.00    -0.273 N 
ATOM     11  C   UNL     1       0.195  -5.122   4.114  0.00  0.00    +0.304 C 
ATOM     12  O   UNL     1       0.128  -5.405   5.294  0.00  0.00    -0.253 OA
ATOM     13  N   UNL     1      -0.860  -5.349   3.306  0.00  0.00    -0.286 N 
ATOM     14  H   UNL     1      -0.782  -5.191   2.352  0.00  0.00    +0.151 HD
ENDROOT
BRANCH   1  19
ATOM     15  C   UNL     1       2.259  -0.480   2.679  0.00  0.00    +0.120 A 
ATOM     16  C   UNL     1       1.190   0.140   2.047  0.00  0.00    +0.045 A 
ATOM     17  C   UNL     1       0.192  -0.622   1.472  0.00  0.00    +0.004 A 
ATOM     18  C   UNL     1       0.257  -2.003   1.525  0.00  0.00    +0.006 A 
ATOM     19  C   UNL     1       1.320  -2.623   2.155  0.00  0.00    -0.018 A 
ATOM     20  C   UNL     1       2.324  -1.865   2.727  0.00  0.00    +0.051 A 
BRANCH  15  22
ATOM     21  C   UNL     1       3.109   1.688   3.158  0.00  0.00    +0.277 C 
ATOM     22  O   UNL     1       3.242   0.268   3.245  0.00  0.00    -0.495 OA
ENDBRANCH  15  22
ENDBRANCH   1  19
BRANCH  13  23
ATOM     23  C   UNL     1      -2.123  -5.833   3.868  0.00  0.00    +0.184 C 
BRANCH  23  24
ATOM     24  C   UNL     1      -2.075  -7.335   3.988  0.00  0.00    +0.327 C 
ATOM     25  O   UNL     1      -1.088  -7.938   3.640  0.00  0.00    -0.249 OA
BRANCH  24  26
ATOM     26  O   UNL     1      -3.130  -8.002   4.482  0.00  0.00    -0.467 OA
ATOM     27  C   UNL     1      -3.016  -9.424   4.568  0.00  0.00    +0.280 C 
ENDBRANCH  24  26
ENDBRANCH  23  24
BRANCH  23  28
ATOM     28  C   UNL     1      -3.278  -5.431   2.949  0.00  0.00    +0.045 C 
BRANCH  28  29
ATOM     29  C   UNL     1      -3.404  -3.907   2.926  0.00  0.00    +0.123 C 
BRANCH  29  30
ATOM     30  C   UNL     1      -4.542  -3.510   2.021  0.00  0.00    +0.307 C 
ATOM     31  O   UNL     1      -5.186  -4.360   1.453  0.00  0.00    -0.251 OA
BRANCH  30  32
ATOM     32  O   UNL     1      -4.840  -2.213   1.846  0.00  0.00    -0.468 OA
ATOM     33  C   UNL     1      -5.931  -1.911   0.974  0.00  0.00    +0.280 C 
ENDBRANCH  30  32
ENDBRANCH  29  30
ENDBRANCH  28  29
ENDBRANCH  23  28
ENDBRANCH  13  23
TORSDOF 9
