REMARK  Name = ZINC05000263
REMARK  3 active torsions:
REMARK  status: ('A' for Active; 'I' for Inactive)
REMARK    1  A    between atoms: C_3  and  C_6
REMARK    2  A    between atoms: C_6  and  C_7
REMARK    3  A    between atoms: N_17  and  N_18
REMARK                            x       y       z     vdW  Elec       q    Type
REMARK                         _______ _______ _______ _____ _____    ______ ____
ROOT
ATOM      1  C   UNL     1       1.155   2.051   0.002  0.00  0.00    +0.135 A 
ATOM      2  N   UNL     1       1.220   3.347   0.008  0.00  0.00    -0.232 NA
ATOM      3  C   UNL     1       0.102   4.115   0.023  0.00  0.00    +0.080 A 
ATOM      4  C   UNL     1       0.170   5.510   0.029  0.00  0.00    +0.048 A 
ATOM      5  C   UNL     1      -0.995   6.247   0.044  0.00  0.00    +0.043 A 
ATOM      6  C   UNL     1      -2.235   5.618   0.053  0.00  0.00    +0.021 A 
ATOM      7  C   UNL     1      -2.325   4.254   0.047  0.00  0.00    +0.017 A 
ATOM      8  C   UNL     1      -1.163   3.486   0.032  0.00  0.00    +0.067 A 
ATOM      9  C   UNL     1      -1.201   2.016   0.019  0.00  0.00    +0.278 A 
ATOM     10  O   UNL     1      -2.258   1.411   0.020  0.00  0.00    -0.265 OA
ATOM     11  N   UNL     1      -0.016   1.362   0.009  0.00  0.00    -0.218 N 
ATOM     12 CL   UNL     1      -0.913   7.981   0.051  0.00  0.00    -0.083 Cl
ENDROOT
BRANCH  11  13
ATOM     13  N   UNL     1       0.002  -0.004   0.002  0.00  0.00    -0.294 N 
ATOM     14  H   UNL     1      -0.935  -0.378   0.009  0.00  0.00    +0.163 HD
ATOM     15  H   UNL     1       0.526  -0.354  -0.786  0.00  0.00    +0.163 HD
ENDBRANCH  11  13
BRANCH   1  16
ATOM     16  C   UNL     1       2.443   1.270  -0.014  0.00  0.00    +0.118 C 
BRANCH  16  19
ATOM     17  C   UNL     1       5.331   3.623   0.783  0.00  0.00    +0.008 A 
ATOM     18  C   UNL     1       4.279   2.760   1.029  0.00  0.00    +0.011 A 
ATOM     19  C   UNL     1       3.609   2.225  -0.020  0.00  0.00    -0.003 A 
ATOM     20  S   UNL     1       4.471   2.938  -1.411  0.00  0.00    -0.101 S 
ATOM     21  C   UNL     1       5.660   3.909  -0.500  0.00  0.00    +0.045 A 
ENDBRANCH  16  19
ENDBRANCH   1  16
TORSDOF 3
