REMARK  Name = ZINC12941670
REMARK  7 active torsions:
REMARK  status: ('A' for Active; 'I' for Inactive)
REMARK    1  A    between atoms: C_1  and  C_2
REMARK    2  A    between atoms: C_2  and  C_3
REMARK    3  A    between atoms: C_7  and  C_25
REMARK    4  A    between atoms: C_8  and  N_9
REMARK    5  A    between atoms: C_10  and  C_12
REMARK    6  A    between atoms: C_12  and  C_13
REMARK    7  A    between atoms: C_25  and  C_26
REMARK                            x       y       z     vdW  Elec       q    Type
REMARK                         _______ _______ _______ _____ _____    ______ ____
ROOT
ATOM      1  N   UNL     1      -0.756  -2.004   0.767  0.00  0.00    -0.285 N 
ATOM      2  C   UNL     1      -0.906  -3.228   1.311  0.00  0.00    +0.222 C 
ATOM      3  O   UNL     1      -1.739  -3.411   2.173  0.00  0.00    -0.275 OA
ATOM      4  H   UNL     1      -0.171  -1.881   0.003  0.00  0.00    +0.155 HD
ENDROOT
BRANCH   1  10
ATOM      5  C   UNL     1      -0.768   0.272   1.575  0.00  0.00    -0.026 A 
ATOM      6  C   UNL     1      -1.448   1.348   2.112  0.00  0.00    +0.007 A 
ATOM      7  C   UNL     1      -2.802   1.253   2.371  0.00  0.00    +0.020 A 
ATOM      8  C   UNL     1      -3.479   0.076   2.103  0.00  0.00    +0.046 A 
ATOM      9  C   UNL     1      -2.803  -1.006   1.571  0.00  0.00    -0.008 A 
ATOM     10  C   UNL     1      -1.444  -0.910   1.306  0.00  0.00    +0.041 A 
ATOM     11 CL   UNL     1      -5.179  -0.043   2.437  0.00  0.00    -0.083 Cl
BRANCH   5  13
ATOM     12  C   UNL     1       0.915   0.767  -0.177  0.00  0.00    +0.009 C 
ATOM     13  C   UNL     1       0.708   0.380   1.288  0.00  0.00    +0.033 C 
ENDBRANCH   5  13
BRANCH   9  14
ATOM     14  C   UNL     1      -3.541  -2.288   1.280  0.00  0.00    +0.035 C 
ATOM     15  C   UNL     1      -4.304  -2.732   2.530  0.00  0.00    +0.009 C 
ENDBRANCH   9  14
ENDBRANCH   1  10
BRANCH   2  16
ATOM     16  C   UNL     1      -0.038  -4.370   0.847  0.00  0.00    +0.131 C 
BRANCH  16  17
ATOM     17  C   UNL     1      -0.404  -5.619   1.606  0.00  0.00    -0.034 A 
ATOM     18  C   UNL     1      -1.382  -6.465   1.113  0.00  0.00    +0.053 A 
ATOM     19  C   UNL     1      -1.715  -7.611   1.813  0.00  0.00    +0.164 A 
ATOM     20  C   UNL     1      -1.071  -7.910   3.005  0.00  0.00    +0.180 A 
ATOM     21  C   UNL     1      -0.092  -7.062   3.497  0.00  0.00    +0.086 A 
ATOM     22  C   UNL     1       0.243  -5.919   2.790  0.00  0.00    +0.028 A 
ATOM     23 CL   UNL     1       0.716  -7.434   4.987  0.00  0.00    -0.080 Cl
ATOM     24  O   UNL     1      -1.407  -9.043   3.688  0.00  0.00    -0.487 OA
ATOM     25  C   UNL     1      -1.051 -10.278   3.063  0.00  0.00    +0.232 C 
ATOM     26  C   UNL     1      -2.113 -10.701   2.060  0.00  0.00    +0.082 C 
ATOM     27  C   UNL     1      -2.225  -9.733   0.893  0.00  0.00    +0.232 C 
ATOM     28  O   UNL     1      -2.678  -8.453   1.337  0.00  0.00    -0.488 OA
ENDBRANCH  16  17
ENDBRANCH   2  16
TORSDOF 5
