REMARK  Name = ZINC57765815
REMARK  7 active torsions:
REMARK  status: ('A' for Active; 'I' for Inactive)
REMARK    1  A    between atoms: C_1  and  C_2
REMARK    2  A    between atoms: C_3  and  N_21
REMARK    3  A    between atoms: C_5  and  S_9
REMARK    4  A    between atoms: S_9  and  N_12
REMARK    5  A    between atoms: N_12  and  C_13
REMARK    6  A    between atoms: N_12  and  C_14
REMARK    7  A    between atoms: C_17  and  C_20
REMARK                            x       y       z     vdW  Elec       q    Type
REMARK                         _______ _______ _______ _____ _____    ______ ____
ROOT
ATOM      1  S   UNL     1       0.175  -5.111  -0.120  0.00  0.00    +0.061 S 
ATOM      2  O   UNL     1      -0.152  -5.658   1.150  0.00  0.00    -0.153 OA
ATOM      3  O   UNL     1      -0.179  -5.750  -1.339  0.00  0.00    -0.153 OA
ENDROOT
BRANCH   1   8
ATOM      4  C   UNL     1      -2.256   0.409  -0.299  0.00  0.00    +0.047 C 
ATOM      5  C   UNL     1      -1.649  -0.969  -0.254  0.00  0.00    -0.002 A 
ATOM      6  C   UNL     1      -1.382  -1.646  -1.430  0.00  0.00    +0.132 A 
ATOM      7  C   UNL     1      -0.825  -2.910  -1.388  0.00  0.00    +0.061 A 
ATOM      8  C   UNL     1      -0.534  -3.499  -0.171  0.00  0.00    +0.109 A 
ATOM      9  C   UNL     1      -0.799  -2.823   1.004  0.00  0.00    +0.049 A 
ATOM     10  C   UNL     1      -1.352  -1.555   0.964  0.00  0.00    +0.048 A 
ATOM     11 CL   UNL     1      -1.679  -0.702   2.440  0.00  0.00    -0.083 Cl
BRANCH   6  12
ATOM     12  N   UNL     1      -1.694  -1.017  -2.733  0.00  0.00    +0.057 N 
ATOM     13  O   UNL     1      -2.124  -1.689  -3.641  0.00  0.00    -0.126 OA
ATOM     14  O   UNL     1      -1.519   0.169  -2.889  0.00  0.00    -0.126 OA
ENDBRANCH   6  12
ENDBRANCH   1   8
BRANCH   1  15
ATOM     15  N   UNL     1       1.820  -4.923  -0.144  0.00  0.00    -0.177 NA
ATOM     16  C   UNL     1       2.562  -4.794   1.112  0.00  0.00    +0.132 C 
BRANCH  15  17
ATOM     17  C   UNL     1       2.534  -4.887  -1.423  0.00  0.00    +0.080 C 
ATOM     18  C   UNL     1       2.285  -6.191  -2.184  0.00  0.00    +0.021 C 
ATOM     19  C   UNL     1       2.789  -7.371  -1.351  0.00  0.00    +0.005 C 
ATOM     20  C   UNL     1       4.289  -7.210  -1.094  0.00  0.00    -0.014 C 
ATOM     21  C   UNL     1       4.538  -5.906  -0.333  0.00  0.00    +0.005 C 
ATOM     22  C   UNL     1       4.034  -4.726  -1.166  0.00  0.00    +0.021 C 
ATOM     23  C   UNL     1       4.793  -8.390  -0.261  0.00  0.00    +0.007 C 
ENDBRANCH  15  17
ENDBRANCH   1  15
TORSDOF 4
