REMARK  Name = ZINC34969138
REMARK  12 active torsions:
REMARK  status: ('A' for Active; 'I' for Inactive)
REMARK    1  A    between atoms: C_1  and  C_2
REMARK    2  A    between atoms: C_2  and  C_3
REMARK    3  A    between atoms: C_2  and  C_4
REMARK    4  A    between atoms: C_4  and  C_6
REMARK    5  A    between atoms: C_4  and  N_22
REMARK    6  A    between atoms: N_8  and  C_9
REMARK    7  A    between atoms: C_14  and  C_15
REMARK    8  A    between atoms: C_15  and  C_16
REMARK    9  A    between atoms: N_25  and  C_26
REMARK   10  A    between atoms: C_26  and  C_27
REMARK   11  A    between atoms: C_26  and  C_28
REMARK   12  A    between atoms: C_26  and  C_29
REMARK                            x       y       z     vdW  Elec       q    Type
REMARK                         _______ _______ _______ _____ _____    ______ ____
ROOT
ATOM      1  C   UNL     1       1.984  -0.067   1.840  0.00  0.00    +0.238 C 
ATOM      2  O   UNL     1       2.849  -0.840   2.195  0.00  0.00    -0.273 OA
ATOM      3  N   UNL     1       2.292   1.221   1.589  0.00  0.00    -0.284 N 
ATOM      4  H   UNL     1       1.611   1.827   1.258  0.00  0.00    +0.155 HD
ENDROOT
BRANCH   3   5
ATOM      5  C   UNL     1       3.594   1.684   1.806  0.00  0.00    +0.037 A 
ATOM      6  C   UNL     1       4.671   0.815   1.685  0.00  0.00    +0.023 A 
ATOM      7  C   UNL     1       5.955   1.275   1.900  0.00  0.00    +0.002 A 
ATOM      8  C   UNL     1       6.170   2.599   2.236  0.00  0.00    +0.000 A 
ATOM      9  C   UNL     1       5.100   3.466   2.358  0.00  0.00    +0.006 A 
ATOM     10  C   UNL     1       3.813   3.014   2.138  0.00  0.00    -0.022 A 
BRANCH  10  11
ATOM     11  C   UNL     1       2.648   3.962   2.264  0.00  0.00    +0.072 C 
BRANCH  11  12
ATOM     12  C   UNL     1       2.068   3.862   3.651  0.00  0.00    -0.043 A 
ATOM     13  C   UNL     1       1.063   2.950   3.916  0.00  0.00    +0.004 A 
ATOM     14  C   UNL     1       0.530   2.859   5.188  0.00  0.00    +0.000 A 
ATOM     15  C   UNL     1       1.002   3.680   6.195  0.00  0.00    +0.000 A 
ATOM     16  C   UNL     1       2.008   4.591   5.931  0.00  0.00    +0.000 A 
ATOM     17  C   UNL     1       2.543   4.679   4.660  0.00  0.00    +0.004 A 
ENDBRANCH  11  12
ENDBRANCH  10  11
ENDBRANCH   3   5
BRANCH   1  18
ATOM     18  C   UNL     1       0.564  -0.547   1.680  0.00  0.00    +0.163 C 
BRANCH  18  19
ATOM     19  N   UNL     1       0.348  -1.724   2.527  0.00  0.00    -0.288 N 
ATOM     20  C   UNL     1      -0.894  -2.029   2.952  0.00  0.00    +0.301 C 
ATOM     21  O   UNL     1      -1.835  -1.328   2.633  0.00  0.00    -0.253 OA
ATOM     22  N   UNL     1      -1.092  -3.111   3.731  0.00  0.00    -0.295 N 
ATOM     23  H   UNL     1       1.099  -2.283   2.781  0.00  0.00    +0.151 HD
ATOM     24  H   UNL     1      -0.341  -3.670   3.985  0.00  0.00    +0.151 HD
BRANCH  22  25
ATOM     25  C   UNL     1      -2.442  -3.443   4.193  0.00  0.00    +0.028 C 
ATOM     26  C   UNL     1      -3.350  -3.685   2.985  0.00  0.00    +0.031 C 
ATOM     27  C   UNL     1      -2.390  -4.707   5.053  0.00  0.00    +0.031 C 
ATOM     28  C   UNL     1      -2.996  -2.284   5.023  0.00  0.00    +0.031 C 
ENDBRANCH  22  25
ENDBRANCH  18  19
BRANCH  18  30
ATOM     29  C   UNL     1       1.242  -2.066  -0.184  0.00  0.00    +0.009 C 
ATOM     30  C   UNL     1       0.313  -0.918   0.217  0.00  0.00    +0.012 C 
ATOM     31  C   UNL     1      -1.143  -1.357   0.045  0.00  0.00    +0.009 C 
ENDBRANCH  18  30
ENDBRANCH   1  18
TORSDOF 7
