REMARK  Name = ZINC67578730
REMARK  7 active torsions:
REMARK  status: ('A' for Active; 'I' for Inactive)
REMARK    1  A    between atoms: C_1  and  C_2
REMARK    2  A    between atoms: C_2  and  C_4
REMARK    3  A    between atoms: C_2  and  S_26
REMARK    4  A    between atoms: C_8  and  N_10
REMARK    5  A    between atoms: N_13  and  C_14
REMARK    6  A    between atoms: C_14  and  C_15
REMARK    7  A    between atoms: S_26  and  C_27
REMARK                            x       y       z     vdW  Elec       q    Type
REMARK                         _______ _______ _______ _____ _____    ______ ____
ROOT
ATOM      1  N   UNL     1       0.009  -2.535  -4.213  0.00  0.00    -0.269 N 
ATOM      2  C   UNL     1       0.608  -2.885  -5.369  0.00  0.00    +0.304 C 
ATOM      3  O   UNL     1       1.768  -2.579  -5.569  0.00  0.00    -0.252 OA
ATOM      4  N   UNL     1      -0.079  -3.574  -6.301  0.00  0.00    -0.291 N 
ATOM      5  H   UNL     1      -0.889  -2.844  -4.019  0.00  0.00    +0.156 HD
ATOM      6  H   UNL     1      -1.004  -3.818  -6.141  0.00  0.00    +0.151 HD
ENDROOT
BRANCH   1  11
ATOM      7  C   UNL     1       2.234   0.044  -2.828  0.00  0.00    -0.033 A 
ATOM      8  C   UNL     1       2.019  -0.125  -1.472  0.00  0.00    +0.005 A 
ATOM      9  C   UNL     1       1.139  -1.092  -1.025  0.00  0.00    +0.002 A 
ATOM     10  C   UNL     1       0.471  -1.893  -1.931  0.00  0.00    +0.023 A 
ATOM     11  C   UNL     1       0.684  -1.726  -3.292  0.00  0.00    +0.035 A 
ATOM     12  C   UNL     1       1.565  -0.749  -3.739  0.00  0.00    +0.028 A 
BRANCH   7  14
ATOM     13  C   UNL     1       4.591   0.813  -2.754  0.00  0.00    +0.024 C 
ATOM     14  C   UNL     1       3.195   1.100  -3.312  0.00  0.00    +0.073 C 
BRANCH  14  15
ATOM     15  S   UNL     1       2.639   2.730  -2.743  0.00  0.00    -0.156 S 
ATOM     16  C   UNL     1       3.798   3.886  -3.525  0.00  0.00    +0.085 C 
ENDBRANCH  14  15
ENDBRANCH   7  14
ENDBRANCH   1  11
BRANCH   4  17
ATOM     17  C   UNL     1       0.572  -3.955  -7.558  0.00  0.00    +0.202 C 
BRANCH  17  18
ATOM     18  C   UNL     1      -0.405  -4.711  -8.421  0.00  0.00    +0.237 C 
ATOM     19  O   UNL     1      -1.534  -4.912  -8.025  0.00  0.00    -0.274 OA
ATOM     20  N   UNL     1      -0.024  -5.164  -9.632  0.00  0.00    -0.270 N 
ATOM     21  C   UNL     1      -0.883  -5.904 -10.560  0.00  0.00    +0.118 C 
ATOM     22  C   UNL     1      -0.000  -6.191 -11.785  0.00  0.00    +0.056 C 
ATOM     23  C   UNL     1       1.336  -5.571 -11.444  0.00  0.00    -0.024 A 
ATOM     24  C   UNL     1       1.246  -4.991 -10.189  0.00  0.00    +0.040 A 
ATOM     25  C   UNL     1       2.365  -4.346  -9.659  0.00  0.00    +0.024 A 
ATOM     26  C   UNL     1       3.539  -4.286 -10.379  0.00  0.00    +0.002 A 
ATOM     27  C   UNL     1       3.618  -4.864 -11.632  0.00  0.00    +0.000 A 
ATOM     28  C   UNL     1       2.516  -5.512 -12.161  0.00  0.00    +0.005 A 
ENDBRANCH  17  18
ENDBRANCH   4  17
TORSDOF 5
