REMARK  Name = ZINC63426793
REMARK  8 active torsions:
REMARK  status: ('A' for Active; 'I' for Inactive)
REMARK    1  A    between atoms: C_1  and  N_2
REMARK    2  A    between atoms: N_12  and  C_24
REMARK    3  A    between atoms: N_15  and  C_16
REMARK    4  A    between atoms: N_15  and  C_17
REMARK    5  A    between atoms: C_17  and  C_18
REMARK    6  A    between atoms: C_24  and  C_25
REMARK    7  A    between atoms: C_25  and  S_26
REMARK    8  A    between atoms: S_26  and  C_27
REMARK                            x       y       z     vdW  Elec       q    Type
REMARK                         _______ _______ _______ _____ _____    ______ ____
ROOT
ATOM      1  C   UNL     1      -1.197   1.730  -0.549  0.00  0.00    +0.136 C 
ATOM      2  N   UNL     1      -0.842   0.342  -0.240  0.00  0.00    -0.264 N 
ATOM      3  C   UNL     1      -1.779  -0.731  -0.546  0.00  0.00    +0.203 C 
ATOM      4  C   UNL     1      -1.025  -1.922  -1.190  0.00  0.00    +0.205 C 
ATOM      5  C   UNL     1       0.329  -2.072  -0.551  0.00  0.00    +0.264 C 
ATOM      6  N   UNL     1       0.921  -1.104   0.127  0.00  0.00    -0.126 NA
ATOM      7  C   UNL     1       0.363   0.061   0.325  0.00  0.00    +0.330 C 
ATOM      8  O   UNL     1       0.995   0.992   1.062  0.00  0.00    -0.250 OA
ATOM      9  O   UNL     1       0.906  -3.136  -0.663  0.00  0.00    -0.271 OA
ATOM     10  N   UNL     1      -1.889  -3.036  -0.708  0.00  0.00    -0.289 N 
ATOM     11  C   UNL     1      -2.340  -2.633   0.533  0.00  0.00    +0.161 C 
ATOM     12  N   UNL     1      -2.327  -1.328   0.683  0.00  0.00    -0.340 N 
ATOM     13  N   UNL     1      -2.769  -3.504   1.506  0.00  0.00    -0.303 N 
ATOM     14  C   UNL     1      -3.507  -4.714   1.133  0.00  0.00    +0.132 C 
ATOM     15  H   UNL     1      -2.620  -0.838   1.467  0.00  0.00    +0.164 HD
ENDROOT
BRANCH  13  16
ATOM     16  C   UNL     1      -2.488  -3.223   2.916  0.00  0.00    +0.142 C 
BRANCH  16  17
ATOM     17  C   UNL     1      -3.679  -2.542   3.539  0.00  0.00    -0.030 A 
ATOM     18  C   UNL     1      -3.736  -1.162   3.595  0.00  0.00    +0.005 A 
ATOM     19  C   UNL     1      -4.829  -0.538   4.166  0.00  0.00    +0.000 A 
ATOM     20  C   UNL     1      -5.865  -1.293   4.682  0.00  0.00    +0.000 A 
ATOM     21  C   UNL     1      -5.809  -2.673   4.626  0.00  0.00    +0.000 A 
ATOM     22  C   UNL     1      -4.718  -3.298   4.050  0.00  0.00    +0.005 A 
ENDBRANCH  16  17
ENDBRANCH  13  16
BRANCH  10  23
ATOM     23  C   UNL     1      -2.196  -4.289  -1.402  0.00  0.00    +0.119 C 
BRANCH  23  24
ATOM     24  C   UNL     1      -1.128  -5.332  -1.066  0.00  0.00    +0.092 C 
BRANCH  24  25
ATOM     25  S   UNL     1      -1.523  -6.892  -1.903  0.00  0.00    -0.113 S 
BRANCH  25  26
ATOM     26  C   UNL     1      -0.180  -8.008  -1.409  0.00  0.00    +0.235 C 
ATOM     27  N   UNL     1      -0.117  -8.102   0.055  0.00  0.00    -0.355 N 
ATOM     28  C   UNL     1       1.055  -7.672   0.423  0.00  0.00    +0.061 A 
ATOM     29  C   UNL     1       1.698  -7.527   1.737  0.00  0.00    +0.027 A 
ATOM     30  C   UNL     1       2.953  -7.041   1.813  0.00  0.00    +0.002 A 
ATOM     31  C   UNL     1       3.688  -6.660   0.676  0.00  0.00    +0.002 A 
ATOM     32  C   UNL     1       3.194  -6.752  -0.574  0.00  0.00    +0.027 A 
ATOM     33  C   UNL     1       1.833  -7.268  -0.779  0.00  0.00    +0.061 A 
ATOM     34  N   UNL     1       1.112  -7.464  -1.845  0.00  0.00    -0.355 N 
ATOM     35  H   UNL     1      -0.820  -8.426   0.640  0.00  0.00    +0.162 HD
ATOM     36  H   UNL     1       1.380  -7.285  -2.760  0.00  0.00    +0.162 HD
ENDBRANCH  25  26
ENDBRANCH  24  25
ENDBRANCH  23  24
ENDBRANCH  10  23
TORSDOF 6
