REMARK  Name = ZINC63907337
REMARK  6 active torsions:
REMARK  status: ('A' for Active; 'I' for Inactive)
REMARK    1  A    between atoms: C_1  and  C_2
REMARK    2  A    between atoms: C_8  and  N_10
REMARK    3  A    between atoms: C_11  and  C_13
REMARK    4  A    between atoms: C_13  and  N_14
REMARK    5  A    between atoms: C_17  and  C_22
REMARK    6  A    between atoms: C_22  and  C_23
REMARK                            x       y       z     vdW  Elec       q    Type
REMARK                         _______ _______ _______ _____ _____    ______ ____
ROOT
ATOM      1  N   UNL     1       0.984   0.635   5.955  0.00  0.00    -0.216 N 
ATOM      2  C   UNL     1       1.227  -0.390   6.795  0.00  0.00    +0.244 C 
ATOM      3  O   UNL     1       0.719  -1.490   6.774  0.00  0.00    -0.273 OA
ATOM      4  C   UNL     1       2.268   0.119   7.772  0.00  0.00    +0.165 C 
ATOM      5  N   UNL     1       2.514   1.502   7.327  0.00  0.00    -0.287 N 
ATOM      6  C   UNL     1       1.723   1.708   6.258  0.00  0.00    +0.310 C 
ATOM      7  O   UNL     1       1.681   2.754   5.640  0.00  0.00    -0.252 OA
ATOM      8  H   UNL     1       3.129   2.138   7.724  0.00  0.00    +0.151 HD
ENDROOT
BRANCH   1   9
ATOM      9  C   UNL     1       0.033   0.579   4.842  0.00  0.00    +0.213 C 
BRANCH   9  11
ATOM     10  N   UNL     1       0.056  -0.038   2.447  0.00  0.00    -0.311 N 
ATOM     11  C   UNL     1       0.738   0.093   3.602  0.00  0.00    +0.231 C 
ATOM     12  O   UNL     1       1.919  -0.179   3.644  0.00  0.00    -0.274 OA
ATOM     13  H   UNL     1      -0.888   0.180   2.413  0.00  0.00    +0.149 HD
BRANCH  10  20
ATOM     14  C   UNL     1      -0.019   1.526   0.010  0.00  0.00    +0.009 C 
ATOM     15  C   UNL     1       0.002  -0.004   0.002  0.00  0.00    +0.006 C 
ATOM     16  C   UNL     1      -1.433  -0.534   0.013  0.00  0.00    +0.005 C 
ATOM     17  C   UNL     1      -1.413  -2.063   0.004  0.00  0.00    +0.000 C 
ATOM     18  C   UNL     1      -0.673  -2.570   1.244  0.00  0.00    +0.002 C 
ATOM     19  C   UNL     1       0.763  -2.041   1.233  0.00  0.00    +0.022 C 
ATOM     20  C   UNL     1       0.742  -0.511   1.242  0.00  0.00    +0.076 C 
ENDBRANCH  10  20
ENDBRANCH   9  11
ENDBRANCH   1   9
BRANCH   4  21
ATOM     21  C   UNL     1       1.721   0.100   9.201  0.00  0.00    +0.065 C 
BRANCH  21  22
ATOM     22  C   UNL     1       2.813   0.493  10.162  0.00  0.00    -0.039 C 
ATOM     23  C   UNL     1       3.052   1.727  10.661  0.00  0.00    -0.001 A 
ATOM     24  C   UNL     1       2.392   3.024  10.465  0.00  0.00    +0.010 A 
ATOM     25  C   UNL     1       2.871   4.109  11.116  0.00  0.00    +0.001 A 
ATOM     26  C   UNL     1       3.979   4.026  11.970  0.00  0.00    +0.002 A 
ATOM     27  C   UNL     1       4.637   2.870  12.201  0.00  0.00    +0.026 A 
ATOM     28  C   UNL     1       4.219   1.667  11.569  0.00  0.00    +0.043 A 
ATOM     29  N   UNL     1       4.685   0.442  11.629  0.00  0.00    -0.380 N 
ATOM     30  C   UNL     1       3.860  -0.414  10.770  0.00  0.00    +0.144 C 
ATOM     31  H   UNL     1       5.445   0.151  12.156  0.00  0.00    +0.160 HD
ENDBRANCH  21  22
ENDBRANCH   4  21
TORSDOF 5
