REMARK  Name = ZINC11976219
REMARK  10 active torsions:
REMARK  status: ('A' for Active; 'I' for Inactive)
REMARK    1  A    between atoms: C_1  and  C_2
REMARK    2  A    between atoms: C_2  and  C_3
REMARK    3  A    between atoms: C_3  and  C_4
REMARK    4  A    between atoms: C_4  and  C_19
REMARK    5  A    between atoms: N_7  and  C_11
REMARK    6  A    between atoms: C_11  and  C_12
REMARK    7  A    between atoms: C_12  and  C_13
REMARK    8  A    between atoms: C_18  and  N_72
REMARK    9  A    between atoms: C_25  and  C_27
REMARK   10  A    between atoms: C_28  and  C_29
REMARK                            x       y       z     vdW  Elec       q    Type
REMARK                         _______ _______ _______ _____ _____    ______ ____
ROOT
ATOM      1  C   UNL     1       1.437   1.621   0.062  0.00  0.00    +0.115 C 
ATOM      2  C   UNL     1       2.107   1.275  -1.253  0.00  0.00    +0.247 C 
ATOM      3  O   UNL     1       2.300   0.168  -1.708  0.00  0.00    -0.273 OA
ATOM      4  N   UNL     1       2.446   2.455  -1.810  0.00  0.00    -0.224 N 
ATOM      5  C   UNL     1       2.087   3.487  -1.038  0.00  0.00    +0.309 C 
ATOM      6  O   UNL     1       2.286   4.650  -1.328  0.00  0.00    -0.252 OA
ATOM      7  N   UNL     1       1.479   3.093   0.097  0.00  0.00    -0.285 N 
ATOM      8  H   UNL     1       1.136   3.666   0.799  0.00  0.00    +0.151 HD
ENDROOT
BRANCH   1   9
ATOM      9  C   UNL     1      -0.011   1.124   0.075  0.00  0.00    +0.024 C 
ATOM     10  C   UNL     1      -0.700   1.595   1.357  0.00  0.00    +0.025 C 
ATOM     11  C   UNL     1      -2.138   1.067   1.383  0.00  0.00    +0.108 C 
ATOM     12  N   UNL     1      -2.815   1.480   0.147  0.00  0.00    -0.298 N 
ATOM     13  C   UNL     1      -2.191   1.157  -1.143  0.00  0.00    +0.108 C 
ATOM     14  C   UNL     1      -0.753   1.684  -1.141  0.00  0.00    +0.025 C 
ATOM     15  C   UNL     1      -3.988   2.143   0.195  0.00  0.00    +0.239 C 
ATOM     16  O   UNL     1      -4.494   2.560  -0.830  0.00  0.00    -0.271 OA
BRANCH  15  17
ATOM     17  C   UNL     1      -4.653   2.361   1.480  0.00  0.00    +0.068 C 
ATOM     18  C   UNL     1      -5.872   2.937   1.520  0.00  0.00    +0.013 C 
BRANCH  18  19
ATOM     19  C   UNL     1      -6.540   3.156   2.812  0.00  0.00    -0.025 A 
ATOM     20  C   UNL     1      -5.917   2.763   4.001  0.00  0.00    +0.011 A 
ATOM     21  C   UNL     1      -6.546   2.976   5.208  0.00  0.00    +0.039 A 
ATOM     22  C   UNL     1      -7.800   3.568   5.245  0.00  0.00    +0.123 A 
ATOM     23  C   UNL     1      -8.425   3.955   4.070  0.00  0.00    +0.039 A 
ATOM     24  C   UNL     1      -7.805   3.753   2.856  0.00  0.00    +0.011 A 
ATOM     25  F   UNL     1      -8.414   3.769   6.432  0.00  0.00    -0.205 F 
ENDBRANCH  18  19
ENDBRANCH  15  17
ENDBRANCH   1   9
BRANCH   1  26
ATOM     26  C   UNL     1       2.217   1.032   1.239  0.00  0.00    +0.035 C 
BRANCH  26  28
ATOM     27  C   UNL     1       4.400   1.050   2.453  0.00  0.00    +0.004 C 
ATOM     28  C   UNL     1       3.620   1.639   1.276  0.00  0.00    -0.001 C 
ENDBRANCH  26  28
ENDBRANCH   1  26
BRANCH   4  29
ATOM     29  C   UNL     1       3.126   2.591  -3.100  0.00  0.00    +0.116 C 
BRANCH  29  30
ATOM     30  C   UNL     1       4.640   2.585  -2.883  0.00  0.00    +0.004 C 
BRANCH  30  31
ATOM     31  C   UNL     1       5.350   2.606  -4.238  0.00  0.00    -0.068 C 
ATOM     32  C   UNL     1       5.052   1.301  -5.007  0.00  0.00    -0.017 C 
ATOM     33  C   UNL     1       6.406   0.985  -5.696  0.00  0.00    -0.020 C 
ATOM     34  C   UNL     1       7.420   1.461  -4.626  0.00  0.00    -0.079 C 
ATOM     35  C   UNL     1       7.141   2.791  -2.613  0.00  0.00    -0.096 C 
ATOM     36  N   UNL     1       6.809   2.678  -4.057  0.00  0.00    +0.380 N 
ATOM     37  H   UNL     1       7.171   3.503  -4.550  0.00  0.00    -0.082 HD
ENDBRANCH  30  31
ENDBRANCH  29  30
ENDBRANCH   4  29
TORSDOF 8
