REMARK  Name = ZINC13643572
REMARK  6 active torsions:
REMARK  status: ('A' for Active; 'I' for Inactive)
REMARK    1  A    between atoms: C_1  and  C_2
REMARK    2  A    between atoms: C_5  and  N_27
REMARK    3  A    between atoms: C_9  and  C_18
REMARK    4  A    between atoms: C_21  and  N_24
REMARK    5  A    between atoms: N_24  and  C_25
REMARK    6  A    between atoms: N_24  and  C_26
REMARK                            x       y       z     vdW  Elec       q    Type
REMARK                         _______ _______ _______ _____ _____    ______ ____
ROOT
ATOM      1  C   UNL     1      -1.342   1.988   0.292  0.00  0.00    +0.045 C 
ATOM      2  C   UNL     1      -0.024   1.279   0.113  0.00  0.00    -0.029 A 
ATOM      3  C   UNL     1       1.135   2.011  -0.038  0.00  0.00    +0.007 A 
ATOM      4  C   UNL     1       2.342   1.359  -0.210  0.00  0.00    +0.033 A 
ATOM      5  C   UNL     1       2.386  -0.020  -0.228  0.00  0.00    +0.132 A 
ATOM      6  C   UNL     1       1.224  -0.766  -0.074  0.00  0.00    +0.011 A 
ATOM      7  C   UNL     1       0.017  -0.115   0.095  0.00  0.00    +0.037 A 
ATOM      8  N   UNL     1      -1.184  -0.806   0.252  0.00  0.00    -0.336 N 
ATOM      9  C   UNL     1      -1.144  -2.112  -0.409  0.00  0.00    +0.105 C 
ATOM     10  C   UNL     1      -0.009  -2.947   0.163  0.00  0.00    +0.029 C 
ATOM     11  C   UNL     1       1.350  -2.267  -0.103  0.00  0.00    +0.051 C 
ATOM     12  C   UNL     1       2.189  -2.689   1.092  0.00  0.00    -0.023 C 
ATOM     13  C   UNL     1       1.421  -3.044   2.091  0.00  0.00    -0.030 C 
ATOM     14  C   UNL     1      -0.041  -2.910   1.711  0.00  0.00    +0.033 C 
ATOM     15  H   UNL     1      -1.964  -0.258  -0.079  0.00  0.00    +0.147 HD
ENDROOT
BRANCH   9  16
ATOM     16  C   UNL     1      -0.927  -1.919  -1.888  0.00  0.00    -0.027 A 
ATOM     17  C   UNL     1      -1.408  -0.783  -2.513  0.00  0.00    +0.007 A 
ATOM     18  C   UNL     1      -1.206  -0.600  -3.866  0.00  0.00    +0.023 A 
ATOM     19  C   UNL     1      -0.529  -1.564  -4.603  0.00  0.00    +0.029 A 
ATOM     20  C   UNL     1      -0.052  -2.706  -3.973  0.00  0.00    +0.023 A 
ATOM     21  C   UNL     1      -0.252  -2.880  -2.618  0.00  0.00    +0.007 A 
BRANCH  19  22
ATOM     22  N   UNL     1      -0.328  -1.384  -5.973  0.00  0.00    -0.336 N 
ATOM     23  C   UNL     1       0.492  -2.338  -6.724  0.00  0.00    +0.129 C 
ATOM     24  C   UNL     1      -0.938  -0.243  -6.660  0.00  0.00    +0.129 C 
ENDBRANCH  19  22
ENDBRANCH   9  16
BRANCH   5  25
ATOM     25  N   UNL     1       3.682  -0.711  -0.411  0.00  0.00    +0.057 N 
ATOM     26  O   UNL     1       4.689  -0.264   0.108  0.00  0.00    -0.126 OA
ATOM     27  O   UNL     1       3.741  -1.725  -1.083  0.00  0.00    -0.126 OA
ENDBRANCH   5  25
TORSDOF 3
