REMARK  Name = ZINC58355980
REMARK  6 active torsions:
REMARK  status: ('A' for Active; 'I' for Inactive)
REMARK    1  A    between atoms: C_3  and  S_18
REMARK    2  A    between atoms: C_6  and  N_7
REMARK    3  A    between atoms: C_8  and  C_10
REMARK    4  A    between atoms: C_10  and  N_11
REMARK    5  A    between atoms: N_14  and  C_15
REMARK    6  A    between atoms: S_18  and  C_19
REMARK                            x       y       z     vdW  Elec       q    Type
REMARK                         _______ _______ _______ _____ _____    ______ ____
ROOT
ATOM      1  N   UNL     1      -1.202  -0.721   0.010  0.00  0.00    -0.284 N 
ATOM      2  C   UNL     1      -1.187  -2.064  -0.099  0.00  0.00    +0.234 C 
ATOM      3  O   UNL     1      -0.131  -2.660  -0.113  0.00  0.00    -0.274 OA
ATOM      4  H   UNL     1      -2.046  -0.251   0.098  0.00  0.00    +0.155 HD
ENDROOT
BRANCH   1  10
ATOM      5  C   UNL     1       1.071  -0.456  -0.766  0.00  0.00    +0.024 A 
ATOM      6  C   UNL     1       2.256   0.251  -0.780  0.00  0.00    +0.017 A 
ATOM      7  C   UNL     1       2.381   1.414  -0.030  0.00  0.00    +0.016 A 
ATOM      8  C   UNL     1       1.311   1.866   0.733  0.00  0.00    +0.017 A 
ATOM      9  C   UNL     1       0.125   1.159   0.746  0.00  0.00    +0.024 A 
ATOM     10  C   UNL     1       0.002  -0.004  -0.004  0.00  0.00    +0.033 A 
BRANCH   7  11
ATOM     11  S   UNL     1       3.894   2.316  -0.047  0.00  0.00    -0.016 S 
BRANCH  11  12
ATOM     12  C   UNL     1       3.580   3.722   1.055  0.00  0.00    +0.448 C 
ATOM     13  F   UNL     1       3.261   3.250   2.333  0.00  0.00    -0.160 F 
ATOM     14  F   UNL     1       4.724   4.524   1.126  0.00  0.00    -0.160 F 
ATOM     15  F   UNL     1       2.512   4.476   0.556  0.00  0.00    -0.160 F 
ENDBRANCH  11  12
ENDBRANCH   7  11
ENDBRANCH   1  10
BRANCH   2  16
ATOM     16  C   UNL     1      -2.483  -2.826  -0.205  0.00  0.00    +0.202 C 
BRANCH  16  17
ATOM     17  N   UNL     1      -2.200  -4.259  -0.312  0.00  0.00    -0.291 N 
ATOM     18  C   UNL     1      -3.214  -5.141  -0.418  0.00  0.00    +0.300 C 
ATOM     19  O   UNL     1      -4.364  -4.746  -0.424  0.00  0.00    -0.253 OA
ATOM     20  N   UNL     1      -2.954  -6.459  -0.517  0.00  0.00    -0.297 N 
ATOM     21  H   UNL     1      -1.282  -4.574  -0.307  0.00  0.00    +0.151 HD
ATOM     22  H   UNL     1      -2.036  -6.774  -0.512  0.00  0.00    +0.151 HD
BRANCH  20  23
ATOM     23  C   UNL     1      -4.056  -7.417  -0.631  0.00  0.00    +0.075 C 
ATOM     24  C   UNL     1      -3.972  -8.694   0.207  0.00  0.00    +0.024 C 
ATOM     25  C   UNL     1      -3.759  -8.758  -1.307  0.00  0.00    +0.024 C 
ENDBRANCH  20  23
ENDBRANCH  16  17
ENDBRANCH   2  16
TORSDOF 6
