REMARK  Name = ZINC63775550
REMARK  4 active torsions:
REMARK  status: ('A' for Active; 'I' for Inactive)
REMARK    1  A    between atoms: C_7  and  C_10
REMARK    2  A    between atoms: C_10  and  C_11
REMARK    3  A    between atoms: C_10  and  C_20
REMARK    4  A    between atoms: C_10  and  O_24
REMARK                            x       y       z     vdW  Elec       q    Type
REMARK                         _______ _______ _______ _____ _____    ______ ____
ROOT
ATOM      1  C   UNL     1       0.691  -3.186  -0.024  0.00  0.00    +0.233 C 
ENDROOT
BRANCH   1   8
ATOM      2  C   UNL     1      -0.016   1.348   0.009  0.00  0.00    +0.001 A 
ATOM      3  C   UNL     1       1.166   2.101   0.002  0.00  0.00    +0.002 A 
ATOM      4  C   UNL     1       2.391   1.535  -0.013  0.00  0.00    +0.026 A 
ATOM      5  C   UNL     1       2.529   0.120  -0.022  0.00  0.00    +0.043 A 
ATOM      6  N   UNL     1       3.587  -0.654  -0.037  0.00  0.00    -0.380 N 
ATOM      7  C   UNL     1       3.143  -2.053  -0.041  0.00  0.00    +0.148 C 
ATOM      8  C   UNL     1       1.631  -2.008  -0.025  0.00  0.00    +0.005 C 
ATOM      9  C   UNL     1       1.295  -0.698  -0.014  0.00  0.00    +0.002 A 
ATOM     10  C   UNL     1       0.002  -0.004   0.002  0.00  0.00    +0.010 A 
ATOM     11  H   UNL     1       4.509  -0.353  -0.045  0.00  0.00    +0.160 HD
ENDBRANCH   1   8
BRANCH   1  12
ATOM     12  C   UNL     1       0.920  -4.014  -1.262  0.00  0.00    +0.124 A 
ATOM     13  N   UNL     1       2.014  -4.615  -1.628  0.00  0.00    -0.240 NA
ATOM     14  C   UNL     1       2.094  -5.332  -2.767  0.00  0.00    +0.079 A 
ATOM     15  C   UNL     1       3.182  -6.042  -3.316  0.00  0.00    +0.029 A 
ATOM     16  C   UNL     1       3.050  -6.709  -4.495  0.00  0.00    +0.002 A 
ATOM     17  C   UNL     1       1.851  -6.717  -5.196  0.00  0.00    +0.001 A 
ATOM     18  C   UNL     1       0.762  -6.033  -4.689  0.00  0.00    +0.017 A 
ATOM     19  C   UNL     1       0.885  -5.357  -3.500  0.00  0.00    +0.039 A 
ATOM     20  S   UNL     1      -0.184  -4.376  -2.480  0.00  0.00    -0.069 S 
ENDBRANCH   1  12
BRANCH   1  21
ATOM     21  C   UNL     1       0.947  -4.042   1.218  0.00  0.00    +0.428 C 
ATOM     22  F   UNL     1       0.734  -3.273   2.367  0.00  0.00    -0.167 F 
ATOM     23  F   UNL     1       0.074  -5.135   1.219  0.00  0.00    -0.167 F 
ATOM     24  F   UNL     1       2.269  -4.501   1.202  0.00  0.00    -0.167 F 
ENDBRANCH   1  21
BRANCH   1  25
ATOM     25  O   UNL     1      -0.659  -2.716  -0.008  0.00  0.00    -0.370 OA
ATOM     26  H   UNL     1      -0.893  -2.165  -0.767  0.00  0.00    +0.211 HD
ENDBRANCH   1  25
TORSDOF 4
