REMARK  Name = ZINC00514023
REMARK  3 active torsions:
REMARK  status: ('A' for Active; 'I' for Inactive)
REMARK    1  A    between atoms: C_3  and  C_9
REMARK    2  A    between atoms: N_11  and  C_12
REMARK    3  A    between atoms: C_13  and  C_20
REMARK                            x       y       z     vdW  Elec       q    Type
REMARK                         _______ _______ _______ _____ _____    ______ ____
ROOT
ATOM      1  C   UNL     1      -0.014   1.212   0.009  0.00  0.00    +0.250 C 
ATOM      2  O   UNL     1       0.002  -0.004   0.002  0.00  0.00    -0.270 OA
ATOM      3  N   UNL     1       1.143   1.901   0.001  0.00  0.00    -0.275 N 
ATOM      4  H   UNL     1       1.130   2.871   0.007  0.00  0.00    +0.156 HD
ENDROOT
BRANCH   1   7
ATOM      5  C   UNL     1      -2.532   3.996   0.036  0.00  0.00    +0.021 A 
ATOM      6  C   UNL     1      -1.325   3.329   0.026  0.00  0.00    +0.016 A 
ATOM      7  C   UNL     1      -1.303   1.933   0.019  0.00  0.00    +0.055 A 
ATOM      8  C   UNL     1      -2.506   1.220   0.015  0.00  0.00    +0.054 A 
ATOM      9  C   UNL     1      -3.707   1.901   0.030  0.00  0.00    +0.040 A 
ATOM     10  C   UNL     1      -3.721   3.285   0.038  0.00  0.00    +0.042 A 
ATOM     11 CL   UNL     1      -5.235   4.134   0.050  0.00  0.00    -0.083 Cl
ATOM     12 CL   UNL     1      -2.489  -0.516  -0.002  0.00  0.00    -0.083 Cl
ENDBRANCH   1   7
BRANCH   3  13
ATOM     13  C   UNL     1       2.354   1.224  -0.014  0.00  0.00    +0.090 A 
ATOM     14  C   UNL     1       3.634   1.751  -0.023  0.00  0.00    +0.084 A 
ATOM     15  C   UNL     1       4.753   0.810  -0.038  0.00  0.00    -0.018 A 
ATOM     16  C   UNL     1       4.406  -0.490  -0.044  0.00  0.00    -0.004 A 
ATOM     17  S   UNL     1       2.630  -0.484  -0.018  0.00  0.00    -0.077 S 
ATOM     18  C   UNL     1       5.609  -1.394  -0.063  0.00  0.00    +0.043 C 
ATOM     19  C   UNL     1       6.775  -0.482  -0.504  0.00  0.00    +0.010 C 
ATOM     20  C   UNL     1       6.279   0.905  -0.047  0.00  0.00    +0.037 C 
BRANCH  14  21
ATOM     21  C   UNL     1       3.853   3.166  -0.019  0.00  0.00    +0.102 C 
ATOM     22  N   UNL     1       4.028   4.288  -0.015  0.00  0.00    -0.191 NA
ENDBRANCH  14  21
ENDBRANCH   3  13
TORSDOF 3
