REMARK  Name = ZINC35701868
REMARK  12 active torsions:
REMARK  status: ('A' for Active; 'I' for Inactive)
REMARK    1  A    between atoms: C_1  and  C_2
REMARK    2  A    between atoms: C_3  and  C_33
REMARK    3  A    between atoms: C_4  and  C_23
REMARK    4  A    between atoms: C_7  and  C_12
REMARK    5  A    between atoms: C_13  and  N_15
REMARK    6  A    between atoms: N_15  and  C_16
REMARK    7  A    between atoms: C_16  and  C_17
REMARK    8  A    between atoms: C_26  and  C_29
REMARK    9  A    between atoms: C_33  and  O_35
REMARK   10  A    between atoms: O_35  and  C_36
REMARK   11  A    between atoms: C_36  and  C_37
REMARK   12  A    between atoms: C_36  and  C_38
REMARK                            x       y       z     vdW  Elec       q    Type
REMARK                         _______ _______ _______ _____ _____    ______ ____
ROOT
ATOM      1  C   UNL     1       0.328   1.170   0.886  0.00  0.00    +0.066 C 
ATOM      2  C   UNL     1       0.259  -0.286   0.505  0.00  0.00    +0.053 C 
ATOM      3  C   UNL     1      -0.967  -0.922   0.444  0.00  0.00    +0.082 C 
ATOM      4  C   UNL     1      -0.984  -2.384   0.056  0.00  0.00    +0.150 C 
ATOM      5  N   UNL     1       0.328  -3.024  -0.230  0.00  0.00    -0.267 N 
ATOM      6  C   UNL     1       0.550  -4.335  -0.599  0.00  0.00    +0.048 C 
ATOM      7  C   UNL     1       1.828  -4.718  -0.814  0.00  0.00    +0.072 C 
ATOM      8  S   UNL     1       2.724  -3.212  -0.492  0.00  0.00    -0.060 S 
ATOM      9  C   UNL     1       1.426  -2.218  -0.112  0.00  0.00    +0.166 C 
ATOM     10  N   UNL     1       1.371  -0.946   0.226  0.00  0.00    -0.230 NA
ENDROOT
BRANCH   4  11
ATOM     11  C   UNL     1      -1.640  -3.153   1.174  0.00  0.00    -0.022 A 
ATOM     12  C   UNL     1      -0.957  -3.372   2.356  0.00  0.00    +0.006 A 
ATOM     13  C   UNL     1      -1.559  -4.077   3.381  0.00  0.00    +0.013 A 
ATOM     14  C   UNL     1      -2.843  -4.563   3.225  0.00  0.00    +0.055 A 
ATOM     15  C   UNL     1      -3.527  -4.343   2.044  0.00  0.00    +0.013 A 
ATOM     16  C   UNL     1      -2.926  -3.634   1.020  0.00  0.00    +0.006 A 
BRANCH  14  17
ATOM     17  C   UNL     1      -3.499  -5.332   4.343  0.00  0.00    +0.417 C 
ATOM     18  F   UNL     1      -4.187  -4.446   5.179  0.00  0.00    -0.166 F 
ATOM     19  F   UNL     1      -4.399  -6.259   3.805  0.00  0.00    -0.166 F 
ATOM     20  F   UNL     1      -2.521  -6.006   5.081  0.00  0.00    -0.166 F 
ENDBRANCH  14  17
ENDBRANCH   4  11
BRANCH   6  21
ATOM     21  C   UNL     1      -0.564  -5.282  -0.752  0.00  0.00    +0.091 C 
ATOM     22  C   UNL     1      -0.314  -6.585  -0.986  0.00  0.00    +0.239 C 
ATOM     23  O   UNL     1       0.961  -7.046  -0.957  0.00  0.00    -0.271 OA
BRANCH  22  24
ATOM     24  N   UNL     1      -1.358  -7.453  -1.256  0.00  0.00    -0.309 N 
ATOM     25  H   UNL     1      -2.275  -7.140  -1.204  0.00  0.00    +0.149 HD
BRANCH  24  26
ATOM     26  C   UNL     1      -1.079  -8.844  -1.620  0.00  0.00    +0.136 C 
BRANCH  26  27
ATOM     27  C   UNL     1      -2.387  -9.548  -1.986  0.00  0.00    +0.135 C 
ATOM     28  C   UNL     1      -2.119 -11.044  -2.254  0.00  0.00    +0.035 C 
ATOM     29  C   UNL     1      -3.051 -11.335  -3.462  0.00  0.00    +0.031 C 
ATOM     30  C   UNL     1      -2.985  -9.983  -4.216  0.00  0.00    +0.160 C 
ATOM     31  O   UNL     1      -2.925  -8.981  -3.186  0.00  0.00    -0.375 OA
ENDBRANCH  26  27
ENDBRANCH  24  26
ENDBRANCH  22  24
ENDBRANCH   6  21
BRANCH   3  32
ATOM     32  C   UNL     1      -2.153  -0.236   0.732  0.00  0.00    +0.339 C 
ATOM     33  O   UNL     1      -2.115   0.942   1.042  0.00  0.00    -0.245 OA
BRANCH  32  34
ATOM     34  O   UNL     1      -3.339  -0.880   0.665  0.00  0.00    -0.459 OA
BRANCH  34  35
ATOM     35  C   UNL     1      -4.509  -0.119   0.971  0.00  0.00    +0.171 C 
ATOM     36  C   UNL     1      -5.697  -0.670   0.181  0.00  0.00    +0.052 C 
ATOM     37  C   UNL     1      -4.803  -0.217   2.470  0.00  0.00    +0.052 C 
ENDBRANCH  34  35
ENDBRANCH  32  34
ENDBRANCH   3  32
TORSDOF 9
