REMARK  Name = ZINC08779625
REMARK  8 active torsions:
REMARK  status: ('A' for Active; 'I' for Inactive)
REMARK    1  A    between atoms: C_1  and  C_2
REMARK    2  A    between atoms: C_2  and  C_3
REMARK    3  A    between atoms: C_4  and  C_9
REMARK    4  A    between atoms: N_11  and  N_12
REMARK    5  A    between atoms: C_13  and  C_14
REMARK    6  A    between atoms: C_19  and  O_20
REMARK    7  A    between atoms: O_20  and  C_21
REMARK    8  A    between atoms: C_21  and  C_22
REMARK                            x       y       z     vdW  Elec       q    Type
REMARK                         _______ _______ _______ _____ _____    ______ ____
ROOT
ATOM      1  N   UNL     1      -2.536   5.164   0.054  0.00  0.00    -0.187 NA
ATOM      2  C   UNL     1      -2.522   3.865   0.047  0.00  0.00    +0.142 C 
ENDROOT
BRANCH   2   3
ATOM      3  C   UNL     1      -1.237   3.143   0.031  0.00  0.00    +0.036 A 
ATOM      4  C   UNL     1      -1.218   1.746   0.017  0.00  0.00    +0.013 A 
ATOM      5  C   UNL     1      -0.013   1.076   0.008  0.00  0.00    +0.001 A 
ATOM      6  C   UNL     1       1.179   1.781   0.000  0.00  0.00    +0.004 A 
ATOM      7  C   UNL     1       1.172   3.163   0.008  0.00  0.00    +0.046 A 
ATOM      8  C   UNL     1      -0.029   3.853   0.024  0.00  0.00    +0.130 A 
BRANCH   8   9
ATOM      9  O   UNL     1      -0.036   5.211   0.032  0.00  0.00    -0.487 OA
BRANCH   9  10
ATOM     10  C   UNL     1       1.234   5.866   0.024  0.00  0.00    +0.268 C 
BRANCH  10  11
ATOM     11  C   UNL     1       1.028   7.359   0.035  0.00  0.00    +0.043 A 
ATOM     12  C   UNL     1       0.928   8.053  -1.159  0.00  0.00    +0.131 A 
ATOM     13  C   UNL     1       0.734   9.424  -1.148  0.00  0.00    +0.039 A 
ATOM     14  C   UNL     1       0.651  10.100   0.055  0.00  0.00    +0.004 A 
ATOM     15  C   UNL     1       0.757   9.408   1.246  0.00  0.00    +0.020 A 
ATOM     16  C   UNL     1       0.946   8.037   1.237  0.00  0.00    +0.050 A 
ATOM     17 CL   UNL     1       1.078   7.169   2.734  0.00  0.00    -0.083 Cl
ATOM     18  F   UNL     1       1.015   7.393  -2.334  0.00  0.00    -0.205 F 
ENDBRANCH  10  11
ENDBRANCH   9  10
ENDBRANCH   8   9
ENDBRANCH   2   3
BRANCH   1  21
ATOM     19  C   UNL     1      -3.771   7.198   0.077  0.00  0.00    +0.272 C 
ATOM     20  O   UNL     1      -2.723   7.819   0.071  0.00  0.00    -0.268 OA
ATOM     21  N   UNL     1      -3.757   5.851   0.070  0.00  0.00    -0.202 N 
ATOM     22  H   UNL     1      -4.591   5.357   0.075  0.00  0.00    +0.178 HD
BRANCH  19  24
ATOM     23  C   UNL     1      -5.294   9.281   0.109  0.00  0.00    +0.062 A 
ATOM     24  C   UNL     1      -5.045   7.915   0.093  0.00  0.00    +0.100 A 
ATOM     25  S   UNL     1      -6.714   7.277   0.106  0.00  0.00    -0.048 S 
ATOM     26  C   UNL     1      -7.541   8.804   0.122  0.00  0.00    +0.156 A 
ATOM     27  N   UNL     1      -6.541   9.673   0.117  0.00  0.00    -0.229 NA
ATOM     28  N   UNL     1      -8.898   9.050   0.137  0.00  0.00    -0.337 N 
ATOM     29  H   UNL     1      -9.525   8.310   0.139  0.00  0.00    +0.144 HD
ATOM     30  H   UNL     1      -9.225   9.963   0.145  0.00  0.00    +0.144 HD
BRANCH  23  32
ATOM     31  C   UNL     1      -3.791  10.630  -1.330  0.00  0.00    +0.010 C 
ATOM     32  C   UNL     1      -4.164  10.278   0.111  0.00  0.00    +0.053 C 
ENDBRANCH  23  32
ENDBRANCH  19  24
ENDBRANCH   1  21
TORSDOF 7
