REMARK  Name = ZINC09446327
REMARK  13 active torsions:
REMARK  status: ('A' for Active; 'I' for Inactive)
REMARK    1  A    between atoms: C_1  and  C_2
REMARK    2  A    between atoms: C_4  and  O_35
REMARK    3  A    between atoms: C_5  and  C_9
REMARK    4  A    between atoms: N_17  and  C_32
REMARK    5  A    between atoms: C_18  and  C_20
REMARK    6  A    between atoms: C_22  and  O_30
REMARK    7  A    between atoms: C_23  and  O_28
REMARK    8  A    between atoms: C_24  and  O_26
REMARK    9  A    between atoms: O_26  and  C_27
REMARK   10  A    between atoms: O_28  and  C_29
REMARK   11  A    between atoms: O_30  and  C_31
REMARK   12  A    between atoms: C_32  and  C_33
REMARK   13  A    between atoms: C_33  and  O_34
REMARK                            x       y       z     vdW  Elec       q    Type
REMARK                         _______ _______ _______ _____ _____    ______ ____
ROOT
ATOM      1  C   UNL     1      -0.009  -4.264  -0.096  0.00  0.00    +0.075 A 
ATOM      2  C   UNL     1       1.073  -5.030  -0.394  0.00  0.00    +0.035 A 
ATOM      3  C   UNL     1       0.585  -6.346  -0.558  0.00  0.00    +0.153 A 
ATOM      4  N   UNL     1      -0.717  -6.301  -0.357  0.00  0.00    -0.168 NA
ATOM      5  N   UNL     1      -1.088  -5.101  -0.081  0.00  0.00    -0.276 N 
ATOM      6  H   UNL     1      -2.001  -4.830   0.108  0.00  0.00    +0.189 HD
ATOM      7  C   UNL     1       1.730  -7.215  -0.883  0.00  0.00    +0.268 C 
ATOM      8  O   UNL     1       1.656  -8.412  -1.087  0.00  0.00    -0.268 OA
ATOM      9  N   UNL     1       2.867  -6.500  -0.922  0.00  0.00    -0.283 N 
ATOM     10  C   UNL     1       2.558  -5.096  -0.625  0.00  0.00    +0.142 C 
ENDROOT
BRANCH   1  15
ATOM     11  C   UNL     1      -0.037   1.405   0.921  0.00  0.00    +0.045 C 
ATOM     12  C   UNL     1      -0.029  -0.079   0.657  0.00  0.00    -0.029 A 
ATOM     13  C   UNL     1       0.609  -0.931   1.540  0.00  0.00    +0.050 A 
ATOM     14  C   UNL     1       0.620  -2.295   1.302  0.00  0.00    +0.126 A 
ATOM     15  C   UNL     1      -0.017  -2.808   0.166  0.00  0.00    +0.043 A 
ATOM     16  C   UNL     1      -0.657  -1.941  -0.717  0.00  0.00    +0.034 A 
ATOM     17  C   UNL     1      -0.665  -0.583  -0.465  0.00  0.00    +0.045 A 
ATOM     18 CL   UNL     1      -1.468   0.496  -1.562  0.00  0.00    -0.083 Cl
BRANCH  14  19
ATOM     19  O   UNL     1       1.247  -3.133   2.169  0.00  0.00    -0.506 OA
ATOM     20  H   UNL     1       0.702  -3.401   2.921  0.00  0.00    +0.292 HD
ENDBRANCH  14  19
ENDBRANCH   1  15
BRANCH  10  21
ATOM     21  C   UNL     1       2.938  -4.223  -1.793  0.00  0.00    -0.015 A 
ATOM     22  C   UNL     1       2.385  -4.457  -3.038  0.00  0.00    +0.055 A 
ATOM     23  C   UNL     1       2.733  -3.657  -4.115  0.00  0.00    +0.165 A 
ATOM     24  C   UNL     1       3.640  -2.618  -3.942  0.00  0.00    +0.204 A 
ATOM     25  C   UNL     1       4.194  -2.386  -2.689  0.00  0.00    +0.165 A 
ATOM     26  C   UNL     1       3.837  -3.188  -1.616  0.00  0.00    +0.055 A 
BRANCH  25  27
ATOM     27  O   UNL     1       5.082  -1.371  -2.515  0.00  0.00    -0.491 OA
ATOM     28  C   UNL     1       5.612  -1.191  -1.200  0.00  0.00    +0.277 C 
ENDBRANCH  25  27
BRANCH  24  29
ATOM     29  O   UNL     1       3.985  -1.830  -4.997  0.00  0.00    -0.488 OA
ATOM     30  C   UNL     1       3.190  -0.664  -5.223  0.00  0.00    +0.277 C 
ENDBRANCH  24  29
BRANCH  23  31
ATOM     31  O   UNL     1       2.188  -3.888  -5.340  0.00  0.00    -0.491 OA
ATOM     32  C   UNL     1       1.263  -4.973  -5.444  0.00  0.00    +0.277 C 
ENDBRANCH  23  31
ENDBRANCH  10  21
BRANCH   9  33
ATOM     33  C   UNL     1       4.199  -7.034  -1.215  0.00  0.00    +0.137 C 
BRANCH  33  34
ATOM     34  C   UNL     1       4.386  -7.136  -2.731  0.00  0.00    +0.175 C 
BRANCH  34  35
ATOM     35  O   UNL     1       4.476  -5.824  -3.289  0.00  0.00    -0.393 OA
ATOM     36  H   UNL     1       4.596  -5.812  -4.248  0.00  0.00    +0.209 HD
ENDBRANCH  34  35
ENDBRANCH  33  34
ENDBRANCH   9  33
TORSDOF 9
