REMARK  Name = ZINC36584230
REMARK  18 active torsions:
REMARK  status: ('A' for Active; 'I' for Inactive)
REMARK    1  A    between atoms: C_1  and  C_2
REMARK    2  A    between atoms: C_2  and  C_3
REMARK    3  A    between atoms: C_2  and  C_4
REMARK    4  A    between atoms: C_2  and  C_5
REMARK    5  A    between atoms: C_5  and  C_6
REMARK    6  A    between atoms: C_6  and  C_7
REMARK    7  A    between atoms: C_6  and  C_8
REMARK    8  A    between atoms: C_6  and  N_9
REMARK    9  A    between atoms: C_10  and  C_12
REMARK   10  A    between atoms: C_12  and  C_14
REMARK   11  A    between atoms: C_12  and  N_23
REMARK   12  A    between atoms: C_17  and  N_20
REMARK   13  A    between atoms: N_23  and  C_33
REMARK   14  A    between atoms: C_24  and  C_26
REMARK   15  A    between atoms: C_31  and  O_32
REMARK   16  A    between atoms: C_33  and  C_34
REMARK   17  A    between atoms: C_33  and  C_35
REMARK   18  A    between atoms: C_33  and  C_36
REMARK                            x       y       z     vdW  Elec       q    Type
REMARK                         _______ _______ _______ _____ _____    ______ ____
ROOT
ATOM      1  C   UNL     1       5.956   0.561  -3.095  0.00  0.00    +0.193 C 
ENDROOT
BRANCH   1   2
ATOM      2  C   UNL     1       5.417   1.917  -2.717  0.00  0.00    -0.018 A 
ATOM      3  C   UNL     1       6.130   3.058  -3.036  0.00  0.00    +0.008 A 
ATOM      4  C   UNL     1       5.636   4.301  -2.689  0.00  0.00    +0.033 A 
ATOM      5  C   UNL     1       4.429   4.405  -2.024  0.00  0.00    +0.126 A 
ATOM      6  C   UNL     1       3.716   3.264  -1.706  0.00  0.00    +0.033 A 
ATOM      7  C   UNL     1       4.207   2.021  -2.056  0.00  0.00    +0.008 A 
BRANCH   5   8
ATOM      8  N   UNL     1       3.901   5.736  -1.652  0.00  0.00    +0.056 N 
ATOM      9  O   UNL     1       4.525   6.734  -1.930  0.00  0.00    -0.126 OA
ATOM     10  O   UNL     1       2.845   5.827  -1.070  0.00  0.00    -0.126 OA
ENDBRANCH   5   8
ENDBRANCH   1   2
BRANCH   1  12
ATOM     11  N   UNL     1       6.255  -0.245  -0.775  0.00  0.00    -0.308 N 
ATOM     12  C   UNL     1       6.810   0.030  -1.972  0.00  0.00    +0.239 C 
ATOM     13  O   UNL     1       7.996  -0.151  -2.147  0.00  0.00    -0.273 OA
ATOM     14  H   UNL     1       5.306  -0.100  -0.636  0.00  0.00    +0.149 HD
BRANCH  11  15
ATOM     15  C   UNL     1       7.085  -0.761   0.316  0.00  0.00    +0.030 C 
ATOM     16  C   UNL     1       8.336   0.107   0.460  0.00  0.00    +0.031 C 
ATOM     17  C   UNL     1       7.497  -2.202   0.004  0.00  0.00    +0.031 C 
BRANCH  15  18
ATOM     18  C   UNL     1       6.289  -0.730   1.622  0.00  0.00    +0.031 C 
BRANCH  18  20
ATOM     19  C   UNL     1       4.355   0.616   0.791  0.00  0.00    +0.010 C 
ATOM     20  C   UNL     1       5.556   0.608   1.740  0.00  0.00    -0.036 C 
ATOM     21  C   UNL     1       6.508   1.746   1.367  0.00  0.00    +0.010 C 
ATOM     22  C   UNL     1       5.071   0.799   3.178  0.00  0.00    +0.010 C 
ENDBRANCH  18  20
ENDBRANCH  15  18
ENDBRANCH  11  15
ENDBRANCH   1  12
BRANCH   1  23
ATOM     23  N   UNL     1       6.764   0.679  -4.310  0.00  0.00    -0.277 N 
ATOM     24  C   UNL     1       8.003   1.207  -4.248  0.00  0.00    +0.251 C 
ATOM     25  O   UNL     1       8.540   1.370  -3.169  0.00  0.00    -0.270 OA
BRANCH  24  26
ATOM     26  C   UNL     1       8.706   1.587  -5.488  0.00  0.00    +0.078 A 
ATOM     27  C   UNL     1       8.380   0.970  -6.698  0.00  0.00    +0.017 A 
ATOM     28  C   UNL     1       9.040   1.330  -7.853  0.00  0.00    +0.001 A 
ATOM     29  C   UNL     1      10.028   2.301  -7.819  0.00  0.00    +0.004 A 
ATOM     30  C   UNL     1      10.360   2.918  -6.630  0.00  0.00    +0.046 A 
ATOM     31  C   UNL     1       9.702   2.572  -5.459  0.00  0.00    +0.129 A 
BRANCH  31  32
ATOM     32  O   UNL     1      10.024   3.182  -4.291  0.00  0.00    -0.506 OA
ATOM     33  H   UNL     1      10.727   2.738  -3.797  0.00  0.00    +0.292 HD
ENDBRANCH  31  32
ENDBRANCH  24  26
BRANCH  23  34
ATOM     34  C   UNL     1       6.227   0.222  -5.594  0.00  0.00    +0.030 C 
ATOM     35  C   UNL     1       4.752  -0.150  -5.427  0.00  0.00    +0.031 C 
ATOM     36  C   UNL     1       6.356   1.342  -6.629  0.00  0.00    +0.031 C 
ATOM     37  C   UNL     1       7.011  -1.003  -6.069  0.00  0.00    +0.031 C 
ENDBRANCH  23  34
ENDBRANCH   1  23
TORSDOF 10
