REMARK  Name = ZINC40321418
REMARK  6 active torsions:
REMARK  status: ('A' for Active; 'I' for Inactive)
REMARK    1  A    between atoms: C_1  and  N_2
REMARK    2  A    between atoms: N_2  and  C_3
REMARK    3  A    between atoms: N_2  and  S_11
REMARK    4  A    between atoms: C_3  and  C_4
REMARK    5  A    between atoms: S_11  and  C_14
REMARK    6  A    between atoms: C_19  and  N_20
REMARK                            x       y       z     vdW  Elec       q    Type
REMARK                         _______ _______ _______ _____ _____    ______ ____
ROOT
ATOM      1  S   UNL     1      -0.000  -0.824  -1.437  0.00  0.00    +0.063 S 
ATOM      2  O   UNL     1      -0.531  -2.115  -1.167  0.00  0.00    -0.153 OA
ATOM      3  O   UNL     1      -0.572   0.049  -2.401  0.00  0.00    -0.153 OA
ENDROOT
BRANCH   1   4
ATOM      4  C   UNL     1       1.682  -1.059  -1.905  0.00  0.00    +0.126 A 
ATOM      5  C   UNL     1       2.208  -2.335  -1.976  0.00  0.00    +0.033 A 
ATOM      6  C   UNL     1       3.527  -2.521  -2.343  0.00  0.00    +0.040 A 
ATOM      7  C   UNL     1       4.326  -1.430  -2.642  0.00  0.00    +0.125 A 
ATOM      8  C   UNL     1       3.805  -0.151  -2.573  0.00  0.00    +0.063 A 
ATOM      9  C   UNL     1       2.478   0.037  -2.209  0.00  0.00    +0.054 A 
ATOM     10  F   UNL     1       5.616  -1.616  -3.001  0.00  0.00    -0.205 F 
BRANCH   9  11
ATOM     11  N   UNL     1       1.947   1.327  -2.144  0.00  0.00    -0.356 N 
ATOM     12  H   UNL     1       1.021   1.458  -1.886  0.00  0.00    +0.142 HD
ATOM     13  H   UNL     1       2.504   2.093  -2.357  0.00  0.00    +0.142 HD
ENDBRANCH   9  11
ENDBRANCH   1   4
BRANCH   1  15
ATOM     14  C   UNL     1      -0.018   1.461   0.010  0.00  0.00    +0.132 C 
ATOM     15  N   UNL     1       0.002  -0.004   0.002  0.00  0.00    -0.175 NA
BRANCH  15  16
ATOM     16  C   UNL     1       0.024  -0.743   1.267  0.00  0.00    +0.144 C 
BRANCH  16  17
ATOM     17  C   UNL     1      -1.384  -0.909   1.776  0.00  0.00    -0.032 A 
ATOM     18  C   UNL     1      -1.936   0.049   2.606  0.00  0.00    +0.006 A 
ATOM     19  C   UNL     1      -3.228  -0.103   3.074  0.00  0.00    +0.015 A 
ATOM     20  C   UNL     1      -3.969  -1.213   2.710  0.00  0.00    +0.018 A 
ATOM     21  C   UNL     1      -3.417  -2.171   1.880  0.00  0.00    +0.015 A 
ATOM     22  C   UNL     1      -2.126  -2.016   1.409  0.00  0.00    +0.006 A 
ATOM     23 BR   UNL     1      -5.736  -1.421   3.350  0.00  0.00    -0.050 Br
ENDBRANCH  16  17
ENDBRANCH  15  16
ENDBRANCH   1  15
TORSDOF 5
