REMARK  Name = ZINC04217040
REMARK  14 active torsions:
REMARK  status: ('A' for Active; 'I' for Inactive)
REMARK    1  A    between atoms: C_1  and  C_2
REMARK    2  A    between atoms: C_2  and  C_3
REMARK    3  A    between atoms: C_3  and  C_5
REMARK    4  A    between atoms: C_3  and  N_6
REMARK    5  A    between atoms: N_6  and  C_7
REMARK    6  A    between atoms: C_7  and  N_9
REMARK    7  A    between atoms: N_9  and  C_10
REMARK    8  A    between atoms: N_9  and  C_25
REMARK    9  A    between atoms: C_10  and  C_11
REMARK   10  A    between atoms: C_16  and  C_24
REMARK   11  A    between atoms: C_17  and  C_23
REMARK   12  A    between atoms: C_25  and  C_26
REMARK   13  A    between atoms: C_31  and  C_32
REMARK   14  A    between atoms: C_31  and  N_66
REMARK                            x       y       z     vdW  Elec       q    Type
REMARK                         _______ _______ _______ _____ _____    ______ ____
ROOT
ATOM      1  N   UNL     1      -4.761  -2.470  -0.588  0.00  0.00    -0.310 N 
ENDROOT
BRANCH   1   2
ATOM      2  C   UNL     1      -4.610  -3.778  -0.877  0.00  0.00    +0.133 C 
ATOM      3  S   UNL     1      -4.723  -4.316  -2.498  0.00  0.00    -0.019 S 
BRANCH   2   4
ATOM      4  N   UNL     1      -4.371  -4.662   0.112  0.00  0.00    -0.324 N 
ATOM      5  H   UNL     1      -4.379  -4.370   1.037  0.00  0.00    +0.148 HD
BRANCH   4   6
ATOM      6  C   UNL     1      -4.098  -6.065  -0.211  0.00  0.00    +0.069 C 
ATOM      7  C   UNL     1      -2.596  -6.254  -0.436  0.00  0.00    +0.028 C 
BRANCH   6   9
ATOM      8  C   UNL     1      -6.072  -6.835   1.113  0.00  0.00    +0.005 C 
ATOM      9  C   UNL     1      -4.555  -6.953   0.947  0.00  0.00    +0.018 C 
ENDBRANCH   6   9
ENDBRANCH   4   6
ENDBRANCH   2   4
ENDBRANCH   1   2
BRANCH   1  10
ATOM     10  C   UNL     1      -4.558  -1.994   0.782  0.00  0.00    +0.147 C 
BRANCH  10  11
ATOM     11  C   UNL     1      -3.152  -1.471   0.929  0.00  0.00    +0.035 A 
ATOM     12  C   UNL     1      -2.905  -0.145   0.787  0.00  0.00    +0.020 A 
ATOM     13  C   UNL     1      -1.529   0.330   0.936  0.00  0.00    -0.001 A 
ATOM     14  C   UNL     1      -1.213   1.686   0.801  0.00  0.00    +0.010 A 
ATOM     15  C   UNL     1       0.081   2.098   0.946  0.00  0.00    +0.004 A 
ATOM     16  C   UNL     1       1.087   1.182   1.226  0.00  0.00    -0.046 A 
ATOM     17  C   UNL     1       0.799  -0.158   1.364  0.00  0.00    -0.024 A 
ATOM     18  C   UNL     1      -0.512  -0.601   1.221  0.00  0.00    +0.052 A 
ATOM     19  N   UNL     1      -0.829  -1.936   1.353  0.00  0.00    -0.322 N 
ATOM     20  H   UNL     1      -0.105  -2.596   1.555  0.00  0.00    +0.169 HD
ATOM     21  C   UNL     1      -2.096  -2.364   1.215  0.00  0.00    +0.254 A 
ATOM     22  O   UNL     1      -2.340  -3.551   1.339  0.00  0.00    -0.268 OA
ATOM     23  C   UNL     1       1.899  -1.141   1.670  0.00  0.00    +0.046 C 
ATOM     24  C   UNL     1       2.508   1.659   1.382  0.00  0.00    +0.044 C 
ENDBRANCH  10  11
ENDBRANCH   1  10
BRANCH   1  25
ATOM     25  C   UNL     1      -5.127  -1.524  -1.646  0.00  0.00    +0.092 C 
BRANCH  25  26
ATOM     26  C   UNL     1      -6.644  -1.543  -1.843  0.00  0.00    -0.051 C 
ATOM     27  C   UNL     1      -7.070  -0.450  -2.847  0.00  0.00    -0.016 C 
ATOM     28  C   UNL     1      -8.407   0.094  -2.304  0.00  0.00    -0.020 C 
ATOM     29  C   UNL     1      -8.677  -0.717  -1.018  0.00  0.00    -0.078 C 
ATOM     30  N   UNL     1      -7.349  -1.171  -0.612  0.00  0.00    +0.382 N 
ATOM     31  H   UNL     1      -6.848  -0.411  -0.136  0.00  0.00    -0.081 HD
BRANCH  30  32
ATOM     32  C   UNL     1      -7.446  -2.348   0.310  0.00  0.00    -0.082 C 
ATOM     33  C   UNL     1      -7.992  -1.903   1.668  0.00  0.00    -0.017 C 
ENDBRANCH  30  32
ENDBRANCH  25  26
ENDBRANCH   1  25
TORSDOF 9
