REMARK  Name = ZINC39699875
REMARK  1 active torsions:
REMARK  status: ('A' for Active; 'I' for Inactive)
REMARK    1  A    between atoms: N_15  and  N_16
REMARK                            x       y       z     vdW  Elec       q    Type
REMARK                         _______ _______ _______ _____ _____    ______ ____
ROOT
ATOM      1  C   UNL     1      -0.595   1.276  -1.033  0.00  0.00    +0.001 A 
ATOM      2  C   UNL     1       0.489   2.143  -1.228  0.00  0.00    +0.002 A 
ATOM      3  C   UNL     1       1.768   1.707  -1.173  0.00  0.00    +0.026 A 
ATOM      4  C   UNL     1       2.031   0.288  -0.904  0.00  0.00    +0.046 A 
ATOM      5  N   UNL     1       3.149  -0.395  -0.830  0.00  0.00    -0.358 N 
ATOM      6  C   UNL     1       2.842  -1.753  -0.413  0.00  0.00    +0.253 C 
ATOM      7  C   UNL     1       1.331  -1.879  -0.496  0.00  0.00    +0.115 C 
ATOM      8  C   UNL     1       0.861  -0.607  -0.714  0.00  0.00    +0.025 A 
ATOM      9  C   UNL     1      -0.433  -0.044  -0.786  0.00  0.00    +0.012 A 
ATOM     10  N   UNL     1       0.725  -3.069  -0.490  0.00  0.00    -0.171 NA
ATOM     11  N   UNL     1       1.433  -4.059  -0.944  0.00  0.00    -0.247 N 
ATOM     12  C   UNL     1       2.676  -3.882  -1.452  0.00  0.00    +0.227 C 
ATOM     13  N   UNL     1       3.395  -2.800  -1.270  0.00  0.00    -0.220 NA
ATOM     14  N   UNL     1       3.223  -4.907  -2.204  0.00  0.00    -0.205 N 
ATOM     15  H   UNL     1       2.718  -5.722  -2.354  0.00  0.00    +0.177 HD
ATOM     16  H   UNL     1       1.059  -4.954  -0.918  0.00  0.00    +0.192 HD
ATOM     17  H   UNL     1       4.035  -0.051  -1.023  0.00  0.00    +0.162 HD
ENDROOT
BRANCH  14  18
ATOM     18  N   UNL     1       4.405  -4.779  -2.706  0.00  0.00    -0.174 NA
ATOM     19  C   UNL     1       4.881  -5.703  -3.507  0.00  0.00    +0.153 C 
ATOM     20  C   UNL     1       4.155  -6.857  -4.086  0.00  0.00    +0.028 A 
ATOM     21  C   UNL     1       2.843  -7.306  -3.983  0.00  0.00    +0.012 A 
ATOM     22  C   UNL     1       2.453  -8.444  -4.659  0.00  0.00    +0.001 A 
ATOM     23  C   UNL     1       3.367  -9.137  -5.436  0.00  0.00    +0.002 A 
ATOM     24  C   UNL     1       4.671  -8.699  -5.545  0.00  0.00    +0.024 A 
ATOM     25  C   UNL     1       5.082  -7.554  -4.872  0.00  0.00    +0.043 A 
ATOM     26  N   UNL     1       6.312  -6.909  -4.811  0.00  0.00    -0.280 N 
ATOM     27  C   UNL     1       6.255  -5.815  -4.032  0.00  0.00    +0.269 C 
ATOM     28  O   UNL     1       7.176  -5.054  -3.798  0.00  0.00    -0.268 OA
ATOM     29  H   UNL     1       7.109  -7.208  -5.275  0.00  0.00    +0.155 HD
ENDBRANCH  14  18
TORSDOF 1
