REMARK  Name = ZINC16386113
REMARK  8 active torsions:
REMARK  status: ('A' for Active; 'I' for Inactive)
REMARK    1  A    between atoms: C_1  and  C_2
REMARK    2  A    between atoms: C_2  and  O_3
REMARK    3  A    between atoms: O_3  and  C_4
REMARK    4  A    between atoms: C_5  and  O_27
REMARK    5  A    between atoms: C_7  and  C_11
REMARK    6  A    between atoms: C_22  and  C_26
REMARK    7  A    between atoms: C_23  and  C_25
REMARK    8  A    between atoms: O_27  and  C_28
REMARK                            x       y       z     vdW  Elec       q    Type
REMARK                         _______ _______ _______ _____ _____    ______ ____
ROOT
ATOM      1  C   UNL     1       1.105  -6.013  -1.847  0.00  0.00    +0.015 C 
ATOM      2  C   UNL     1       0.095  -6.702  -2.417  0.00  0.00    -0.003 C 
ATOM      3  C   UNL     1      -1.159  -6.118  -3.024  0.00  0.00    +0.060 C 
ATOM      4  C   UNL     1      -1.951  -7.335  -3.521  0.00  0.00    +0.131 C 
ATOM      5  N   UNL     1      -1.150  -8.523  -3.192  0.00  0.00    -0.292 N 
ATOM      6  C   UNL     1       0.014  -8.159  -2.571  0.00  0.00    +0.141 A 
ATOM      7  N   UNL     1       0.891  -9.082  -2.191  0.00  0.00    -0.222 NA
ATOM      8  C   UNL     1       0.674 -10.369  -2.401  0.00  0.00    +0.116 A 
ATOM      9  C   UNL     1      -0.495 -10.833  -3.037  0.00  0.00    +0.075 A 
ATOM     10  C   UNL     1      -1.430  -9.825  -3.430  0.00  0.00    +0.263 A 
ATOM     11  O   UNL     1      -2.467 -10.136  -3.989  0.00  0.00    -0.267 OA
ATOM     12  C   UNL     1      -0.577 -12.274  -3.190  0.00  0.00    -0.026 A 
ATOM     13  C   UNL     1       0.426 -13.040  -2.733  0.00  0.00    -0.008 A 
ATOM     14  S   UNL     1       1.574 -11.858  -2.053  0.00  0.00    -0.073 S 
ATOM     15  C   UNL     1       0.552 -14.541  -2.784  0.00  0.00    +0.052 C 
ATOM     16  C   UNL     1      -1.776 -12.902  -3.853  0.00  0.00    +0.045 C 
ENDROOT
BRANCH   1  20
ATOM     17  C   UNL     1       0.730  -1.828  -1.231  0.00  0.00    +0.180 A 
ATOM     18  C   UNL     1       1.961  -2.368  -1.600  0.00  0.00    +0.164 A 
ATOM     19  C   UNL     1       2.087  -3.728  -1.802  0.00  0.00    +0.057 A 
ATOM     20  C   UNL     1       0.977  -4.563  -1.633  0.00  0.00    -0.020 A 
ATOM     21  C   UNL     1      -0.256  -4.015  -1.262  0.00  0.00    +0.031 A 
ATOM     22  C   UNL     1      -0.372  -2.656  -1.058  0.00  0.00    +0.087 A 
ATOM     23 CL   UNL     1      -1.900  -1.978  -0.591  0.00  0.00    -0.080 Cl
BRANCH  18  24
ATOM     24  O   UNL     1       3.038  -1.554  -1.763  0.00  0.00    -0.491 OA
ATOM     25  C   UNL     1       4.268  -2.174  -2.142  0.00  0.00    +0.277 C 
ENDBRANCH  18  24
BRANCH  17  26
ATOM     26  O   UNL     1       0.608  -0.489  -1.034  0.00  0.00    -0.487 OA
BRANCH  26  28
ATOM     27  C   UNL     1       0.674   1.517   0.313  0.00  0.00    +0.048 C 
ATOM     28  C   UNL     1       0.857  -0.002   0.286  0.00  0.00    +0.226 C 
ENDBRANCH  26  28
ENDBRANCH  17  26
ENDBRANCH   1  20
TORSDOF 4
