REMARK  Name = ZINC36685952
REMARK  6 active torsions:
REMARK  status: ('A' for Active; 'I' for Inactive)
REMARK    1  A    between atoms: C_1  and  C_2
REMARK    2  A    between atoms: C_3  and  C_23
REMARK    3  A    between atoms: C_5  and  N_9
REMARK    4  A    between atoms: C_6  and  C_7
REMARK    5  A    between atoms: C_10  and  C_12
REMARK    6  A    between atoms: C_13  and  C_14
REMARK                            x       y       z     vdW  Elec       q    Type
REMARK                         _______ _______ _______ _____ _____    ______ ____
ROOT
ATOM      1  N   UNL     1      -0.560  -3.162   2.079  0.00  0.00    -0.275 N 
ATOM      2  C   UNL     1      -0.546  -4.479   1.797  0.00  0.00    +0.241 C 
ATOM      3  O   UNL     1      -0.872  -4.869   0.691  0.00  0.00    -0.270 OA
ATOM      4  H   UNL     1      -0.301  -2.852   2.961  0.00  0.00    +0.156 HD
ENDROOT
BRANCH   1   9
ATOM      5  C   UNL     1      -1.582   1.352   0.026  0.00  0.00    +0.046 C 
ATOM      6  C   UNL     1      -1.456  -0.149   0.045  0.00  0.00    -0.021 A 
ATOM      7  C   UNL     1      -1.744  -0.904  -1.032  0.00  0.00    -0.007 A 
ATOM      8  S   UNL     1      -1.430  -2.562  -0.466  0.00  0.00    -0.077 S 
ATOM      9  C   UNL     1      -0.946  -2.249   1.109  0.00  0.00    +0.090 A 
ATOM     10  C   UNL     1      -1.014  -0.868   1.217  0.00  0.00    +0.083 A 
ATOM     11  C   UNL     1      -2.219  -0.454  -2.390  0.00  0.00    +0.052 C 
BRANCH  10  12
ATOM     12  C   UNL     1      -0.670  -0.190   2.430  0.00  0.00    +0.102 C 
ATOM     13  N   UNL     1      -0.396   0.348   3.393  0.00  0.00    -0.191 NA
ENDBRANCH  10  12
ENDBRANCH   1   9
BRANCH   2  14
ATOM     14  C   UNL     1      -0.140  -5.441   2.820  0.00  0.00    +0.068 C 
ATOM     15  C   UNL     1       0.005  -6.745   2.501  0.00  0.00    +0.013 C 
BRANCH  15  16
ATOM     16  C   UNL     1       0.004  -7.162   1.091  0.00  0.00    -0.021 A 
ATOM     17  C   UNL     1       0.772  -6.463   0.152  0.00  0.00    +0.012 A 
ATOM     18  C   UNL     1       0.769  -6.856  -1.168  0.00  0.00    +0.050 A 
ATOM     19  C   UNL     1       0.005  -7.943  -1.573  0.00  0.00    +0.166 A 
ATOM     20  C   UNL     1      -0.764  -8.643  -0.643  0.00  0.00    +0.167 A 
ATOM     21  C   UNL     1      -0.761  -8.261   0.684  0.00  0.00    +0.057 A 
ATOM     22  O   UNL     1      -1.413  -9.656  -1.289  0.00  0.00    -0.453 OA
ATOM     23  C   UNL     1      -1.356  -9.317  -2.687  0.00  0.00    +0.466 C 
ATOM     24  O   UNL     1      -0.164  -8.517  -2.798  0.00  0.00    -0.453 OA
ENDBRANCH  15  16
ENDBRANCH   2  14
TORSDOF 4
