REMARK  Name = ZINC09354536
REMARK  8 active torsions:
REMARK  status: ('A' for Active; 'I' for Inactive)
REMARK    1  A    between atoms: C_1  and  O_2
REMARK    2  A    between atoms: O_2  and  C_3
REMARK    3  A    between atoms: C_6  and  C_11
REMARK    4  A    between atoms: C_8  and  O_9
REMARK    5  A    between atoms: O_9  and  C_10
REMARK    6  A    between atoms: C_14  and  C_17
REMARK    7  A    between atoms: C_18  and  C_32
REMARK    8  A    between atoms: C_21  and  N_29
REMARK                            x       y       z     vdW  Elec       q    Type
REMARK                         _______ _______ _______ _____ _____    ______ ____
ROOT
ATOM      1  C   UNL     1      -7.738  -1.401   2.259  0.00  0.00    +0.070 A 
ATOM      2  C   UNL     1      -7.687  -2.049   3.589  0.00  0.00    +0.005 A 
ATOM      3  C   UNL     1      -8.760  -1.819   4.483  0.00  0.00    +0.009 A 
ATOM      4  C   UNL     1      -8.752  -2.417   5.759  0.00  0.00    +0.043 A 
ATOM      5  C   UNL     1      -9.785  -2.194   6.619  0.00  0.00    +0.127 A 
ATOM      6  C   UNL     1     -10.850  -1.380   6.247  0.00  0.00    +0.035 A 
ATOM      7  C   UNL     1     -10.881  -0.785   5.003  0.00  0.00    +0.028 A 
ATOM      8  C   UNL     1      -9.839  -0.993   4.102  0.00  0.00    +0.050 A 
ATOM      9  N   UNL     1      -9.886  -0.389   2.863  0.00  0.00    -0.322 N 
ATOM     10  H   UNL     1     -10.647   0.172   2.645  0.00  0.00    +0.169 HD
ATOM     11  C   UNL     1      -8.913  -0.544   1.949  0.00  0.00    +0.259 A 
ATOM     12  O   UNL     1      -8.994   0.012   0.872  0.00  0.00    -0.267 OA
ENDROOT
BRANCH   1  15
ATOM     13  C   UNL     1      -4.721  -1.436   0.057  0.00  0.00    +0.125 C 
ATOM     14  C   UNL     1      -5.435  -0.789   1.263  0.00  0.00    +0.086 C 
ATOM     15  C   UNL     1      -6.726  -1.581   1.340  0.00  0.00    +0.074 C 
ATOM     16  N   UNL     1      -6.706  -2.489   0.353  0.00  0.00    -0.190 NA
ATOM     17  N   UNL     1      -5.659  -2.478  -0.384  0.00  0.00    -0.261 N 
ATOM     18  H   UNL     1      -5.505  -3.075  -1.133  0.00  0.00    +0.169 HD
BRANCH  13  22
ATOM     19  C   UNL     1      -4.106   1.440  -3.047  0.00  0.00    +0.162 A 
ATOM     20  C   UNL     1      -5.355   0.870  -2.865  0.00  0.00    +0.050 A 
ATOM     21  C   UNL     1      -5.551  -0.059  -1.860  0.00  0.00    +0.009 A 
ATOM     22  C   UNL     1      -4.502  -0.422  -1.036  0.00  0.00    -0.022 A 
ATOM     23  C   UNL     1      -3.253   0.143  -1.212  0.00  0.00    +0.055 A 
ATOM     24  C   UNL     1      -3.049   1.071  -2.221  0.00  0.00    +0.162 A 
BRANCH  19  26
ATOM     25  C   UNL     1      -5.042   2.686  -4.844  0.00  0.00    +0.277 C 
ATOM     26  O   UNL     1      -3.911   2.355  -4.035  0.00  0.00    -0.491 OA
ENDBRANCH  19  26
BRANCH  24  27
ATOM     27  O   UNL     1      -1.819   1.623  -2.400  0.00  0.00    -0.491 OA
ATOM     28  C   UNL     1      -0.781   1.196  -1.515  0.00  0.00    +0.277 C 
ENDBRANCH  24  27
ENDBRANCH  13  22
ENDBRANCH   1  15
BRANCH   2  29
ATOM     29  C   UNL     1      -6.558  -2.904   3.969  0.00  0.00    -0.016 A 
ATOM     30  C   UNL     1      -6.348  -4.130   3.315  0.00  0.00    +0.008 A 
ATOM     31  C   UNL     1      -5.285  -4.926   3.679  0.00  0.00    +0.001 A 
ATOM     32  C   UNL     1      -4.424  -4.521   4.688  0.00  0.00    +0.000 A 
ATOM     33  C   UNL     1      -4.623  -3.314   5.340  0.00  0.00    +0.001 A 
ATOM     34  C   UNL     1      -5.676  -2.501   4.986  0.00  0.00    +0.008 A 
ENDBRANCH   2  29
BRANCH   5  35
ATOM     35  N   UNL     1      -9.775  -2.823   7.959  0.00  0.00    +0.056 N 
ATOM     36  O   UNL     1      -8.769  -3.595   8.316  0.00  0.00    -0.126 OA
ATOM     37  O   UNL     1     -10.771  -2.611   8.794  0.00  0.00    -0.126 OA
ENDBRANCH   5  35
TORSDOF 6
