REMARK  Name = ZINC22111357
REMARK  5 active torsions:
REMARK  status: ('A' for Active; 'I' for Inactive)
REMARK    1  A    between atoms: C_4  and  C_7
REMARK    2  A    between atoms: N_11  and  N_12
REMARK    3  A    between atoms: N_12  and  C_13
REMARK    4  A    between atoms: C_13  and  C_14
REMARK    5  A    between atoms: C_17  and  C_19
REMARK                            x       y       z     vdW  Elec       q    Type
REMARK                         _______ _______ _______ _____ _____    ______ ____
ROOT
ATOM      1  N   UNL     1       1.982   5.083   1.662  0.00  0.00    -0.274 N 
ATOM      2  H   UNL     1       1.875   4.399   2.517  0.00  0.00    +0.167 HD
ENDROOT
BRANCH   1   7
ATOM      3  C   UNL     1       2.406   7.488   1.923  0.00  0.00    +0.180 A 
ATOM      4  N   UNL     1       3.432   8.258   1.644  0.00  0.00    -0.152 NA
ATOM      5  N   UNL     1       4.378   7.558   1.129  0.00  0.00    -0.253 N 
ATOM      6  C   UNL     1       4.017   6.296   1.054  0.00  0.00    +0.193 A 
ATOM      7  N   UNL     1       2.749   6.208   1.551  0.00  0.00    -0.222 N 
ATOM      8  S   UNL     1       4.988   4.967   0.425  0.00  0.00    -0.010 S 
ATOM      9  H   UNL     1       5.319   8.042   0.828  0.00  0.00    +0.191 HD
BRANCH   3  13
ATOM     10  C   UNL     1      -1.275   8.713   3.653  0.00  0.00    +0.000 A 
ATOM     11  C   UNL     1      -1.189   7.490   3.011  0.00  0.00    +0.001 A 
ATOM     12  C   UNL     1       0.004   7.086   2.448  0.00  0.00    +0.011 A 
ATOM     13  C   UNL     1       1.125   7.915   2.525  0.00  0.00    +0.021 A 
ATOM     14  C   UNL     1       1.032   9.145   3.177  0.00  0.00    +0.011 A 
ATOM     15  C   UNL     1      -0.168   9.539   3.733  0.00  0.00    +0.001 A 
ENDBRANCH   3  13
ENDBRANCH   1   7
BRANCH   1  16
ATOM     16  C   UNL     1       1.234   4.832   0.422  0.00  0.00    +0.195 C 
BRANCH  16  17
ATOM     17  C   UNL     1       0.401   3.586   0.582  0.00  0.00    +0.124 A 
ATOM     18  C   UNL     1      -0.864   3.540   1.044  0.00  0.00    +0.047 A 
ATOM     19  C   UNL     1      -1.262   2.189   1.024  0.00  0.00    +0.050 A 
ATOM     20  C   UNL     1      -0.204   1.476   0.553  0.00  0.00    +0.135 A 
ATOM     21  O   UNL     1       0.796   2.337   0.286  0.00  0.00    -0.458 OA
BRANCH  20  22
ATOM     22  C   UNL     1      -0.161   0.011   0.362  0.00  0.00    +0.020 A 
ATOM     23  C   UNL     1      -1.272  -0.770   0.685  0.00  0.00    +0.031 A 
ATOM     24  C   UNL     1      -1.228  -2.138   0.500  0.00  0.00    +0.043 A 
ATOM     25  C   UNL     1      -0.081  -2.735   0.004  0.00  0.00    +0.040 A 
ATOM     26  C   UNL     1       1.025  -1.966  -0.313  0.00  0.00    +0.043 A 
ATOM     27  C   UNL     1       0.992  -0.597  -0.137  0.00  0.00    +0.031 A 
ATOM     28 CL   UNL     1       2.458  -2.725  -0.933  0.00  0.00    -0.083 Cl
ATOM     29 CL   UNL     1      -2.610  -3.111   0.896  0.00  0.00    -0.083 Cl
ENDBRANCH  20  22
ENDBRANCH  16  17
ENDBRANCH   1  16
TORSDOF 5
