REMARK  Name = ZINC13063693
REMARK  11 active torsions:
REMARK  status: ('A' for Active; 'I' for Inactive)
REMARK    1  A    between atoms: C_1  and  C_2
REMARK    2  A    between atoms: C_2  and  C_3
REMARK    3  A    between atoms: C_10  and  C_15
REMARK    4  A    between atoms: C_15  and  N_69
REMARK    5  A    between atoms: C_16  and  N_69
REMARK    6  A    between atoms: C_21  and  C_23
REMARK    7  A    between atoms: C_21  and  C_25
REMARK    8  A    between atoms: C_21  and  N_69
REMARK    9  A    between atoms: C_23  and  C_24
REMARK   10  A    between atoms: N_29  and  C_30
REMARK   11  A    between atoms: C_30  and  C_31
REMARK                            x       y       z     vdW  Elec       q    Type
REMARK                         _______ _______ _______ _____ _____    ______ ____
ROOT
ATOM      1  N   UNL     1      -0.591   1.676   1.583  0.00  0.00    +0.391 N 
ATOM      2  H   UNL     1      -0.121   1.470   2.473  0.00  0.00    -0.080 HD
ENDROOT
BRANCH   1   3
ATOM      3  C   UNL     1       0.142   1.007   0.488  0.00  0.00    -0.067 C 
ATOM      4  C   UNL     1      -0.127   1.688  -0.877  0.00  0.00    -0.015 C 
ATOM      5  C   UNL     1       1.121   1.296  -1.707  0.00  0.00    -0.002 C 
ATOM      6  C   UNL     1       2.283   1.357  -0.695  0.00  0.00    -0.002 C 
ATOM      7  C   UNL     1       1.661   1.173   0.701  0.00  0.00    -0.015 C 
ENDBRANCH   1   3
BRANCH   1   8
ATOM      8  C   UNL     1      -0.594   3.138   1.370  0.00  0.00    -0.036 C 
BRANCH   8  16
ATOM      9  C   UNL     1       5.083   5.347   0.282  0.00  0.00    -0.047 A 
ATOM     10  C   UNL     1       5.451   5.491   1.613  0.00  0.00    +0.005 A 
ATOM     11  C   UNL     1       4.580   5.151   2.625  0.00  0.00    +0.026 A 
ATOM     12  C   UNL     1       3.317   4.659   2.312  0.00  0.00    +0.049 A 
ATOM     13  C   UNL     1       2.947   4.514   0.962  0.00  0.00    -0.001 A 
ATOM     14  C   UNL     1       3.848   4.866  -0.049  0.00  0.00    +0.013 A 
ATOM     15  C   UNL     1       1.617   3.991   0.642  0.00  0.00    +0.017 A 
ATOM     16  C   UNL     1       0.784   3.674   1.664  0.00  0.00    +0.001 A 
ATOM     17  C   UNL     1       1.204   3.837   3.001  0.00  0.00    +0.251 A 
ATOM     18  O   UNL     1       0.441   3.541   3.904  0.00  0.00    -0.268 OA
ATOM     19  N   UNL     1       2.425   4.312   3.304  0.00  0.00    -0.322 N 
ATOM     20  H   UNL     1       2.681   4.412   4.234  0.00  0.00    +0.169 HD
BRANCH   9  22
ATOM     21  C   UNL     1       5.858   7.197  -1.176  0.00  0.00    +0.009 C 
ATOM     22  C   UNL     1       6.054   5.725  -0.806  0.00  0.00    +0.032 C 
ENDBRANCH   9  22
ENDBRANCH   8  16
ENDBRANCH   1   8
BRANCH   1  23
ATOM     23  C   UNL     1      -1.978   1.171   1.644  0.00  0.00    +0.003 C 
BRANCH  23  24
ATOM     24  C   UNL     1      -2.836   1.861   0.615  0.00  0.00    +0.138 A 
ATOM     25  N   UNL     1      -2.563   2.008  -0.659  0.00  0.00    -0.115 NA
ATOM     26  N   UNL     1      -3.539   2.649  -1.203  0.00  0.00    -0.023 NA
ATOM     27  N   UNL     1      -4.428   2.914  -0.310  0.00  0.00    -0.044 NA
ATOM     28  N   UNL     1      -4.033   2.440   0.823  0.00  0.00    -0.226 N 
BRANCH  28  29
ATOM     29  C   UNL     1      -4.751   2.520   2.098  0.00  0.00    +0.182 C 
BRANCH  29  30
ATOM     30  C   UNL     1      -4.457   3.842   2.758  0.00  0.00    -0.026 A 
ATOM     31  C   UNL     1      -3.334   3.984   3.552  0.00  0.00    +0.005 A 
ATOM     32  C   UNL     1      -3.062   5.198   4.154  0.00  0.00    +0.000 A 
ATOM     33  C   UNL     1      -3.918   6.268   3.970  0.00  0.00    +0.000 A 
ATOM     34  C   UNL     1      -5.043   6.125   3.180  0.00  0.00    +0.000 A 
ATOM     35  C   UNL     1      -5.313   4.912   2.574  0.00  0.00    +0.005 A 
ENDBRANCH  29  30
ENDBRANCH  28  29
ENDBRANCH  23  24
BRANCH  23  36
ATOM     36  C   UNL     1      -1.980  -0.337   1.382  0.00  0.00    -0.011 C 
ATOM     37  C   UNL     1      -1.109  -1.037   2.427  0.00  0.00    +0.002 C 
ENDBRANCH  23  36
ENDBRANCH   1  23
TORSDOF 9
