REMARK  Name = ZINC48490670
REMARK  8 active torsions:
REMARK  status: ('A' for Active; 'I' for Inactive)
REMARK    1  A    between atoms: C_1  and  C_2
REMARK    2  A    between atoms: C_2  and  C_3
REMARK    3  A    between atoms: C_3  and  C_4
REMARK    4  A    between atoms: C_4  and  C_5
REMARK    5  A    between atoms: C_5  and  C_6
REMARK    6  A    between atoms: C_6  and  N_7
REMARK    7  A    between atoms: C_8  and  C_10
REMARK    8  A    between atoms: N_12  and  C_13
REMARK                            x       y       z     vdW  Elec       q    Type
REMARK                         _______ _______ _______ _____ _____    ______ ____
ROOT
ATOM      1  C   UNL     1      -5.832  -6.475   0.017  0.00  0.00    +0.303 C 
ATOM      2  O   UNL     1      -6.765  -5.699   0.034  0.00  0.00    -0.265 OA
ATOM      3  N   UNL     1      -6.059  -7.803   0.018  0.00  0.00    -0.276 N 
ATOM      4  H   UNL     1      -5.317  -8.423  -0.061  0.00  0.00    +0.155 HD
ENDROOT
BRANCH   3   5
ATOM      5  C   UNL     1      -7.365  -8.289   0.133  0.00  0.00    +0.052 A 
ATOM      6  C   UNL     1      -8.420  -7.593  -0.444  0.00  0.00    +0.026 A 
ATOM      7  C   UNL     1      -9.709  -8.075  -0.329  0.00  0.00    +0.016 A 
ATOM      8  C   UNL     1      -9.951  -9.249   0.362  0.00  0.00    +0.015 A 
ATOM      9  C   UNL     1      -8.904  -9.945   0.939  0.00  0.00    +0.036 A 
ATOM     10  C   UNL     1      -7.611  -9.471   0.822  0.00  0.00    +0.063 A 
ATOM     11 CL   UNL     1      -6.295 -10.349   1.539  0.00  0.00    -0.082 Cl
ATOM     12  I   UNL     1     -11.909  -9.975   0.535  0.00  0.00    -0.044 I 
ENDBRANCH   3   5
BRANCH   1  14
ATOM     13  N   UNL     1      -4.203  -4.629  -0.006  0.00  0.00    -0.308 N 
ATOM     14  C   UNL     1      -4.431  -5.958  -0.005  0.00  0.00    +0.299 C 
ATOM     15  O   UNL     1      -3.498  -6.733  -0.022  0.00  0.00    -0.265 OA
ATOM     16  H   UNL     1      -4.949  -4.009   0.008  0.00  0.00    +0.149 HD
BRANCH  13  17
ATOM     17  C   UNL     1      -2.829  -4.122  -0.028  0.00  0.00    +0.104 C 
BRANCH  17  18
ATOM     18  C   UNL     1      -2.850  -2.592  -0.024  0.00  0.00    +0.019 C 
BRANCH  18  19
ATOM     19  C   UNL     1      -1.415  -2.062  -0.047  0.00  0.00    +0.002 C 
BRANCH  19  20
ATOM     20  C   UNL     1      -1.437  -0.532  -0.043  0.00  0.00    -0.000 C 
BRANCH  20  22
ATOM     21  C   UNL     1      -0.023   1.528  -0.062  0.00  0.00    +0.004 C 
ATOM     22  C   UNL     1      -0.002  -0.002  -0.066  0.00  0.00    -0.003 C 
ENDBRANCH  20  22
ENDBRANCH  19  20
ENDBRANCH  18  19
ENDBRANCH  17  18
ENDBRANCH  13  17
ENDBRANCH   1  14
TORSDOF 7
