REMARK  Name = ZINC06241891
REMARK  2 active torsions:
REMARK  status: ('A' for Active; 'I' for Inactive)
REMARK    1  A    between atoms: C_4  and  C_7
REMARK    2  A    between atoms: N_12  and  C_18
REMARK                            x       y       z     vdW  Elec       q    Type
REMARK                         _______ _______ _______ _____ _____    ______ ____
ROOT
ATOM      1  C   UNL     1      -1.645   4.389  -0.030  0.00  0.00    +0.130 C 
ATOM      2  C   UNL     1      -0.774   3.315  -0.706  0.00  0.00    +0.088 C 
ATOM      3  C   UNL     1       0.697   3.402  -0.274  0.00  0.00    +0.120 C 
ATOM      4  N   UNL     1       1.078   2.005   0.003  0.00  0.00    -0.293 N 
ATOM      5  C   UNL     1      -0.014   1.213   0.009  0.00  0.00    +0.263 C 
ATOM      6  O   UNL     1       0.002  -0.004   0.002  0.00  0.00    -0.269 OA
ATOM      7  C   UNL     1      -1.220   2.038   0.018  0.00  0.00    +0.127 C 
ATOM      8  N   UNL     1      -2.459   2.244   0.369  0.00  0.00    -0.186 NA
ATOM      9  N   UNL     1      -2.835   3.593   0.352  0.00  0.00    -0.260 N 
ATOM     10  H   UNL     1      -3.716   3.944   0.554  0.00  0.00    +0.169 HD
ENDROOT
BRANCH   1  14
ATOM     11  C   UNL     1      -2.683   7.483  -2.786  0.00  0.00    +0.000 A 
ATOM     12  C   UNL     1      -1.650   7.676  -1.888  0.00  0.00    +0.000 A 
ATOM     13  C   UNL     1      -1.315   6.675  -0.996  0.00  0.00    +0.005 A 
ATOM     14  C   UNL     1      -2.011   5.481  -1.002  0.00  0.00    -0.025 A 
ATOM     15  C   UNL     1      -3.040   5.286  -1.905  0.00  0.00    +0.005 A 
ATOM     16  C   UNL     1      -3.379   6.289  -2.793  0.00  0.00    +0.000 A 
ENDBRANCH   1  14
BRANCH   4  17
ATOM     17  C   UNL     1       2.448   1.542   0.237  0.00  0.00    +0.076 C 
ATOM     18  C   UNL     1       2.823   0.503  -0.822  0.00  0.00    +0.022 C 
ATOM     19  C   UNL     1       4.254   0.020  -0.577  0.00  0.00    +0.002 C 
ATOM     20  C   UNL     1       4.348  -0.611   0.814  0.00  0.00    +0.000 C 
ATOM     21  C   UNL     1       3.973   0.428   1.872  0.00  0.00    +0.002 C 
ATOM     22  C   UNL     1       2.542   0.911   1.627  0.00  0.00    +0.022 C 
ENDBRANCH   4  17
TORSDOF 2
