REMARK  Name = ZINC08957807
REMARK  4 active torsions:
REMARK  status: ('A' for Active; 'I' for Inactive)
REMARK    1  A    between atoms: C_2  and  C_3
REMARK    2  A    between atoms: C_3  and  N_4
REMARK    3  A    between atoms: N_15  and  C_16
REMARK    4  A    between atoms: C_16  and  C_18
REMARK                            x       y       z     vdW  Elec       q    Type
REMARK                         _______ _______ _______ _____ _____    ______ ____
ROOT
ATOM      1  N   UNL     1       1.357   1.975  -0.000  0.00  0.00    -0.308 N 
ATOM      2  C   UNL     1       2.029   2.122  -1.199  0.00  0.00    +0.078 A 
ATOM      3  C   UNL     1       3.337   2.616  -1.086  0.00  0.00    +0.040 A 
ATOM      4  C   UNL     1       4.145   2.822  -2.179  0.00  0.00    +0.019 A 
ATOM      5  C   UNL     1       3.667   2.538  -3.446  0.00  0.00    +0.022 A 
ATOM      6  C   UNL     1       2.378   2.050  -3.590  0.00  0.00    +0.061 A 
ATOM      7  C   UNL     1       1.568   1.842  -2.496  0.00  0.00    +0.084 A 
ATOM      8 CL   UNL     1      -0.039   1.228  -2.723  0.00  0.00    -0.080 Cl
ATOM      9 CL   UNL     1       1.775   1.692  -5.178  0.00  0.00    -0.082 Cl
ATOM     10  S   UNL     1       3.538   2.838   0.664  0.00  0.00    -0.052 S 
ATOM     11  C   UNL     1       1.967   2.305   1.169  0.00  0.00    +0.168 A 
ATOM     12  N   UNL     1       1.477   2.235   2.404  0.00  0.00    -0.149 NA
ENDROOT
BRANCH  12  13
ATOM     13  C   UNL     1       2.230   2.606   3.442  0.00  0.00    +0.305 C 
ATOM     14  O   UNL     1       3.365   3.009   3.259  0.00  0.00    -0.265 OA
BRANCH  13  15
ATOM     15  C   UNL     1       1.684   2.527   4.818  0.00  0.00    +0.196 A 
ATOM     16  C   UNL     1       2.472   2.905   5.853  0.00  0.00    +0.103 A 
ATOM     17  C   UNL     1       1.963   2.841   7.181  0.00  0.00    +0.193 A 
ATOM     18  O   UNL     1       2.640   3.177   8.137  0.00  0.00    -0.287 OA
ATOM     19  C   UNL     1       0.584   2.346   7.353  0.00  0.00    +0.064 A 
ATOM     20  C   UNL     1       0.001   2.243   8.615  0.00  0.00    +0.015 A 
ATOM     21  C   UNL     1      -1.281   1.780   8.732  0.00  0.00    +0.001 A 
ATOM     22  C   UNL     1      -2.002   1.413   7.605  0.00  0.00    +0.004 A 
ATOM     23  C   UNL     1      -1.442   1.508   6.349  0.00  0.00    +0.047 A 
ATOM     24  C   UNL     1      -0.140   1.977   6.207  0.00  0.00    +0.139 A 
ATOM     25  O   UNL     1       0.431   2.079   4.990  0.00  0.00    -0.450 OA
ENDBRANCH  13  15
ENDBRANCH  12  13
BRANCH   1  26
ATOM     26  C   UNL     1      -0.018   1.468   0.010  0.00  0.00    +0.212 C 
BRANCH  26  28
ATOM     27  C   UNL     1       0.017  -1.176  -0.089  0.00  0.00    +0.005 C 
ATOM     28  C   UNL     1       0.001  -0.003  -0.045  0.00  0.00    -0.084 C 
ENDBRANCH  26  28
ENDBRANCH   1  26
TORSDOF 4
