REMARK  Name = ZINC06246617
REMARK  12 active torsions:
REMARK  status: ('A' for Active; 'I' for Inactive)
REMARK    1  A    between atoms: C_1  and  C_2
REMARK    2  A    between atoms: C_5  and  C_8
REMARK    3  A    between atoms: C_11  and  S_19
REMARK    4  A    between atoms: N_12  and  C_13
REMARK    5  A    between atoms: S_19  and  C_20
REMARK    6  A    between atoms: C_20  and  C_22
REMARK    7  A    between atoms: C_20  and  C_23
REMARK    8  A    between atoms: N_25  and  N_26
REMARK    9  A    between atoms: C_27  and  C_29
REMARK   10  A    between atoms: C_29  and  O_30
REMARK   11  A    between atoms: O_30  and  C_31
REMARK   12  A    between atoms: C_34  and  C_37
REMARK                            x       y       z     vdW  Elec       q    Type
REMARK                         _______ _______ _______ _____ _____    ______ ____
ROOT
ATOM      1  S   UNL     1      -1.437   2.368   0.362  0.00  0.00    -0.073 S 
ENDROOT
BRANCH   1   5
ATOM      2  C   UNL     1       1.328  -0.345  -0.169  0.00  0.00    +0.169 A 
ATOM      3  N   UNL     1       2.025   0.763  -0.067  0.00  0.00    -0.128 NA
ATOM      4  N   UNL     1       1.238   1.762   0.116  0.00  0.00    -0.122 NA
ATOM      5  C   UNL     1      -0.012   1.355   0.143  0.00  0.00    +0.197 A 
ATOM      6  N   UNL     1       0.001  -0.001  -0.038  0.00  0.00    -0.270 N 
BRANCH   2  11
ATOM      7  C   UNL     1       3.424  -5.639  -1.004  0.00  0.00    +0.044 C 
ATOM      8  C   UNL     1       2.875  -4.253  -0.785  0.00  0.00    -0.050 A 
ATOM      9  C   UNL     1       1.539  -3.994  -1.036  0.00  0.00    +0.004 A 
ATOM     10  C   UNL     1       1.030  -2.727  -0.838  0.00  0.00    +0.012 A 
ATOM     11  C   UNL     1       1.867  -1.705  -0.384  0.00  0.00    +0.020 A 
ATOM     12  C   UNL     1       3.215  -1.972  -0.139  0.00  0.00    +0.012 A 
ATOM     13  C   UNL     1       3.709  -3.245  -0.335  0.00  0.00    +0.004 A 
ENDBRANCH   2  11
BRANCH   6  14
ATOM     14  C   UNL     1      -1.106  -0.861  -0.081  0.00  0.00    +0.051 A 
ATOM     15  C   UNL     1      -1.308  -1.786   0.934  0.00  0.00    +0.026 A 
ATOM     16  C   UNL     1      -2.402  -2.628   0.892  0.00  0.00    +0.002 A 
ATOM     17  C   UNL     1      -3.290  -2.558  -0.166  0.00  0.00    +0.000 A 
ATOM     18  C   UNL     1      -3.088  -1.641  -1.181  0.00  0.00    +0.002 A 
ATOM     19  C   UNL     1      -1.999  -0.792  -1.142  0.00  0.00    +0.026 A 
ENDBRANCH   6  14
ENDBRANCH   1   5
BRANCH   1  20
ATOM     20  C   UNL     1      -0.648   3.988   0.530  0.00  0.00    +0.138 C 
ATOM     21  C   UNL     1       0.199   4.013   1.804  0.00  0.00    +0.029 C 
BRANCH  20  22
ATOM     22  C   UNL     1      -1.707   5.056   0.610  0.00  0.00    +0.242 C 
ATOM     23  O   UNL     1      -2.819   4.780   1.008  0.00  0.00    -0.273 OA
ATOM     24  N   UNL     1      -1.420   6.320   0.239  0.00  0.00    -0.233 N 
ATOM     25  H   UNL     1      -0.531   6.541  -0.080  0.00  0.00    +0.173 HD
BRANCH  24  26
ATOM     26  N   UNL     1      -2.405   7.313   0.313  0.00  0.00    -0.232 N 
ATOM     27  C   UNL     1      -2.117   8.577  -0.058  0.00  0.00    +0.267 C 
ATOM     28  O   UNL     1      -1.005   8.854  -0.456  0.00  0.00    -0.271 OA
ATOM     29  H   UNL     1      -3.294   7.092   0.632  0.00  0.00    +0.173 HD
BRANCH  27  30
ATOM     30  C   UNL     1      -3.177   9.645   0.022  0.00  0.00    +0.326 C 
BRANCH  30  31
ATOM     31  O   UNL     1      -2.632  10.890  -0.422  0.00  0.00    -0.483 OA
BRANCH  31  32
ATOM     32  C   UNL     1      -3.464  11.965  -0.413  0.00  0.00    +0.121 A 
ATOM     33  C   UNL     1      -4.777  11.824   0.010  0.00  0.00    +0.046 A 
ATOM     34  C   UNL     1      -5.619  12.920   0.024  0.00  0.00    +0.007 A 
ATOM     35  C   UNL     1      -5.155  14.154  -0.394  0.00  0.00    -0.050 A 
ATOM     36  C   UNL     1      -3.848  14.296  -0.821  0.00  0.00    +0.007 A 
ATOM     37  C   UNL     1      -3.001  13.204  -0.831  0.00  0.00    +0.046 A 
ATOM     38  C   UNL     1      -6.077  15.346  -0.383  0.00  0.00    +0.044 C 
ENDBRANCH  31  32
ENDBRANCH  30  31
ENDBRANCH  27  30
ENDBRANCH  24  26
ENDBRANCH  20  22
ENDBRANCH   1  20
TORSDOF 9
