REMARK  Name = ZINC67561162
REMARK  5 active torsions:
REMARK  status: ('A' for Active; 'I' for Inactive)
REMARK    1  A    between atoms: C_1  and  C_2
REMARK    2  A    between atoms: C_7  and  C_10
REMARK    3  A    between atoms: N_18  and  C_19
REMARK    4  A    between atoms: C_22  and  C_25
REMARK    5  A    between atoms: C_25  and  C_26
REMARK                            x       y       z     vdW  Elec       q    Type
REMARK                         _______ _______ _______ _____ _____    ______ ____
ROOT
ATOM      1  C   UNL     1      -1.610   1.696   0.857  0.00  0.00    +0.039 C 
ATOM      2  C   UNL     1      -1.172   0.286   0.457  0.00  0.00    +0.133 C 
ATOM      3  C   UNL     1      -2.304  -0.705   0.749  0.00  0.00    +0.140 C 
ATOM      4  N   UNL     1      -1.795  -2.068   0.533  0.00  0.00    -0.280 N 
ATOM      5  C   UNL     1      -0.532  -2.446   1.185  0.00  0.00    +0.145 C 
ATOM      6  C   UNL     1       0.515  -1.371   0.872  0.00  0.00    +0.166 C 
ATOM      7  O   UNL     1      -0.014  -0.086   1.208  0.00  0.00    -0.366 OA
ATOM      8  C   UNL     1      -2.467  -2.946  -0.239  0.00  0.00    +0.307 C 
ATOM      9  O   UNL     1      -3.555  -2.647  -0.693  0.00  0.00    -0.252 OA
ATOM     10  N   UNL     1      -1.933  -4.154  -0.507  0.00  0.00    -0.269 N 
ATOM     11  H   UNL     1      -1.117  -4.433  -0.063  0.00  0.00    +0.156 HD
ENDROOT
BRANCH   6  12
ATOM     12  C   UNL     1       1.761  -1.630   1.679  0.00  0.00    -0.017 A 
ATOM     13  C   UNL     1       1.815  -1.254   3.007  0.00  0.00    +0.006 A 
ATOM     14  C   UNL     1       2.958  -1.492   3.747  0.00  0.00    +0.000 A 
ATOM     15  C   UNL     1       4.047  -2.107   3.159  0.00  0.00    +0.000 A 
ATOM     16  C   UNL     1       3.992  -2.485   1.830  0.00  0.00    +0.000 A 
ATOM     17  C   UNL     1       2.848  -2.251   1.091  0.00  0.00    +0.006 A 
ENDBRANCH   6  12
BRANCH  10  18
ATOM     18  C   UNL     1      -2.556  -5.006  -1.426  0.00  0.00    +0.035 A 
ATOM     19  C   UNL     1      -3.223  -4.477  -2.524  0.00  0.00    +0.023 A 
ATOM     20  C   UNL     1      -3.836  -5.320  -3.429  0.00  0.00    +0.006 A 
ATOM     21  C   UNL     1      -3.787  -6.690  -3.244  0.00  0.00    -0.034 A 
ATOM     22  C   UNL     1      -3.124  -7.219  -2.152  0.00  0.00    +0.006 A 
ATOM     23  C   UNL     1      -2.504  -6.381  -1.246  0.00  0.00    +0.023 A 
BRANCH  21  24
ATOM     24  C   UNL     1      -4.457  -7.607  -4.234  0.00  0.00    +0.153 C 
BRANCH  24  25
ATOM     25  C   UNL     1      -3.503  -7.964  -5.297  0.00  0.00    +0.067 C 
ATOM     26  N   UNL     1      -2.766  -8.239  -6.117  0.00  0.00    -0.196 NA
ENDBRANCH  24  25
ENDBRANCH  21  24
ENDBRANCH  10  18
TORSDOF 4
