REMARK  Name = ZINC21352560
REMARK  13 active torsions:
REMARK  status: ('A' for Active; 'I' for Inactive)
REMARK    1  A    between atoms: C_1  and  C_2
REMARK    2  A    between atoms: C_2  and  C_3
REMARK    3  A    between atoms: C_2  and  C_4
REMARK    4  A    between atoms: C_2  and  C_5
REMARK    5  A    between atoms: C_18  and  C_20
REMARK    6  A    between atoms: C_20  and  C_21
REMARK    7  A    between atoms: C_21  and  C_22
REMARK    8  A    between atoms: N_24  and  C_25
REMARK    9  A    between atoms: C_25  and  C_26
REMARK   10  A    between atoms: C_29  and  O_34
REMARK   11  A    between atoms: C_30  and  O_32
REMARK   12  A    between atoms: O_32  and  C_33
REMARK   13  A    between atoms: O_34  and  C_35
REMARK                            x       y       z     vdW  Elec       q    Type
REMARK                         _______ _______ _______ _____ _____    ______ ____
ROOT
ATOM      1  C   UNL     1       5.646   4.137  -0.409  0.00  0.00    -0.000 C 
ATOM      2  C   UNL     1       5.902   2.874   0.418  0.00  0.00    +0.009 C 
ATOM      3  C   UNL     1       4.966   1.755  -0.040  0.00  0.00    +0.037 C 
ATOM      4  C   UNL     1       3.531   2.275  -0.021  0.00  0.00    -0.023 A 
ATOM      5  C   UNL     1       3.278   3.601  -0.010  0.00  0.00    -0.004 A 
ATOM      6  S   UNL     1       1.510   3.731   0.009  0.00  0.00    -0.073 S 
ATOM      7  C   UNL     1       1.116   2.001   0.002  0.00  0.00    +0.116 A 
ATOM      8  C   UNL     1       2.375   1.379  -0.014  0.00  0.00    +0.075 A 
ATOM      9  C   UNL     1       2.359  -0.054  -0.022  0.00  0.00    +0.260 A 
ATOM     10  O   UNL     1       3.401  -0.685  -0.037  0.00  0.00    -0.267 OA
ATOM     11  N   UNL     1       1.173  -0.691  -0.014  0.00  0.00    -0.310 N 
ATOM     12  H   UNL     1       1.140  -1.791  -0.019  0.00  0.00    +0.170 HD
ATOM     13  C   UNL     1       0.002  -0.004   0.002  0.00  0.00    +0.111 A 
ATOM     14  N   UNL     1      -0.016   1.302   0.009  0.00  0.00    -0.227 NA
ATOM     15  C   UNL     1       4.279   4.715  -0.015  0.00  0.00    +0.046 C 
ENDROOT
BRANCH   1  17
ATOM     16  C   UNL     1       6.744   5.509   1.367  0.00  0.00    +0.011 C 
ATOM     17  C   UNL     1       6.740   5.168  -0.124  0.00  0.00    -0.035 C 
ATOM     18  C   UNL     1       8.101   4.589  -0.518  0.00  0.00    +0.011 C 
ATOM     19  C   UNL     1       6.471   6.436  -0.937  0.00  0.00    +0.011 C 
ENDBRANCH   1  17
BRANCH  13  20
ATOM     20  C   UNL     1      -1.300  -0.762   0.011  0.00  0.00    +0.083 C 
BRANCH  20  21
ATOM     21  C   UNL     1      -2.467   0.228   0.027  0.00  0.00    +0.103 C 
BRANCH  21  22
ATOM     22  C   UNL     1      -3.769  -0.529   0.036  0.00  0.00    +0.214 C 
ATOM     23  O   UNL     1      -3.765  -1.742   0.029  0.00  0.00    -0.276 OA
ATOM     24  N   UNL     1      -4.939   0.141   0.051  0.00  0.00    -0.311 N 
ATOM     25  H   UNL     1      -4.942   1.240   0.057  0.00  0.00    +0.149 HD
BRANCH  24  26
ATOM     26  C   UNL     1      -6.205  -0.596   0.059  0.00  0.00    +0.139 C 
BRANCH  26  27
ATOM     27  C   UNL     1      -7.353   0.379   0.076  0.00  0.00    -0.027 A 
ATOM     28  C   UNL     1      -7.871   0.815   1.282  0.00  0.00    +0.009 A 
ATOM     29  C   UNL     1      -8.921   1.714   1.302  0.00  0.00    +0.050 A 
ATOM     30  C   UNL     1      -9.464   2.172   0.112  0.00  0.00    +0.162 A 
ATOM     31  C   UNL     1      -8.947   1.729  -1.101  0.00  0.00    +0.162 A 
ATOM     32  C   UNL     1      -7.891   0.832  -1.115  0.00  0.00    +0.054 A 
BRANCH  31  33
ATOM     33  O   UNL     1      -9.476   2.176  -2.271  0.00  0.00    -0.491 OA
ATOM     34  C   UNL     1      -8.895   1.679  -3.478  0.00  0.00    +0.277 C 
ENDBRANCH  31  33
BRANCH  30  35
ATOM     35  O   UNL     1     -10.500   3.052   0.131  0.00  0.00    -0.491 OA
ATOM     36  C   UNL     1     -10.980   3.463   1.413  0.00  0.00    +0.277 C 
ENDBRANCH  30  35
ENDBRANCH  26  27
ENDBRANCH  24  26
ENDBRANCH  21  22
ENDBRANCH  20  21
ENDBRANCH  13  20
TORSDOF 8
