REMARK  Name = ZINC13732580
REMARK  10 active torsions:
REMARK  status: ('A' for Active; 'I' for Inactive)
REMARK    1  A    between atoms: C_1  and  N_2
REMARK    2  A    between atoms: N_2  and  C_3
REMARK    3  A    between atoms: N_2  and  C_4
REMARK    4  A    between atoms: C_4  and  C_5
REMARK    5  A    between atoms: C_5  and  N_6
REMARK    6  A    between atoms: C_7  and  C_26
REMARK    7  A    between atoms: C_9  and  C_14
REMARK    8  A    between atoms: C_14  and  C_16
REMARK    9  A    between atoms: C_30  and  O_32
REMARK   10  A    between atoms: O_32  and  C_33
REMARK                            x       y       z     vdW  Elec       q    Type
REMARK                         _______ _______ _______ _____ _____    ______ ____
ROOT
ATOM      1  N   UNL     1      -0.911   0.547   6.996  0.00  0.00    -0.285 N 
ATOM      2  C   UNL     1      -0.840   1.665   6.047  0.00  0.00    +0.145 C 
ATOM      3  C   UNL     1      -0.014   2.736   6.719  0.00  0.00    +0.076 C 
ATOM      4  C   UNL     1       0.341   2.252   7.932  0.00  0.00    +0.249 C 
ATOM      5  C   UNL     1      -0.220   0.895   8.096  0.00  0.00    +0.288 C 
ATOM      6  O   UNL     1      -0.076   0.196   9.080  0.00  0.00    -0.266 OA
ATOM      7  O   UNL     1       1.090   2.907   8.849  0.00  0.00    -0.282 OA
ENDROOT
BRANCH   2   8
ATOM      8  C   UNL     1      -0.173   1.220   4.771  0.00  0.00    -0.019 A 
ATOM      9  C   UNL     1       1.016   0.516   4.822  0.00  0.00    +0.006 A 
ATOM     10  C   UNL     1       1.630   0.106   3.653  0.00  0.00    +0.004 A 
ATOM     11  C   UNL     1       1.054   0.394   2.431  0.00  0.00    +0.045 A 
ATOM     12  C   UNL     1      -0.137   1.104   2.377  0.00  0.00    +0.120 A 
ATOM     13  C   UNL     1      -0.751   1.514   3.551  0.00  0.00    +0.051 A 
BRANCH  12  14
ATOM     14  O   UNL     1      -0.703   1.393   1.176  0.00  0.00    -0.495 OA
ATOM     15  C   UNL     1      -0.014   0.940   0.008  0.00  0.00    +0.277 C 
ENDBRANCH  12  14
ENDBRANCH   2   8
BRANCH   3  16
ATOM     16  C   UNL     1       0.336   4.049   6.162  0.00  0.00    +0.197 C 
ATOM     17  O   UNL     1       1.498   4.314   5.912  0.00  0.00    -0.287 OA
BRANCH  16  18
ATOM     18  C   UNL     1      -0.715   5.043   5.908  0.00  0.00    +0.047 A 
ATOM     19  C   UNL     1      -2.039   4.933   6.226  0.00  0.00    +0.095 A 
ATOM     20  N   UNL     1      -2.698   6.050   5.835  0.00  0.00    -0.360 N 
ATOM     21  H   UNL     1      -3.780   6.140   6.010  0.00  0.00    +0.165 HD
ATOM     22  C   UNL     1      -1.826   6.941   5.242  0.00  0.00    +0.047 A 
ATOM     23  C   UNL     1      -0.548   6.359   5.265  0.00  0.00    +0.010 A 
ATOM     24  C   UNL     1       0.538   7.039   4.721  0.00  0.00    +0.011 A 
ATOM     25  C   UNL     1       0.355   8.290   4.171  0.00  0.00    +0.001 A 
ATOM     26  C   UNL     1      -0.906   8.868   4.154  0.00  0.00    +0.002 A 
ATOM     27  C   UNL     1      -1.991   8.204   4.684  0.00  0.00    +0.026 A 
ENDBRANCH  16  18
ENDBRANCH   3  16
BRANCH   1  28
ATOM     28  C   UNL     1      -1.611  -0.722   6.782  0.00  0.00    +0.090 C 
BRANCH  28  29
ATOM     29  C   UNL     1      -0.658  -1.728   6.134  0.00  0.00    -0.060 C 
BRANCH  29  31
ATOM     30  C   UNL     1      -0.559  -3.910   5.090  0.00  0.00    -0.097 C 
ATOM     31  N   UNL     1      -1.359  -3.000   5.920  0.00  0.00    +0.377 N 
ATOM     32  C   UNL     1      -1.712  -3.629   7.200  0.00  0.00    -0.097 C 
ATOM     33  H   UNL     1      -2.293  -2.785   5.381  0.00  0.00    -0.083 HD
ENDBRANCH  29  31
ENDBRANCH  28  29
ENDBRANCH   1  28
TORSDOF 7
