REMARK  Name = ZINC15839514
REMARK  10 active torsions:
REMARK  status: ('A' for Active; 'I' for Inactive)
REMARK    1  A    between atoms: C_1  and  C_2
REMARK    2  A    between atoms: C_2  and  C_3
REMARK    3  A    between atoms: C_2  and  C_4
REMARK    4  A    between atoms: C_4  and  N_5
REMARK    5  A    between atoms: C_13  and  S_15
REMARK    6  A    between atoms: S_15  and  C_16
REMARK    7  A    between atoms: C_16  and  C_17
REMARK    8  A    between atoms: N_19  and  C_20
REMARK    9  A    between atoms: C_26  and  C_34
REMARK   10  A    between atoms: C_26  and  C_35
REMARK                            x       y       z     vdW  Elec       q    Type
REMARK                         _______ _______ _______ _____ _____    ______ ____
ROOT
ATOM      1  N   UNL     1       0.469   0.915   1.655  0.00  0.00    -0.229 N 
ATOM      2  C   UNL     1      -0.145   0.291   2.698  0.00  0.00    +0.237 A 
ATOM      3  N   UNL     1      -1.424   0.080   2.967  0.00  0.00    -0.211 NA
ATOM      4  C   UNL     1      -1.794  -0.569   4.071  0.00  0.00    +0.084 A 
ATOM      5  C   UNL     1      -0.829  -1.039   4.957  0.00  0.00    +0.049 A 
ATOM      6  C   UNL     1       0.517  -0.811   4.669  0.00  0.00    +0.266 A 
ATOM      7  O   UNL     1       1.390  -1.206   5.426  0.00  0.00    -0.267 OA
ATOM      8  N   UNL     1       0.837  -0.146   3.538  0.00  0.00    -0.222 N 
ATOM      9  C   UNL     1       2.053   0.217   3.002  0.00  0.00    +0.198 A 
ATOM     10  N   UNL     1       1.850   0.843   1.880  0.00  0.00    -0.143 NA
ATOM     11  C   UNL     1      -1.239  -1.784   6.196  0.00  0.00    +0.001 C 
ATOM     12  C   UNL     1      -2.537  -1.214   6.761  0.00  0.00    +0.047 C 
ATOM     13  C   UNL     1      -3.588  -1.125   5.688  0.00  0.00    -0.037 A 
ATOM     14  C   UNL     1      -3.223  -0.802   4.380  0.00  0.00    +0.004 A 
ATOM     15  C   UNL     1      -4.194  -0.703   3.389  0.00  0.00    +0.010 A 
ATOM     16  C   UNL     1      -5.520  -0.929   3.705  0.00  0.00    +0.001 A 
ATOM     17  C   UNL     1      -5.878  -1.254   5.001  0.00  0.00    +0.000 A 
ATOM     18  C   UNL     1      -4.915  -1.352   5.990  0.00  0.00    +0.004 A 
ATOM     19  C   UNL     1      -1.443  -3.260   5.852  0.00  0.00    +0.016 C 
ATOM     20  C   UNL     1      -0.134  -1.659   7.247  0.00  0.00    +0.016 C 
ENDROOT
BRANCH   1  21
ATOM     21  C   UNL     1      -0.193   1.540   0.508  0.00  0.00    +0.150 C 
BRANCH  21  23
ATOM     22  C   UNL     1       0.840   3.764   0.990  0.00  0.00    +0.009 C 
ATOM     23  C   UNL     1      -0.481   3.010   0.823  0.00  0.00    +0.004 C 
ATOM     24  C   UNL     1      -1.282   3.630  -0.323  0.00  0.00    +0.009 C 
ENDBRANCH  21  23
ENDBRANCH   1  21
BRANCH   9  25
ATOM     25  S   UNL     1       3.628  -0.120   3.717  0.00  0.00    -0.076 S 
BRANCH  25  26
ATOM     26  C   UNL     1       4.705   0.641   2.477  0.00  0.00    +0.173 C 
BRANCH  26  27
ATOM     27  C   UNL     1       6.144   0.471   2.889  0.00  0.00    +0.227 C 
ATOM     28  O   UNL     1       6.415  -0.107   3.920  0.00  0.00    -0.275 OA
ATOM     29  N   UNL     1       7.130   0.962   2.112  0.00  0.00    -0.285 N 
ATOM     30  H   UNL     1       6.918   1.364   1.255  0.00  0.00    +0.155 HD
BRANCH  29  31
ATOM     31  C   UNL     1       8.460   0.891   2.541  0.00  0.00    +0.033 A 
ATOM     32  C   UNL     1       9.346   1.915   2.234  0.00  0.00    +0.023 A 
ATOM     33  C   UNL     1      10.656   1.845   2.664  0.00  0.00    +0.002 A 
ATOM     34  C   UNL     1      11.089   0.750   3.390  0.00  0.00    +0.000 A 
ATOM     35  C   UNL     1      10.211  -0.274   3.692  0.00  0.00    +0.002 A 
ATOM     36  C   UNL     1       8.898  -0.207   3.270  0.00  0.00    +0.023 A 
ENDBRANCH  29  31
ENDBRANCH  26  27
ENDBRANCH  25  26
ENDBRANCH   9  25
TORSDOF 6
