REMARK  Name = ZINC17448641
REMARK  8 active torsions:
REMARK  status: ('A' for Active; 'I' for Inactive)
REMARK    1  A    between atoms: C_1  and  C_2
REMARK    2  A    between atoms: C_10  and  C_11
REMARK    3  A    between atoms: N_13  and  N_14
REMARK    4  A    between atoms: C_15  and  C_17
REMARK    5  A    between atoms: C_21  and  S_23
REMARK    6  A    between atoms: S_23  and  N_26
REMARK    7  A    between atoms: C_28  and  C_35
REMARK    8  A    between atoms: C_31  and  C_34
REMARK                            x       y       z     vdW  Elec       q    Type
REMARK                         _______ _______ _______ _____ _____    ______ ____
ROOT
ATOM      1  N   UNL     1      -3.434   5.873   0.067  0.00  0.00    -0.230 N 
ATOM      2  C   UNL     1      -4.780   5.796   0.079  0.00  0.00    +0.260 C 
ATOM      3  O   UNL     1      -5.326   4.711   0.078  0.00  0.00    -0.269 OA
ATOM      4  H   UNL     1      -2.998   6.740   0.067  0.00  0.00    +0.173 HD
ENDROOT
BRANCH   2   5
ATOM      5  C   UNL     1      -5.590   7.033   0.093  0.00  0.00    +0.040 A 
ATOM      6  C   UNL     1      -4.966   8.281   0.100  0.00  0.00    +0.013 A 
ATOM      7  C   UNL     1      -5.728   9.430   0.108  0.00  0.00    +0.003 A 
ATOM      8  C   UNL     1      -7.110   9.348   0.120  0.00  0.00    +0.028 A 
ATOM      9  C   UNL     1      -7.735   8.114   0.120  0.00  0.00    +0.106 A 
ATOM     10  C   UNL     1      -6.984   6.957   0.106  0.00  0.00    +0.041 A 
BRANCH   9  11
ATOM     11  S   UNL     1      -9.494   8.020   0.137  0.00  0.00    +0.061 S 
ATOM     12  O   UNL     1      -9.972   9.245  -0.403  0.00  0.00    -0.153 OA
ATOM     13  O   UNL     1      -9.839   6.758  -0.417  0.00  0.00    -0.153 OA
BRANCH  11  14
ATOM     14  N   UNL     1      -9.968   7.986   1.723  0.00  0.00    -0.176 NA
ATOM     15  C   UNL     1     -10.120   6.708   2.431  0.00  0.00    +0.112 C 
ATOM     16  C   UNL     1      -9.282   6.759   3.718  0.00  0.00    +0.002 C 
ATOM     17  C   UNL     1      -9.692   7.984   4.538  0.00  0.00    +0.009 C 
ATOM     18  C   UNL     1      -9.415   9.255   3.732  0.00  0.00    +0.002 C 
ATOM     19  C   UNL     1     -10.249   9.233   2.448  0.00  0.00    +0.112 C 
ATOM     20  C   UNL     1      -7.928   9.320   3.375  0.00  0.00    +0.009 C 
ATOM     21  C   UNL     1      -9.529   5.490   4.537  0.00  0.00    +0.009 C 
ENDBRANCH  11  14
ENDBRANCH   9  11
ENDBRANCH   2   5
BRANCH   1  24
ATOM     22  C   UNL     1      -1.320   4.779   0.040  0.00  0.00    +0.296 C 
ATOM     23  O   UNL     1      -0.773   5.865   0.041  0.00  0.00    -0.265 OA
ATOM     24  N   UNL     1      -2.666   4.702   0.053  0.00  0.00    -0.228 N 
ATOM     25  H   UNL     1      -3.102   3.836   0.052  0.00  0.00    +0.173 HD
BRANCH  22  35
ATOM     26  C   UNL     1       1.788   4.680   0.009  0.00  0.00    +0.048 C 
ATOM     27  C   UNL     1       0.844   3.506   0.013  0.00  0.00    +0.008 A 
ATOM     28  C   UNL     1       1.203   2.088   0.002  0.00  0.00    +0.024 A 
ATOM     29  C   UNL     1       2.413   1.391  -0.014  0.00  0.00    +0.012 A 
ATOM     30  C   UNL     1       2.406   0.024  -0.021  0.00  0.00    +0.001 A 
ATOM     31  C   UNL     1       1.206  -0.674  -0.013  0.00  0.00    +0.004 A 
ATOM     32  C   UNL     1       0.002  -0.004   0.002  0.00  0.00    +0.047 A 
ATOM     33  C   UNL     1      -0.017   1.386   0.010  0.00  0.00    +0.136 A 
ATOM     34  O   UNL     1      -1.011   2.296   0.019  0.00  0.00    -0.450 OA
ATOM     35  C   UNL     1      -0.514   3.550   0.026  0.00  0.00    +0.195 A 
ENDBRANCH  22  35
ENDBRANCH   1  24
TORSDOF 5
