REMARK  Name = ZINC22838726
REMARK  10 active torsions:
REMARK  status: ('A' for Active; 'I' for Inactive)
REMARK    1  A    between atoms: C_1  and  C_2
REMARK    2  A    between atoms: C_5  and  C_8
REMARK    3  A    between atoms: C_13  and  C_18
REMARK    4  A    between atoms: C_20  and  O_28
REMARK    5  A    between atoms: C_21  and  O_26
REMARK    6  A    between atoms: C_22  and  O_24
REMARK    7  A    between atoms: O_24  and  C_25
REMARK    8  A    between atoms: O_26  and  C_27
REMARK    9  A    between atoms: O_28  and  C_29
REMARK   10  A    between atoms: C_34  and  C_36
REMARK                            x       y       z     vdW  Elec       q    Type
REMARK                         _______ _______ _______ _____ _____    ______ ____
ROOT
ATOM      1  C   UNL     1       1.034   3.757  -0.005  0.00  0.00    +0.175 C 
ATOM      2  C   UNL     1       1.171   2.250   0.003  0.00  0.00    +0.041 C 
ATOM      3  C   UNL     1       2.375   1.639   0.007  0.00  0.00    +0.020 C 
ATOM      4  C   UNL     1       2.481   0.133   0.040  0.00  0.00    +0.060 C 
ATOM      5  C   UNL     1       1.284  -0.481  -0.689  0.00  0.00    +0.032 C 
ATOM      6  C   UNL     1       0.002  -0.004   0.002  0.00  0.00    +0.088 C 
ATOM      7  C   UNL     1      -0.018   1.499   0.010  0.00  0.00    +0.164 C 
ATOM      8  O   UNL     1      -1.087   2.079   0.018  0.00  0.00    -0.292 OA
ATOM      9  N   UNL     1       3.550   2.353  -0.024  0.00  0.00    -0.287 N 
ATOM     10  C   UNL     1       3.486   3.698  -0.349  0.00  0.00    +0.219 A 
ATOM     11  N   UNL     1       2.309   4.371  -0.350  0.00  0.00    -0.220 N 
ATOM     12  N   UNL     1       2.602   5.681  -0.725  0.00  0.00    -0.143 NA
ATOM     13  C   UNL     1       3.897   5.737  -0.922  0.00  0.00    +0.256 A 
ATOM     14  N   UNL     1       4.428   4.532  -0.692  0.00  0.00    -0.189 NA
ATOM     15  H   UNL     1       4.503   1.854   0.206  0.00  0.00    +0.155 HD
ENDROOT
BRANCH   1  20
ATOM     16  C   UNL     1      -0.609   5.554   5.236  0.00  0.00    +0.044 C 
ATOM     17  C   UNL     1      -0.180   5.085   3.869  0.00  0.00    -0.050 A 
ATOM     18  C   UNL     1      -0.981   5.335   2.770  0.00  0.00    +0.004 A 
ATOM     19  C   UNL     1      -0.588   4.906   1.516  0.00  0.00    +0.006 A 
ATOM     20  C   UNL     1       0.605   4.225   1.361  0.00  0.00    -0.018 A 
ATOM     21  C   UNL     1       1.403   3.970   2.461  0.00  0.00    +0.006 A 
ATOM     22  C   UNL     1       1.013   4.404   3.714  0.00  0.00    +0.004 A 
ENDBRANCH   1  20
BRANCH   5  23
ATOM     23  C   UNL     1       1.366  -1.985  -0.624  0.00  0.00    -0.036 A 
ATOM     24  C   UNL     1       1.399  -2.621   0.602  0.00  0.00    +0.053 A 
ATOM     25  C   UNL     1       1.469  -4.005   0.666  0.00  0.00    +0.165 A 
ATOM     26  C   UNL     1       1.517  -4.751  -0.505  0.00  0.00    +0.204 A 
ATOM     27  C   UNL     1       1.489  -4.107  -1.736  0.00  0.00    +0.165 A 
ATOM     28  C   UNL     1       1.413  -2.724  -1.792  0.00  0.00    +0.053 A 
BRANCH  27  29
ATOM     29  O   UNL     1       1.537  -4.833  -2.886  0.00  0.00    -0.491 OA
ATOM     30  C   UNL     1       1.504  -4.104  -4.115  0.00  0.00    +0.277 C 
ENDBRANCH  27  29
BRANCH  26  31
ATOM     31  O   UNL     1       1.591  -6.109  -0.447  0.00  0.00    -0.488 OA
ATOM     32  C   UNL     1       2.898  -6.686  -0.411  0.00  0.00    +0.277 C 
ENDBRANCH  26  31
BRANCH  25  33
ATOM     33  O   UNL     1       1.496  -4.630   1.874  0.00  0.00    -0.491 OA
ATOM     34  C   UNL     1       1.443  -3.800   3.035  0.00  0.00    +0.277 C 
ENDBRANCH  25  33
ENDBRANCH   5  23
BRANCH  13  35
ATOM     35  C   UNL     1       4.664   6.965  -1.341  0.00  0.00    +0.454 C 
ATOM     36  F   UNL     1       5.364   7.475  -0.243  0.00  0.00    -0.163 F 
ATOM     37  F   UNL     1       5.567   6.626  -2.354  0.00  0.00    -0.163 F 
ATOM     38  F   UNL     1       3.772   7.933  -1.816  0.00  0.00    -0.163 F 
ENDBRANCH  13  35
TORSDOF 6
