REMARK  Name = ZINC04556331
REMARK  6 active torsions:
REMARK  status: ('A' for Active; 'I' for Inactive)
REMARK    1  A    between atoms: C_1  and  C_2
REMARK    2  A    between atoms: C_2  and  N_47
REMARK    3  A    between atoms: C_10  and  O_26
REMARK    4  A    between atoms: C_12  and  C_15
REMARK    5  A    between atoms: C_16  and  C_17
REMARK    6  A    between atoms: C_20  and  N_23
REMARK                            x       y       z     vdW  Elec       q    Type
REMARK                         _______ _______ _______ _____ _____    ______ ____
ROOT
ATOM      1  C   UNL     1     -10.205   1.190  -0.476  0.00  0.00    -0.074 C 
ATOM      2  C   UNL     1      -8.896   0.771   0.199  0.00  0.00    +0.018 C 
ATOM      3  C   UNL     1      -7.767   0.925  -0.814  0.00  0.00    -0.027 A 
ATOM      4  C   UNL     1      -8.053   1.021  -2.135  0.00  0.00    -0.021 A 
ATOM      5  S   UNL     1      -6.478   1.189  -2.930  0.00  0.00    -0.080 S 
ATOM      6  C   UNL     1      -5.474   1.135  -1.546  0.00  0.00    +0.080 A 
ATOM      7  C   UNL     1      -6.359   0.983  -0.470  0.00  0.00    +0.067 A 
ATOM      8  C   UNL     1      -5.766   0.896   0.890  0.00  0.00    +0.220 C 
ATOM      9  N   UNL     1      -4.505   1.206   1.022  0.00  0.00    -0.223 NA
ATOM     10  C   UNL     1      -3.652   1.693  -0.055  0.00  0.00    +0.217 C 
ATOM     11  N   UNL     1      -4.115   1.215  -1.371  0.00  0.00    -0.313 N 
ATOM     12  C   UNL     1      -9.413   0.987  -2.756  0.00  0.00    -0.035 C 
ATOM     13  H   UNL     1      -3.494   0.971  -2.075  0.00  0.00    +0.149 HD
ATOM     14  N   UNL     1     -10.360   0.453  -1.747  0.00  0.00    +0.383 N 
ATOM     15  H   UNL     1     -10.151  -0.540  -1.585  0.00  0.00    -0.081 HD
ENDROOT
BRANCH  14  17
ATOM     16  C   UNL     1     -11.938  -0.363  -3.431  0.00  0.00    -0.017 C 
ATOM     17  C   UNL     1     -11.748   0.578  -2.240  0.00  0.00    -0.082 C 
ENDBRANCH  14  17
BRANCH  10  18
ATOM     18  C   UNL     1      -3.662   3.200  -0.047  0.00  0.00    +0.019 C 
ATOM     19  C   UNL     1      -2.560   3.868   0.262  0.00  0.00    +0.007 C 
BRANCH  19  20
ATOM     20  C   UNL     1      -1.375   3.145   0.770  0.00  0.00    -0.025 A 
ATOM     21  C   UNL     1      -0.099   3.486   0.319  0.00  0.00    +0.010 A 
ATOM     22  C   UNL     1       1.002   2.804   0.793  0.00  0.00    +0.033 A 
ATOM     23  C   UNL     1       0.845   1.790   1.721  0.00  0.00    +0.126 A 
ATOM     24  C   UNL     1      -0.416   1.450   2.176  0.00  0.00    +0.033 A 
ATOM     25  C   UNL     1      -1.527   2.122   1.706  0.00  0.00    +0.010 A 
BRANCH  23  26
ATOM     26  N   UNL     1       2.031   1.066   2.229  0.00  0.00    +0.056 N 
ATOM     27  O   UNL     1       3.143   1.363   1.830  0.00  0.00    -0.126 OA
ATOM     28  O   UNL     1       1.896   0.173   3.046  0.00  0.00    -0.126 OA
ENDBRANCH  23  26
ENDBRANCH  19  20
ENDBRANCH  10  18
BRANCH   8  29
ATOM     29  O   UNL     1      -6.508   0.510   1.954  0.00  0.00    -0.492 OA
ATOM     30  H   UNL     1      -6.019   0.490   2.788  0.00  0.00    +0.294 HD
ENDBRANCH   8  29
TORSDOF 5
