REMARK  Name = ZINC36743196
REMARK  6 active torsions:
REMARK  status: ('A' for Active; 'I' for Inactive)
REMARK    1  A    between atoms: C_1  and  C_2
REMARK    2  A    between atoms: C_3  and  S_9
REMARK    3  A    between atoms: C_4  and  C_8
REMARK    4  A    between atoms: S_9  and  N_12
REMARK    5  A    between atoms: N_12  and  C_13
REMARK    6  A    between atoms: C_14  and  N_21
REMARK                            x       y       z     vdW  Elec       q    Type
REMARK                         _______ _______ _______ _____ _____    ______ ____
ROOT
ATOM      1  N   UNL     1       2.324  -0.009  -2.879  0.00  0.00    -0.213 N 
ATOM      2  H   UNL     1       2.752   0.856  -2.781  0.00  0.00    +0.174 HD
ENDROOT
BRANCH   1   3
ATOM      3  C   UNL     1       3.026  -1.076  -3.455  0.00  0.00    +0.083 A 
ATOM      4  C   UNL     1       2.685  -1.532  -4.728  0.00  0.00    +0.049 A 
ATOM      5  C   UNL     1       3.383  -2.589  -5.292  0.00  0.00    +0.040 A 
ATOM      6  C   UNL     1       4.416  -3.188  -4.593  0.00  0.00    +0.021 A 
ATOM      7  C   UNL     1       4.755  -2.736  -3.331  0.00  0.00    +0.032 A 
ATOM      8  C   UNL     1       4.067  -1.678  -2.763  0.00  0.00    +0.043 A 
ATOM      9 BR   UNL     1       4.539  -1.059  -1.040  0.00  0.00    -0.048 Br
ATOM     10 BR   UNL     1       5.366  -4.629  -5.365  0.00  0.00    -0.050 Br
BRANCH   4  11
ATOM     11  N   UNL     1       1.639  -0.925  -5.434  0.00  0.00    -0.356 N 
ATOM     12  H   UNL     1       1.151  -0.187  -5.037  0.00  0.00    +0.142 HD
ATOM     13  H   UNL     1       1.402  -1.244  -6.319  0.00  0.00    +0.142 HD
ENDBRANCH   4  11
ENDBRANCH   1   3
BRANCH   1  14
ATOM     14  S   UNL     1       0.764  -0.225  -2.367  0.00  0.00    +0.076 S 
ATOM     15  O   UNL     1       0.085  -0.910  -3.410  0.00  0.00    -0.150 OA
ATOM     16  O   UNL     1       0.323   1.030  -1.867  0.00  0.00    -0.150 OA
BRANCH  14  19
ATOM     17  C   UNL     1       1.383   0.402   0.797  0.00  0.00    +0.067 C 
ATOM     18  C   UNL     1       1.079  -0.984   0.291  0.00  0.00    +0.060 A 
ATOM     19  C   UNL     1       0.815  -1.325  -0.992  0.00  0.00    +0.151 A 
ATOM     20  C   UNL     1       0.588  -2.705  -1.033  0.00  0.00    +0.087 A 
ATOM     21  N   UNL     1       0.712  -3.175   0.182  0.00  0.00    -0.177 NA
ATOM     22  N   UNL     1       1.027  -2.109   1.034  0.00  0.00    -0.280 N 
ATOM     23  H   UNL     1       1.179  -2.169   1.991  0.00  0.00    +0.189 HD
ATOM     24  C   UNL     1       0.258  -3.510  -2.263  0.00  0.00    +0.069 C 
ENDBRANCH  14  19
ENDBRANCH   1  14
TORSDOF 4
