REMARK  Name = ZINC47535027
REMARK  10 active torsions:
REMARK  status: ('A' for Active; 'I' for Inactive)
REMARK    1  A    between atoms: C_1  and  C_2
REMARK    2  A    between atoms: C_2  and  C_4
REMARK    3  A    between atoms: C_2  and  N_16
REMARK    4  A    between atoms: C_17  and  C_19
REMARK    5  A    between atoms: C_22  and  O_29
REMARK    6  A    between atoms: C_23  and  O_27
REMARK    7  A    between atoms: C_24  and  O_25
REMARK    8  A    between atoms: O_25  and  C_26
REMARK    9  A    between atoms: O_27  and  C_28
REMARK   10  A    between atoms: O_29  and  C_30
REMARK                            x       y       z     vdW  Elec       q    Type
REMARK                         _______ _______ _______ _____ _____    ______ ____
ROOT
ATOM      1  N   UNL     1       0.711  -0.489   1.189  0.00  0.00    -0.305 N 
ATOM      2  C   UNL     1       0.051  -0.633   2.355  0.00  0.00    +0.248 C 
ATOM      3  O   UNL     1      -1.132  -0.361   2.423  0.00  0.00    -0.270 OA
ATOM      4  H   UNL     1       1.654  -0.707   1.135  0.00  0.00    +0.150 HD
ENDROOT
BRANCH   2   5
ATOM      5  C   UNL     1       0.764  -1.121   3.549  0.00  0.00    +0.082 A 
ATOM      6  C   UNL     1       2.126  -1.431   3.476  0.00  0.00    +0.020 A 
ATOM      7  C   UNL     1       2.790  -1.886   4.591  0.00  0.00    +0.050 A 
ATOM      8  C   UNL     1       2.112  -2.042   5.796  0.00  0.00    +0.165 A 
ATOM      9  C   UNL     1       0.758  -1.738   5.882  0.00  0.00    +0.204 A 
ATOM     10  C   UNL     1       0.080  -1.272   4.764  0.00  0.00    +0.177 A 
BRANCH  10  11
ATOM     11  O   UNL     1      -1.241  -0.969   4.845  0.00  0.00    -0.491 OA
ATOM     12  C   UNL     1      -2.166  -2.023   4.569  0.00  0.00    +0.277 C 
ENDBRANCH  10  11
BRANCH   9  13
ATOM     13  O   UNL     1       0.099  -1.893   7.062  0.00  0.00    -0.488 OA
ATOM     14  C   UNL     1       0.074  -0.768   7.944  0.00  0.00    +0.277 C 
ENDBRANCH   9  13
BRANCH   8  15
ATOM     15  O   UNL     1       2.775  -2.493   6.892  0.00  0.00    -0.491 OA
ATOM     16  C   UNL     1       4.165  -2.787   6.734  0.00  0.00    +0.277 C 
ENDBRANCH   8  15
ENDBRANCH   2   5
BRANCH   1  18
ATOM     17  C   UNL     1      -0.019   1.526   0.010  0.00  0.00    +0.033 C 
ATOM     18  C   UNL     1       0.002  -0.004   0.002  0.00  0.00    +0.100 C 
BRANCH  18  19
ATOM     19  C   UNL     1       0.707  -0.490  -1.238  0.00  0.00    -0.025 A 
ATOM     20  C   UNL     1       2.091  -0.510  -1.281  0.00  0.00    +0.007 A 
ATOM     21  C   UNL     1       2.747  -0.953  -2.413  0.00  0.00    +0.028 A 
ATOM     22  C   UNL     1       2.015  -1.381  -3.510  0.00  0.00    +0.067 A 
ATOM     23  C   UNL     1       0.620  -1.361  -3.467  0.00  0.00    +0.067 A 
ATOM     24  C   UNL     1      -0.029  -0.919  -2.324  0.00  0.00    +0.033 A 
ATOM     25  N   UNL     1       0.172  -1.841  -4.696  0.00  0.00    -0.306 N 
ATOM     26  H   UNL     1      -0.755  -1.943  -4.962  0.00  0.00    +0.170 HD
ATOM     27  C   UNL     1       1.246  -2.139  -5.451  0.00  0.00    +0.325 A 
ATOM     28  O   UNL     1       1.205  -2.582  -6.584  0.00  0.00    -0.247 OA
ATOM     29  N   UNL     1       2.373  -1.872  -4.764  0.00  0.00    -0.306 N 
ATOM     30  H   UNL     1       3.278  -2.000  -5.087  0.00  0.00    +0.170 HD
ENDBRANCH  18  19
ENDBRANCH   1  18
TORSDOF 6
