REMARK  Name = ZINC00688750
REMARK  11 active torsions:
REMARK  status: ('A' for Active; 'I' for Inactive)
REMARK    1  A    between atoms: C_1  and  C_2
REMARK    2  A    between atoms: C_2  and  C_3
REMARK    3  A    between atoms: C_3  and  C_5
REMARK    4  A    between atoms: C_3  and  O_25
REMARK    5  A    between atoms: N_7  and  C_8
REMARK    6  A    between atoms: C_9  and  C_22
REMARK    7  A    between atoms: C_14  and  C_18
REMARK    8  A    between atoms: C_18  and  C_19
REMARK    9  A    between atoms: C_18  and  C_20
REMARK   10  A    between atoms: C_18  and  C_21
REMARK   11  A    between atoms: O_25  and  C_26
REMARK                            x       y       z     vdW  Elec       q    Type
REMARK                         _______ _______ _______ _____ _____    ______ ____
ROOT
ATOM      1  C   UNL     1      -0.020   1.730   0.255  0.00  0.00    +0.084 A 
ATOM      2  C   UNL     1       1.326   2.066   0.286  0.00  0.00    +0.068 A 
ATOM      3  C   UNL     1       2.287   0.980   0.377  0.00  0.00    -0.023 A 
ATOM      4  C   UNL     1       1.752  -0.259   0.421  0.00  0.00    -0.004 A 
ATOM      5  S   UNL     1       0.003  -0.000   0.345  0.00  0.00    -0.077 S 
ATOM      6  C   UNL     1       2.491  -1.559   0.513  0.00  0.00    +0.046 C 
ATOM      7  C   UNL     1       3.966  -1.302   0.172  0.00  0.00    -0.000 C 
ATOM      8  C   UNL     1       4.450  -0.085   0.966  0.00  0.00    +0.009 C 
ATOM      9  C   UNL     1       3.796   1.186   0.421  0.00  0.00    +0.037 C 
ENDROOT
BRANCH   2  10
ATOM     10  C   UNL     1       1.762   3.465   0.229  0.00  0.00    +0.244 C 
ATOM     11  O   UNL     1       1.905   4.100   1.258  0.00  0.00    -0.270 OA
ATOM     12  N   UNL     1       2.004   4.047  -0.962  0.00  0.00    -0.325 N 
ATOM     13  H   UNL     1       1.890   3.541  -1.781  0.00  0.00    +0.145 HD
ATOM     14  H   UNL     1       2.293   4.973  -0.999  0.00  0.00    +0.145 HD
ENDBRANCH   2  10
BRANCH   1  17
ATOM     15  C   UNL     1      -2.362   2.060   0.143  0.00  0.00    +0.258 C 
ATOM     16  O   UNL     1      -2.524   0.859   0.199  0.00  0.00    -0.271 OA
ATOM     17  N   UNL     1      -1.117   2.574   0.167  0.00  0.00    -0.276 N 
ATOM     18  H   UNL     1      -0.988   3.534   0.122  0.00  0.00    +0.155 HD
BRANCH  15  19
ATOM     19  C   UNL     1      -3.554   2.977   0.047  0.00  0.00    +0.259 C 
BRANCH  19  21
ATOM     20  C   UNL     1      -4.671   4.724  -1.347  0.00  0.00    +0.008 C 
ATOM     21  C   UNL     1      -3.533   3.703  -1.299  0.00  0.00    +0.051 C 
ENDBRANCH  19  21
BRANCH  19  22
ATOM     22  O   UNL     1      -4.755   2.210   0.156  0.00  0.00    -0.480 OA
BRANCH  22  23
ATOM     23  C   UNL     1      -5.771   2.753   0.878  0.00  0.00    +0.122 A 
ATOM     24  C   UNL     1      -5.657   4.043   1.377  0.00  0.00    +0.045 A 
ATOM     25  C   UNL     1      -6.693   4.594   2.106  0.00  0.00    +0.004 A 
ATOM     26  C   UNL     1      -7.838   3.858   2.348  0.00  0.00    +0.000 A 
ATOM     27  C   UNL     1      -7.952   2.571   1.857  0.00  0.00    +0.004 A 
ATOM     28  C   UNL     1      -6.921   2.016   1.123  0.00  0.00    +0.045 A 
ENDBRANCH  22  23
ENDBRANCH  19  22
ENDBRANCH  15  19
ENDBRANCH   1  17
BRANCH   7  29
ATOM     29  C   UNL     1       4.801  -2.527   0.551  0.00  0.00    -0.035 C 
ATOM     30  C   UNL     1       4.650  -2.804   2.048  0.00  0.00    +0.011 C 
ATOM     31  C   UNL     1       4.314  -3.741  -0.243  0.00  0.00    +0.011 C 
ATOM     32  C   UNL     1       6.272  -2.262   0.227  0.00  0.00    +0.011 C 
ENDBRANCH   7  29
TORSDOF 7
