REMARK  Name = ZINC31693606
REMARK  10 active torsions:
REMARK  status: ('A' for Active; 'I' for Inactive)
REMARK    1  A    between atoms: C_1  and  C_2
REMARK    2  A    between atoms: C_2  and  C_4
REMARK    3  A    between atoms: C_2  and  N_12
REMARK    4  A    between atoms: C_7  and  S_10
REMARK    5  A    between atoms: S_10  and  C_11
REMARK    6  A    between atoms: C_13  and  C_15
REMARK    7  A    between atoms: C_15  and  C_17
REMARK    8  A    between atoms: C_15  and  C_18
REMARK    9  A    between atoms: C_23  and  O_28
REMARK   10  A    between atoms: O_28  and  C_29
REMARK                            x       y       z     vdW  Elec       q    Type
REMARK                         _______ _______ _______ _____ _____    ______ ____
ROOT
ATOM      1  N   UNL     1      -0.680  -6.131   1.419  0.00  0.00    -0.308 N 
ATOM      2  C   UNL     1      -0.579  -4.803   1.212  0.00  0.00    +0.221 C 
ATOM      3  O   UNL     1      -1.045  -4.027   2.019  0.00  0.00    -0.275 OA
ATOM      4  H   UNL     1      -0.258  -6.835   0.687  0.00  0.00    +0.149 HD
ENDROOT
BRANCH   1   6
ATOM      5  C   UNL     1      -2.859  -6.710   2.366  0.00  0.00    +0.033 C 
ATOM      6  C   UNL     1      -1.352  -6.636   2.619  0.00  0.00    +0.100 C 
BRANCH   6   7
ATOM      7  C   UNL     1      -0.830  -8.012   2.945  0.00  0.00    -0.027 A 
ATOM      8  C   UNL     1      -0.587  -8.917   1.928  0.00  0.00    +0.006 A 
ATOM      9  C   UNL     1      -0.104 -10.176   2.223  0.00  0.00    +0.015 A 
ATOM     10  C   UNL     1       0.128 -10.538   3.545  0.00  0.00    +0.008 A 
ATOM     11  C   UNL     1      -0.123  -9.627   4.565  0.00  0.00    +0.015 A 
ATOM     12  C   UNL     1      -0.601  -8.368   4.262  0.00  0.00    +0.006 A 
BRANCH  10  13
ATOM     13  S   UNL     1       0.737 -12.146   3.927  0.00  0.00    -0.129 S 
ATOM     14  C   UNL     1       0.903 -12.949   2.309  0.00  0.00    +0.090 C 
ENDBRANCH  10  13
ENDBRANCH   6   7
ENDBRANCH   1   6
BRANCH   2  15
ATOM     15  C   UNL     1       0.113  -4.284  -0.022  0.00  0.00    +0.102 C 
ATOM     16  C   UNL     1      -0.612  -4.798  -1.268  0.00  0.00    +0.022 C 
BRANCH  15  17
ATOM     17  C   UNL     1       0.089  -2.777  -0.014  0.00  0.00    -0.035 A 
ATOM     18  C   UNL     1      -1.134  -2.109   0.001  0.00  0.00    +0.005 A 
ATOM     19  C   UNL     1      -1.190  -0.749   0.009  0.00  0.00    +0.009 A 
ATOM     20  C   UNL     1       0.002  -0.004   0.002  0.00  0.00    -0.014 A 
ATOM     21  C   UNL     1      -0.017   1.400   0.010  0.00  0.00    +0.054 A 
ATOM     22  C   UNL     1       1.161   2.091   0.002  0.00  0.00    +0.121 A 
ATOM     23  C   UNL     1       2.387   1.419  -0.013  0.00  0.00    +0.046 A 
ATOM     24  C   UNL     1       2.439   0.060  -0.021  0.00  0.00    +0.012 A 
ATOM     25  C   UNL     1       1.246  -0.683  -0.013  0.00  0.00    -0.017 A 
ATOM     26  C   UNL     1       1.264  -2.088  -0.021  0.00  0.00    +0.013 A 
BRANCH  22  27
ATOM     27  O   UNL     1       1.141   3.450   0.009  0.00  0.00    -0.495 OA
ATOM     28  C   UNL     1       2.405   4.117   0.001  0.00  0.00    +0.277 C 
ENDBRANCH  22  27
ENDBRANCH  15  17
ENDBRANCH   2  15
TORSDOF 6
