REMARK  Name = ZINC05985047
REMARK  4 active torsions:
REMARK  status: ('A' for Active; 'I' for Inactive)
REMARK    1  A    between atoms: C_11  and  C_13
REMARK    2  A    between atoms: C_13  and  O_14
REMARK    3  A    between atoms: O_14  and  C_15
REMARK    4  A    between atoms: C_15  and  C_17
REMARK                            x       y       z     vdW  Elec       q    Type
REMARK                         _______ _______ _______ _____ _____    ______ ____
ROOT
ATOM      1  C   UNL     1       1.241   3.579   0.015  0.00  0.00    +0.341 C 
ATOM      2  O   UNL     1       1.282   4.181   1.070  0.00  0.00    -0.245 OA
ENDROOT
BRANCH   1   3
ATOM      3  C   UNL     1       1.226   2.101   0.009  0.00  0.00    +0.073 A 
ATOM      4  C   UNL     1       2.433   1.359  -0.035  0.00  0.00    +0.015 A 
ATOM      5  C   UNL     1       3.681   1.992  -0.074  0.00  0.00    +0.011 A 
ATOM      6  C   UNL     1       4.817   1.241  -0.119  0.00  0.00    +0.001 A 
ATOM      7  C   UNL     1       4.753  -0.151  -0.126  0.00  0.00    +0.002 A 
ATOM      8  C   UNL     1       3.557  -0.798  -0.087  0.00  0.00    +0.028 A 
ATOM      9  C   UNL     1       2.362  -0.056  -0.040  0.00  0.00    +0.072 A 
ATOM     10  N   UNL     1       1.176  -0.665  -0.002  0.00  0.00    -0.251 NA
ATOM     11  C   UNL     1       0.044   0.003   0.039  0.00  0.00    +0.046 A 
ATOM     12  C   UNL     1       0.029   1.397   0.045  0.00  0.00    -0.012 A 
ATOM     13  C   UNL     1      -1.400   1.894   0.087  0.00  0.00    +0.038 C 
ATOM     14  C   UNL     1      -2.262   0.684  -0.326  0.00  0.00    +0.011 C 
ATOM     15  C   UNL     1      -1.381  -0.514   0.085  0.00  0.00    +0.056 C 
ENDBRANCH   1   3
BRANCH   1  16
ATOM     16  O   UNL     1       1.209   4.258  -1.147  0.00  0.00    -0.452 OA
BRANCH  16  17
ATOM     17  C   UNL     1       1.226   5.708  -1.064  0.00  0.00    +0.328 C 
BRANCH  17  28
ATOM     18  C   UNL     1       0.756   9.215  -6.459  0.00  0.00    +0.000 A 
ATOM     19  C   UNL     1       1.125   7.894  -6.285  0.00  0.00    +0.002 A 
ATOM     20  C   UNL     1       1.236   7.372  -5.012  0.00  0.00    +0.024 A 
ATOM     21  C   UNL     1       0.982   8.175  -3.906  0.00  0.00    +0.040 A 
ATOM     22  C   UNL     1       0.609   9.499  -4.081  0.00  0.00    -0.026 A 
ATOM     23  C   UNL     1       0.499  10.014  -5.362  0.00  0.00    +0.005 A 
ATOM     24  C   UNL     1       0.325  10.399  -2.907  0.00  0.00    +0.038 C 
ATOM     25  C   UNL     1       0.002   9.571  -1.664  0.00  0.00    +0.024 C 
ATOM     26  C   UNL     1       1.109   8.527  -1.462  0.00  0.00    +0.114 C 
ATOM     27  N   UNL     1       1.092   7.625  -2.622  0.00  0.00    -0.268 N 
ATOM     28  C   UNL     1       1.185   6.291  -2.453  0.00  0.00    +0.258 C 
ATOM     29  O   UNL     1       1.237   5.560  -3.420  0.00  0.00    -0.272 OA
ENDBRANCH  17  28
ENDBRANCH  16  17
ENDBRANCH   1  16
TORSDOF 4
