REMARK  Name = ZINC42572309
REMARK  4 active torsions:
REMARK  status: ('A' for Active; 'I' for Inactive)
REMARK    1  A    between atoms: C_1  and  C_2
REMARK    2  A    between atoms: C_2  and  C_4
REMARK    3  A    between atoms: C_2  and  N_8
REMARK    4  A    between atoms: N_6  and  C_7
REMARK                            x       y       z     vdW  Elec       q    Type
REMARK                         _______ _______ _______ _____ _____    ______ ____
ROOT
ATOM      1  N   UNL     1       0.711  -0.489   1.189  0.00  0.00    -0.308 N 
ATOM      2  C   UNL     1       0.176  -1.311   2.178  0.00  0.00    +0.068 A 
ATOM      3  C   UNL     1      -1.071  -1.889   2.364  0.00  0.00    +0.029 A 
ATOM      4  C   UNL     1      -1.306  -2.676   3.474  0.00  0.00    +0.017 A 
ATOM      5  C   UNL     1      -0.301  -2.889   4.404  0.00  0.00    +0.020 A 
ATOM      6  C   UNL     1       0.944  -2.317   4.228  0.00  0.00    +0.043 A 
ATOM      7  C   UNL     1       1.189  -1.526   3.115  0.00  0.00    +0.066 A 
ATOM      8  N   UNL     1       2.307  -0.829   2.666  0.00  0.00    -0.334 N 
ATOM      9  C   UNL     1       1.992  -0.222   1.506  0.00  0.00    +0.159 A 
ATOM     10  S   UNL     1       3.056   0.746   0.578  0.00  0.00    -0.013 S 
ATOM     11 BR   UNL     1      -0.635  -3.968   5.921  0.00  0.00    -0.050 Br
ATOM     12  H   UNL     1       3.168  -0.789   3.111  0.00  0.00    +0.168 HD
ENDROOT
BRANCH   1  14
ATOM     13  C   UNL     1      -0.019   1.526   0.010  0.00  0.00    +0.041 C 
ATOM     14  C   UNL     1       0.002  -0.004   0.002  0.00  0.00    +0.172 C 
BRANCH  14  15
ATOM     15  C   UNL     1       0.707  -0.490  -1.238  0.00  0.00    +0.235 C 
ATOM     16  O   UNL     1       1.704  -1.174  -1.140  0.00  0.00    -0.274 OA
ATOM     17  N   UNL     1       0.231  -0.164  -2.456  0.00  0.00    -0.317 N 
ATOM     18  C   UNL     1       0.917  -0.637  -3.661  0.00  0.00    +0.128 C 
ATOM     19  H   UNL     1      -0.566   0.383  -2.534  0.00  0.00    +0.148 HD
ENDBRANCH  14  15
ENDBRANCH   1  14
TORSDOF 2
