REMARK  Name = ZINC13989879
REMARK  9 active torsions:
REMARK  status: ('A' for Active; 'I' for Inactive)
REMARK    1  A    between atoms: C_4  and  C_7
REMARK    2  A    between atoms: C_7  and  N_8
REMARK    3  A    between atoms: N_8  and  S_9
REMARK    4  A    between atoms: S_9  and  C_12
REMARK    5  A    between atoms: C_15  and  N_18
REMARK    6  A    between atoms: N_18  and  C_19
REMARK    7  A    between atoms: C_19  and  N_21
REMARK    8  A    between atoms: C_22  and  C_24
REMARK    9  A    between atoms: C_25  and  C_26
REMARK                            x       y       z     vdW  Elec       q    Type
REMARK                         _______ _______ _______ _____ _____    ______ ____
ROOT
ATOM      1  N   UNL     1      -2.345   0.934   0.018  0.00  0.00    -0.297 N 
ATOM      2  H   UNL     1      -1.619   1.193   0.607  0.00  0.00    +0.154 HD
ENDROOT
BRANCH   1   6
ATOM      3  C   UNL     1      -5.836   3.203  -0.103  0.00  0.00    +0.105 A 
ATOM      4  C   UNL     1      -5.912   1.824  -0.035  0.00  0.00    +0.030 A 
ATOM      5  C   UNL     1      -4.756   1.069   0.005  0.00  0.00    +0.025 A 
ATOM      6  C   UNL     1      -3.518   1.696  -0.023  0.00  0.00    +0.033 A 
ATOM      7  C   UNL     1      -3.445   3.082  -0.086  0.00  0.00    +0.025 A 
ATOM      8  C   UNL     1      -4.604   3.831  -0.131  0.00  0.00    +0.030 A 
BRANCH   3   9
ATOM      9  S   UNL     1      -7.313   4.163  -0.153  0.00  0.00    +0.059 S 
ATOM     10  O   UNL     1      -6.973   5.400  -0.765  0.00  0.00    -0.153 OA
ATOM     11  O   UNL     1      -8.332   3.315  -0.665  0.00  0.00    -0.153 OA
BRANCH   9  12
ATOM     12  N   UNL     1      -7.727   4.508   1.413  0.00  0.00    -0.186 NA
ATOM     13  H   UNL     1      -8.548   4.151   1.787  0.00  0.00    +0.148 HD
BRANCH  12  14
ATOM     14  C   UNL     1      -6.854   5.352   2.232  0.00  0.00    +0.141 C 
BRANCH  14  18
ATOM     15  C   UNL     1      -8.982   6.660   5.698  0.00  0.00    +0.000 A 
ATOM     16  C   UNL     1      -8.261   5.480   5.733  0.00  0.00    +0.000 A 
ATOM     17  C   UNL     1      -7.573   5.057   4.612  0.00  0.00    +0.005 A 
ATOM     18  C   UNL     1      -7.605   5.813   3.455  0.00  0.00    -0.032 A 
ATOM     19  C   UNL     1      -8.320   6.995   3.421  0.00  0.00    +0.005 A 
ATOM     20  C   UNL     1      -9.013   7.416   4.541  0.00  0.00    +0.000 A 
ENDBRANCH  14  18
ENDBRANCH  12  14
ENDBRANCH   9  12
ENDBRANCH   3   9
ENDBRANCH   1   6
BRANCH   1  21
ATOM     21  C   UNL     1      -2.225  -0.160  -0.760  0.00  0.00    +0.141 C 
ATOM     22  S   UNL     1      -3.546  -0.678  -1.718  0.00  0.00    -0.018 S 
BRANCH  21  23
ATOM     23  N   UNL     1      -1.065  -0.845  -0.784  0.00  0.00    -0.264 N 
ATOM     24  C   UNL     1      -0.946  -1.942  -1.558  0.00  0.00    +0.242 C 
ATOM     25  O   UNL     1      -1.885  -2.311  -2.239  0.00  0.00    -0.270 OA
ATOM     26  H   UNL     1      -0.316  -0.551  -0.242  0.00  0.00    +0.157 HD
BRANCH  24  27
ATOM     27  C   UNL     1       0.310  -2.688  -1.580  0.00  0.00    +0.068 C 
ATOM     28  C   UNL     1       0.429  -3.789  -2.357  0.00  0.00    +0.013 C 
BRANCH  28  29
ATOM     29  C   UNL     1       1.690  -4.538  -2.378  0.00  0.00    -0.017 A 
ATOM     30  C   UNL     1       2.774  -4.130  -1.606  0.00  0.00    +0.008 A 
ATOM     31  C   UNL     1       3.964  -4.841  -1.629  0.00  0.00    +0.001 A 
ATOM     32  C   UNL     1       4.122  -5.954  -2.398  0.00  0.00    +0.008 A 
ATOM     33  C   UNL     1       3.071  -6.425  -3.204  0.00  0.00    -0.017 A 
ATOM     34  C   UNL     1       1.834  -5.735  -3.208  0.00  0.00    -0.011 A 
ATOM     35  C   UNL     1       0.783  -6.204  -4.004  0.00  0.00    +0.009 A 
ATOM     36  C   UNL     1       0.959  -7.323  -4.762  0.00  0.00    +0.001 A 
ATOM     37  C   UNL     1       2.172  -8.007  -4.756  0.00  0.00    +0.001 A 
ATOM     38  C   UNL     1       3.220  -7.572  -4.002  0.00  0.00    +0.008 A 
ENDBRANCH  28  29
ENDBRANCH  24  27
ENDBRANCH  21  23
ENDBRANCH   1  21
TORSDOF 9
