REMARK  Name = ZINC20906472
REMARK  9 active torsions:
REMARK  status: ('A' for Active; 'I' for Inactive)
REMARK    1  A    between atoms: C_1  and  C_2
REMARK    2  A    between atoms: C_6  and  C_28
REMARK    3  A    between atoms: C_7  and  N_8
REMARK    4  A    between atoms: C_9  and  C_11
REMARK    5  A    between atoms: C_11  and  S_12
REMARK    6  A    between atoms: S_12  and  C_13
REMARK    7  A    between atoms: N_18  and  N_19
REMARK    8  A    between atoms: C_20  and  C_21
REMARK    9  A    between atoms: C_25  and  O_27
REMARK                            x       y       z     vdW  Elec       q    Type
REMARK                         _______ _______ _______ _____ _____    ______ ____
ROOT
ATOM      1  C   UNL     1      -4.521   9.377  -1.595  0.00  0.00    +0.211 A 
ATOM      2  N   UNL     1      -3.409   9.008  -2.297  0.00  0.00    -0.186 NA
ATOM      3  C   UNL     1      -3.079   7.734  -1.926  0.00  0.00    +0.232 A 
ATOM      4  N   UNL     1      -3.954   7.331  -1.036  0.00  0.00    -0.245 N 
ATOM      5  N   UNL     1      -4.864   8.374  -0.822  0.00  0.00    -0.144 NA
ATOM      6  N   UNL     1      -2.009   6.995  -2.410  0.00  0.00    -0.205 N 
ATOM      7  H   UNL     1      -1.335   7.431  -3.163  0.00  0.00    +0.177 HD
ATOM      8  H   UNL     1      -3.876   6.322  -0.607  0.00  0.00    +0.192 HD
ENDROOT
BRANCH   6   9
ATOM      9  N   UNL     1      -1.786   5.694  -1.940  0.00  0.00    -0.188 NA
ATOM     10  C   UNL     1      -0.784   5.003  -2.393  0.00  0.00    +0.138 C 
BRANCH  10  11
ATOM     11  C   UNL     1      -0.550   3.634  -1.898  0.00  0.00    -0.002 A 
ATOM     12  C   UNL     1      -1.404   3.078  -0.942  0.00  0.00    +0.010 A 
ATOM     13  C   UNL     1      -1.185   1.794  -0.487  0.00  0.00    +0.004 A 
ATOM     14  C   UNL     1      -0.115   1.059  -0.965  0.00  0.00    +0.045 A 
ATOM     15  C   UNL     1       0.739   1.603  -1.915  0.00  0.00    +0.117 A 
ATOM     16  C   UNL     1       0.526   2.888  -2.384  0.00  0.00    +0.054 A 
BRANCH  15  17
ATOM     17  O   UNL     1       1.785   0.874  -2.384  0.00  0.00    -0.507 OA
ATOM     18  H   UNL     1       2.462   1.304  -3.137  0.00  0.00    +0.292 HD
ENDBRANCH  15  17
ENDBRANCH  10  11
ENDBRANCH   6   9
BRANCH   1  19
ATOM     19  S   UNL     1      -5.349  10.928  -1.707  0.00  0.00    -0.075 S 
BRANCH  19  20
ATOM     20  C   UNL     1      -6.726  10.777  -0.536  0.00  0.00    +0.173 C 
BRANCH  20  22
ATOM     21  N   UNL     1      -8.605  12.171   0.266  0.00  0.00    -0.284 N 
ATOM     22  C   UNL     1      -7.526  12.053  -0.533  0.00  0.00    +0.228 C 
ATOM     23  O   UNL     1      -7.200  12.975  -1.251  0.00  0.00    -0.275 OA
ATOM     24  H   UNL     1      -8.936  11.315   0.873  0.00  0.00    +0.155 HD
BRANCH  21  31
ATOM     25  C   UNL     1      -7.132  14.547   0.800  0.00  0.00    +0.045 C 
ATOM     26  C   UNL     1      -8.623  14.566   0.583  0.00  0.00    -0.029 A 
ATOM     27  C   UNL     1      -9.315  15.760   0.635  0.00  0.00    +0.005 A 
ATOM     28  C   UNL     1     -10.684  15.777   0.442  0.00  0.00    +0.001 A 
ATOM     29  C   UNL     1     -11.364  14.600   0.191  0.00  0.00    +0.005 A 
ATOM     30  C   UNL     1     -10.678  13.403   0.132  0.00  0.00    -0.029 A 
ATOM     31  C   UNL     1      -9.303  13.382   0.325  0.00  0.00    +0.039 A 
ATOM     32  C   UNL     1     -11.420  12.120  -0.142  0.00  0.00    +0.045 C 
ENDBRANCH  21  31
ENDBRANCH  20  22
ENDBRANCH  19  20
ENDBRANCH   1  19
TORSDOF 7
