REMARK  Name = ZINC10505282
REMARK  6 active torsions:
REMARK  status: ('A' for Active; 'I' for Inactive)
REMARK    1  A    between atoms: N_9  and  S_10
REMARK    2  A    between atoms: S_10  and  C_13
REMARK    3  A    between atoms: C_16  and  N_19
REMARK    4  A    between atoms: N_19  and  C_20
REMARK    5  A    between atoms: C_20  and  N_22
REMARK    6  A    between atoms: C_23  and  C_25
REMARK                            x       y       z     vdW  Elec       q    Type
REMARK                         _______ _______ _______ _____ _____    ______ ____
ROOT
ATOM      1  C   UNL     1      -2.223  12.146  -0.065  0.00  0.00    +0.109 A 
ATOM      2  C   UNL     1      -3.454  11.521   0.019  0.00  0.00    +0.030 A 
ATOM      3  C   UNL     1      -3.530  10.143   0.064  0.00  0.00    +0.025 A 
ATOM      4  C   UNL     1      -2.368   9.384   0.023  0.00  0.00    +0.033 A 
ATOM      5  C   UNL     1      -1.132  10.014  -0.057  0.00  0.00    +0.025 A 
ATOM      6  C   UNL     1      -1.064  11.392  -0.106  0.00  0.00    +0.030 A 
ENDROOT
BRANCH   1   7
ATOM      7  S   UNL     1      -2.131  13.904  -0.121  0.00  0.00    +0.075 S 
ATOM      8  O   UNL     1      -0.897  14.227  -0.749  0.00  0.00    -0.150 OA
ATOM      9  O   UNL     1      -3.381  14.361  -0.618  0.00  0.00    -0.150 OA
BRANCH   7  18
ATOM     10  C   UNL     1      -4.978  15.489   4.177  0.00  0.00    +0.000 A 
ATOM     11  C   UNL     1      -5.397  15.073   2.927  0.00  0.00    +0.002 A 
ATOM     12  C   UNL     1      -4.473  14.709   1.971  0.00  0.00    +0.025 A 
ATOM     13  C   UNL     1      -3.106  14.764   2.256  0.00  0.00    +0.054 A 
ATOM     14  C   UNL     1      -2.698  15.177   3.514  0.00  0.00    -0.023 A 
ATOM     15  C   UNL     1      -3.628  15.540   4.469  0.00  0.00    +0.005 A 
ATOM     16  C   UNL     1      -1.187  15.140   3.566  0.00  0.00    +0.058 C 
ATOM     17  C   UNL     1      -0.765  14.644   2.172  0.00  0.00    +0.136 C 
ATOM     18  N   UNL     1      -2.019  14.438   1.443  0.00  0.00    -0.202 N 
ENDBRANCH   7  18
ENDBRANCH   1   7
BRANCH   4  19
ATOM     19  N   UNL     1      -2.441   7.988   0.067  0.00  0.00    -0.297 N 
ATOM     20  H   UNL     1      -1.846   7.489   0.650  0.00  0.00    +0.154 HD
BRANCH  19  21
ATOM     21  C   UNL     1      -3.337   7.335  -0.699  0.00  0.00    +0.141 C 
ATOM     22  S   UNL     1      -4.459   8.218  -1.645  0.00  0.00    -0.018 S 
BRANCH  21  23
ATOM     23  N   UNL     1      -3.351   5.987  -0.721  0.00  0.00    -0.264 N 
ATOM     24  C   UNL     1      -4.247   5.335  -1.487  0.00  0.00    +0.250 C 
ATOM     25  O   UNL     1      -5.043   5.962  -2.158  0.00  0.00    -0.270 OA
ATOM     26  H   UNL     1      -2.715   5.487  -0.185  0.00  0.00    +0.157 HD
BRANCH  24  27
ATOM     27  C   UNL     1      -4.262   3.857  -1.511  0.00  0.00    +0.040 A 
ATOM     28  C   UNL     1      -5.189   3.179  -2.303  0.00  0.00    +0.033 A 
ATOM     29  C   UNL     1      -5.199   1.798  -2.321  0.00  0.00    +0.043 A 
ATOM     30  C   UNL     1      -4.291   1.087  -1.555  0.00  0.00    +0.040 A 
ATOM     31  C   UNL     1      -3.372   1.754  -0.762  0.00  0.00    +0.043 A 
ATOM     32  C   UNL     1      -3.349   3.135  -0.740  0.00  0.00    +0.033 A 
ATOM     33 CL   UNL     1      -2.243   0.854   0.201  0.00  0.00    -0.083 Cl
ATOM     34 CL   UNL     1      -6.351   0.952  -3.306  0.00  0.00    -0.083 Cl
ENDBRANCH  24  27
ENDBRANCH  21  23
ENDBRANCH  19  21
ENDBRANCH   4  19
TORSDOF 6
