REMARK  Name = ZINC35200789
REMARK  10 active torsions:
REMARK  status: ('A' for Active; 'I' for Inactive)
REMARK    1  A    between atoms: C_4  and  C_7
REMARK    2  A    between atoms: C_7  and  C_8
REMARK    3  A    between atoms: C_8  and  C_10
REMARK    4  A    between atoms: C_8  and  N_32
REMARK    5  A    between atoms: C_13  and  S_24
REMARK    6  A    between atoms: N_14  and  C_15
REMARK    7  A    between atoms: C_18  and  N_21
REMARK    8  A    between atoms: S_24  and  C_25
REMARK    9  A    between atoms: C_25  and  C_26
REMARK   10  A    between atoms: C_33  and  C_35
REMARK                            x       y       z     vdW  Elec       q    Type
REMARK                         _______ _______ _______ _____ _____    ______ ____
ROOT
ATOM      1  C   UNL     1       5.543  -1.588   1.383  0.00  0.00    +0.159 A 
ATOM      2  N   UNL     1       5.826  -2.821   1.069  0.00  0.00    -0.131 NA
ATOM      3  N   UNL     1       7.092  -3.021   1.161  0.00  0.00    -0.122 NA
ATOM      4  C   UNL     1       7.693  -1.918   1.542  0.00  0.00    +0.196 A 
ATOM      5  N   UNL     1       6.723  -0.965   1.691  0.00  0.00    -0.273 N 
ENDROOT
BRANCH   5   6
ATOM      6  C   UNL     1       6.899   0.371   2.081  0.00  0.00    +0.050 A 
ATOM      7  C   UNL     1       6.600   1.398   1.198  0.00  0.00    +0.028 A 
ATOM      8  C   UNL     1       6.775   2.713   1.585  0.00  0.00    +0.035 A 
ATOM      9  C   UNL     1       7.247   3.005   2.851  0.00  0.00    +0.126 A 
ATOM     10  C   UNL     1       7.545   1.984   3.733  0.00  0.00    +0.035 A 
ATOM     11  C   UNL     1       7.367   0.667   3.354  0.00  0.00    +0.028 A 
BRANCH   9  12
ATOM     12  N   UNL     1       7.434   4.415   3.262  0.00  0.00    +0.056 N 
ATOM     13  O   UNL     1       7.173   5.309   2.491  0.00  0.00    -0.126 OA
ATOM     14  O   UNL     1       7.846   4.672   4.369  0.00  0.00    -0.126 OA
ENDBRANCH   9  12
ENDBRANCH   5   6
BRANCH   1  15
ATOM     15  C   UNL     1       4.171  -0.963   1.399  0.00  0.00    +0.146 C 
BRANCH  15  16
ATOM     16  N   UNL     1       3.229  -1.870   2.059  0.00  0.00    -0.305 N 
ATOM     17  C   UNL     1       2.116  -1.379   2.640  0.00  0.00    +0.217 C 
ATOM     18  O   UNL     1       1.895  -0.187   2.616  0.00  0.00    -0.275 OA
ATOM     19  H   UNL     1       3.406  -2.823   2.078  0.00  0.00    +0.149 HD
BRANCH  17  20
ATOM     20  C   UNL     1       1.147  -2.312   3.320  0.00  0.00    +0.075 C 
ATOM     21  C   UNL     1       0.550  -3.294   2.291  0.00  0.00    +0.013 C 
ATOM     22  C   UNL     1      -0.923  -3.465   2.739  0.00  0.00    +0.001 C 
ATOM     23  C   UNL     1      -1.306  -2.039   3.205  0.00  0.00    +0.001 C 
ATOM     24  C   UNL     1      -0.033  -1.513   3.901  0.00  0.00    +0.013 C 
ENDBRANCH  17  20
ENDBRANCH  15  16
BRANCH  15  25
ATOM     25  C   UNL     1       3.711  -0.707  -0.038  0.00  0.00    +0.065 C 
BRANCH  25  29
ATOM     26  C   UNL     1      -0.017   1.378   0.010  0.00  0.00    +0.000 A 
ATOM     27  C   UNL     1       1.171   2.086   0.002  0.00  0.00    +0.000 A 
ATOM     28  C   UNL     1       2.377   1.411  -0.013  0.00  0.00    +0.004 A 
ATOM     29  C   UNL     1       2.396   0.029  -0.020  0.00  0.00    -0.045 A 
ATOM     30  C   UNL     1       1.208  -0.679  -0.012  0.00  0.00    +0.004 A 
ATOM     31  C   UNL     1       0.002  -0.004   0.002  0.00  0.00    +0.000 A 
ENDBRANCH  25  29
ENDBRANCH  15  25
ENDBRANCH   1  15
BRANCH   4  32
ATOM     32  S   UNL     1       9.422  -1.703   1.806  0.00  0.00    -0.081 S 
BRANCH  32  33
ATOM     33  C   UNL     1      10.129  -3.330   1.428  0.00  0.00    +0.112 C 
BRANCH  33  34
ATOM     34  C   UNL     1      11.623  -3.285   1.616  0.00  0.00    -0.037 A 
ATOM     35  C   UNL     1      12.442  -2.935   0.559  0.00  0.00    +0.004 A 
ATOM     36  C   UNL     1      13.813  -2.893   0.732  0.00  0.00    +0.000 A 
ATOM     37  C   UNL     1      14.365  -3.201   1.961  0.00  0.00    +0.000 A 
ATOM     38  C   UNL     1      13.546  -3.550   3.019  0.00  0.00    +0.000 A 
ATOM     39  C   UNL     1      12.175  -3.588   2.847  0.00  0.00    +0.004 A 
ENDBRANCH  33  34
ENDBRANCH  32  33
ENDBRANCH   4  32
TORSDOF 10
