REMARK  Name = ZINC09334202
REMARK  7 active torsions:
REMARK  status: ('A' for Active; 'I' for Inactive)
REMARK    1  A    between atoms: C_1  and  C_2
REMARK    2  A    between atoms: C_9  and  O_20
REMARK    3  A    between atoms: C_12  and  C_14
REMARK    4  A    between atoms: C_23  and  O_38
REMARK    5  A    between atoms: C_24  and  C_31
REMARK    6  A    between atoms: C_27  and  O_30
REMARK    7  A    between atoms: C_32  and  N_78
REMARK                            x       y       z     vdW  Elec       q    Type
REMARK                         _______ _______ _______ _____ _____    ______ ____
ROOT
ATOM      1  C   UNL     1      -2.754   2.121  -6.102  0.00  0.00    +0.014 C 
ATOM      2  C   UNL     1      -1.938   2.010  -7.392  0.00  0.00    +0.004 C 
ATOM      3  C   UNL     1      -1.539   0.566  -7.623  0.00  0.00    +0.010 C 
ATOM      4  C   UNL     1      -0.803   0.086  -6.361  0.00  0.00    +0.005 C 
ATOM      5  C   UNL     1       0.402   0.962  -6.029  0.00  0.00    +0.009 C 
ATOM      6  C   UNL     1       0.012   2.446  -5.943  0.00  0.00    +0.025 C 
ATOM      7  C   UNL     1      -0.632   2.839  -7.259  0.00  0.00    +0.075 C 
ATOM      8  C   UNL     1      -1.164   4.273  -7.343  0.00  0.00    +0.036 C 
ATOM      9  C   UNL     1      -2.227   4.184  -8.472  0.00  0.00    +0.011 C 
ATOM     10  C   UNL     1      -2.678   2.703  -8.531  0.00  0.00    +0.027 C 
ATOM     11  C   UNL     1       1.267   3.282  -5.694  0.00  0.00    +0.009 C 
ATOM     12  C   UNL     1       1.916   2.850  -4.378  0.00  0.00    +0.036 C 
ATOM     13  C   UNL     1       2.299   1.371  -4.459  0.00  0.00    +0.079 C 
ATOM     14  C   UNL     1       1.045   0.531  -4.710  0.00  0.00    +0.036 C 
ATOM     15  C   UNL     1       1.430  -0.948  -4.790  0.00  0.00    +0.018 C 
ATOM     16  C   UNL     1       2.081  -1.380  -3.477  0.00  0.00    +0.032 C 
ATOM     17  C   UNL     1       3.336  -0.540  -3.228  0.00  0.00    +0.117 C 
ATOM     18  C   UNL     1       2.949   0.938  -3.143  0.00  0.00    +0.067 C 
ENDROOT
BRANCH  10  19
ATOM     19  C   UNL     1      -4.168   2.603  -8.324  0.00  0.00    -0.022 C 
ATOM     20  C   UNL     1      -4.964   3.547  -7.829  0.00  0.00    +0.094 C 
ATOM     21  C   UNL     1      -6.343   3.055  -7.793  0.00  0.00    +0.332 C 
ATOM     22  O   UNL     1      -7.300   3.689  -7.395  0.00  0.00    -0.246 OA
ATOM     23  O   UNL     1      -6.394   1.794  -8.263  0.00  0.00    -0.457 OA
ATOM     24  C   UNL     1      -5.040   1.409  -8.633  0.00  0.00    +0.264 C 
ENDBRANCH  10  19
BRANCH  14  25
ATOM     25  C   UNL     1       0.067   0.736  -3.583  0.00  0.00    +0.060 C 
ATOM     26  N   UNL     1       0.423   1.555  -2.618  0.00  0.00    -0.390 N 
ATOM     27  H   UNL     1       1.335   2.024  -2.654  0.00  0.00    +0.159 HD
BRANCH  26  28
ATOM     28  C   UNL     1      -0.507   1.804  -1.463  0.00  0.00    +0.078 C 
ATOM     29  C   UNL     1       0.207   1.392  -0.174  0.00  0.00    +0.024 C 
ATOM     30  C   UNL     1      -0.698   1.683   1.025  0.00  0.00    +0.002 C 
ATOM     31  C   UNL     1      -1.014   3.180   1.073  0.00  0.00    +0.000 C 
ATOM     32  C   UNL     1      -1.727   3.592  -0.216  0.00  0.00    +0.002 C 
ATOM     33  C   UNL     1      -0.823   3.301  -1.415  0.00  0.00    +0.024 C 
ENDBRANCH  26  28
ENDBRANCH  14  25
BRANCH   7  34
ATOM     34  O   UNL     1       0.258   2.575  -8.345  0.00  0.00    -0.388 OA
ATOM     35  H   UNL     1       1.101   3.046  -8.287  0.00  0.00    +0.210 HD
ENDBRANCH   7  34
BRANCH  17  36
ATOM     36  O   UNL     1       3.944  -0.945  -2.000  0.00  0.00    -0.392 OA
ATOM     37  H   UNL     1       4.215  -1.873  -1.982  0.00  0.00    +0.210 HD
ENDBRANCH  17  36
BRANCH  13  38
ATOM     38  O   UNL     1       3.223   1.179  -5.532  0.00  0.00    -0.388 OA
ATOM     39  H   UNL     1       4.044   1.683  -5.439  0.00  0.00    +0.210 HD
ENDBRANCH  13  38
TORSDOF 6
