REMARK  Name = ZINC39664310
REMARK  6 active torsions:
REMARK  status: ('A' for Active; 'I' for Inactive)
REMARK    1  A    between atoms: C_4  and  C_7
REMARK    2  A    between atoms: C_7  and  C_9
REMARK    3  A    between atoms: C_7  and  N_33
REMARK    4  A    between atoms: C_9  and  N_10
REMARK    5  A    between atoms: C_11  and  C_13
REMARK    6  A    between atoms: C_24  and  C_26
REMARK                            x       y       z     vdW  Elec       q    Type
REMARK                         _______ _______ _______ _____ _____    ______ ____
ROOT
ATOM      1  C   UNL     1      10.274  -7.988   0.211  0.00  0.00    +0.100 C 
ATOM      2  C   UNL     1       9.069  -8.768  -0.360  0.00  0.00    +0.121 C 
ATOM      3  N   UNL     1       8.130  -7.719  -0.823  0.00  0.00    -0.296 N 
ATOM      4  C   UNL     1       9.002  -6.681  -1.423  0.00  0.00    +0.115 C 
ATOM      5  C   UNL     1      10.229  -6.621  -0.491  0.00  0.00    -0.004 C 
ATOM      6  C   UNL     1      10.056  -5.505   0.535  0.00  0.00    -0.010 C 
ATOM      7  C   UNL     1      10.071  -4.152  -0.181  0.00  0.00    -0.082 C 
ATOM      8  N   UNL     1      11.341  -3.991  -0.900  0.00  0.00    +0.379 N 
ATOM      9  C   UNL     1      11.457  -5.012  -1.948  0.00  0.00    -0.082 C 
ATOM     10  C   UNL     1      11.500  -6.402  -1.306  0.00  0.00    -0.010 C 
ATOM     11  C   UNL     1       6.786  -7.710  -0.720  0.00  0.00    +0.247 C 
ATOM     12  O   UNL     1       6.144  -6.810  -1.226  0.00  0.00    -0.270 OA
ATOM     13  H   UNL     1      11.374  -3.074  -1.321  0.00  0.00    -0.086 HD
ATOM     14  H   UNL     1      12.108  -4.088  -0.252  0.00  0.00    -0.086 HD
ENDROOT
BRANCH  11  15
ATOM     15  C   UNL     1       6.093  -8.794   0.006  0.00  0.00    +0.037 A 
ATOM     16  C   UNL     1       6.139  -8.845   1.401  0.00  0.00    +0.014 A 
ATOM     17  C   UNL     1       5.490  -9.859   2.073  0.00  0.00    +0.021 A 
ATOM     18  C   UNL     1       4.794 -10.827   1.367  0.00  0.00    +0.041 A 
ATOM     19  C   UNL     1       4.745 -10.782  -0.016  0.00  0.00    +0.021 A 
ATOM     20  C   UNL     1       5.385  -9.770  -0.699  0.00  0.00    +0.014 A 
ATOM     21 CL   UNL     1       3.981 -12.101   2.221  0.00  0.00    -0.084 Cl
ENDBRANCH  11  15
BRANCH   1  23
ATOM     22  N   UNL     1      11.226  -7.663   2.471  0.00  0.00    -0.313 N 
ATOM     23  C   UNL     1      10.131  -7.818   1.701  0.00  0.00    +0.218 C 
ATOM     24  O   UNL     1       9.029  -7.820   2.208  0.00  0.00    -0.275 OA
ATOM     25  H   UNL     1      12.103  -7.601   2.060  0.00  0.00    +0.149 HD
BRANCH  22  26
ATOM     26  C   UNL     1      11.093  -7.587   3.928  0.00  0.00    +0.127 C 
BRANCH  26  27
ATOM     27  C   UNL     1      12.482  -7.494   4.562  0.00  0.00    +0.104 C 
BRANCH  27  31
ATOM     28  C   UNL     1      14.534  -4.089   2.999  0.00  0.00    +0.000 A 
ATOM     29  C   UNL     1      14.520  -5.274   2.288  0.00  0.00    +0.000 A 
ATOM     30  C   UNL     1      13.857  -6.376   2.794  0.00  0.00    +0.005 A 
ATOM     31  C   UNL     1      13.207  -6.293   4.011  0.00  0.00    -0.029 A 
ATOM     32  C   UNL     1      13.221  -5.107   4.722  0.00  0.00    +0.005 A 
ATOM     33  C   UNL     1      13.884  -4.005   4.216  0.00  0.00    +0.000 A 
ENDBRANCH  27  31
BRANCH  27  34
ATOM     34  N   UNL     1      12.347  -7.358   6.019  0.00  0.00    -0.290 NA
ATOM     35  C   UNL     1      12.259  -8.676   6.665  0.00  0.00    +0.113 C 
ATOM     36  C   UNL     1      12.180  -8.490   8.182  0.00  0.00    +0.175 C 
ATOM     37  O   UNL     1      11.061  -7.656   8.498  0.00  0.00    -0.377 OA
ATOM     38  C   UNL     1      11.114  -6.365   7.886  0.00  0.00    +0.175 C 
ATOM     39  C   UNL     1      11.183  -6.529   6.365  0.00  0.00    +0.113 C 
ENDBRANCH  27  34
ENDBRANCH  26  27
ENDBRANCH  22  26
ENDBRANCH   1  23
TORSDOF 6
