REMARK  Name = ZINC18220195
REMARK  7 active torsions:
REMARK  status: ('A' for Active; 'I' for Inactive)
REMARK    1  A    between atoms: C_1  and  C_2
REMARK    2  A    between atoms: C_5  and  N_8
REMARK    3  A    between atoms: C_12  and  N_16
REMARK    4  A    between atoms: N_16  and  C_17
REMARK    5  A    between atoms: C_17  and  C_18
REMARK    6  A    between atoms: N_21  and  C_24
REMARK    7  A    between atoms: C_24  and  C_25
REMARK                            x       y       z     vdW  Elec       q    Type
REMARK                         _______ _______ _______ _____ _____    ______ ____
ROOT
ATOM      1  N   UNL     1      -0.993  -7.049   1.352  0.00  0.00    +0.387 N 
ATOM      2  H   UNL     1      -1.833  -6.522   1.169  0.00  0.00    -0.085 HD
ATOM      3  H   UNL     1      -1.085  -7.975   0.962  0.00  0.00    -0.085 HD
ENDROOT
BRANCH   1   8
ATOM      4  N   UNL     1       0.059  -4.172  -0.021  0.00  0.00    -0.212 N 
ATOM      5  C   UNL     1      -0.030  -4.892  -1.146  0.00  0.00    +0.225 C 
ATOM      6  O   UNL     1      -0.134  -4.436  -2.265  0.00  0.00    -0.275 OA
ATOM      7  C   UNL     1       0.020  -6.364  -0.801  0.00  0.00    +0.090 C 
ATOM      8  C   UNL     1       0.155  -6.371   0.735  0.00  0.00    +0.026 C 
ATOM      9  C   UNL     1       0.172  -4.902   1.096  0.00  0.00    +0.213 C 
ATOM     10  O   UNL     1       0.271  -4.455   2.219  0.00  0.00    -0.277 OA
BRANCH   4  15
ATOM     11  C   UNL     1      -0.016   1.503   0.009  0.00  0.00    +0.044 C 
ATOM     12  C   UNL     1       0.004  -0.004   0.001  0.00  0.00    -0.050 A 
ATOM     13  C   UNL     1       1.156  -0.681   0.357  0.00  0.00    +0.005 A 
ATOM     14  C   UNL     1       1.177  -2.062   0.351  0.00  0.00    +0.024 A 
ATOM     15  C   UNL     1       0.040  -2.771  -0.013  0.00  0.00    +0.044 A 
ATOM     16  C   UNL     1      -1.115  -2.088  -0.370  0.00  0.00    +0.024 A 
ATOM     17  C   UNL     1      -1.132  -0.707  -0.357  0.00  0.00    +0.005 A 
ENDBRANCH   4  15
ENDBRANCH   1   8
BRANCH   1  18
ATOM     18  C   UNL     1      -0.782  -7.147   2.802  0.00  0.00    -0.078 C 
BRANCH  18  19
ATOM     19  C   UNL     1      -1.978  -7.854   3.445  0.00  0.00    -0.032 C 
ATOM     20  C   UNL     1      -3.231  -6.988   3.284  0.00  0.00    -0.017 C 
ATOM     21  C   UNL     1      -4.405  -7.663   3.998  0.00  0.00    -0.078 C 
ATOM     22  N   UNL     1      -4.093  -7.816   5.424  0.00  0.00    +0.383 N 
ATOM     23  C   UNL     1      -2.935  -8.703   5.588  0.00  0.00    -0.078 C 
ATOM     24  C   UNL     1      -1.705  -8.068   4.936  0.00  0.00    -0.017 C 
ATOM     25  H   UNL     1      -3.882  -6.912   5.819  0.00  0.00    -0.081 HD
BRANCH  22  26
ATOM     26  C   UNL     1      -5.252  -8.392   6.118  0.00  0.00    -0.036 C 
BRANCH  26  27
ATOM     27  C   UNL     1      -4.980  -8.436   7.599  0.00  0.00    -0.027 A 
ATOM     28  C   UNL     1      -5.246  -7.501   8.544  0.00  0.00    +0.009 A 
ATOM     29  C   UNL     1      -4.905  -7.760   9.858  0.00  0.00    +0.008 A 
ATOM     30  C   UNL     1      -4.314  -8.941  10.163  0.00  0.00    +0.045 A 
ATOM     31  S   UNL     1      -4.230  -9.736   8.567  0.00  0.00    -0.103 S 
ENDBRANCH  26  27
ENDBRANCH  22  26
ENDBRANCH  18  19
ENDBRANCH   1  18
TORSDOF 6
