REMARK  Name = ZINC20905349
REMARK  8 active torsions:
REMARK  status: ('A' for Active; 'I' for Inactive)
REMARK    1  A    between atoms: C_1  and  C_2
REMARK    2  A    between atoms: C_4  and  C_30
REMARK    3  A    between atoms: C_5  and  C_9
REMARK    4  A    between atoms: C_6  and  C_8
REMARK    5  A    between atoms: C_9  and  S_10
REMARK    6  A    between atoms: S_10  and  C_11
REMARK    7  A    between atoms: N_17  and  N_18
REMARK    8  A    between atoms: C_19  and  C_20
REMARK                            x       y       z     vdW  Elec       q    Type
REMARK                         _______ _______ _______ _____ _____    ______ ____
ROOT
ATOM      1  C   UNL     1       1.632  -6.614  -0.069  0.00  0.00    +0.191 A 
ATOM      2  N   UNL     1       2.667  -7.505  -0.065  0.00  0.00    -0.303 N 
ATOM      3  H   UNL     1       3.611  -7.282  -0.060  0.00  0.00    +0.171 HD
ATOM      4  C   UNL     1       2.139  -8.766  -0.070  0.00  0.00    +0.235 A 
ATOM      5  N   UNL     1       0.832  -8.658  -0.076  0.00  0.00    -0.111 NA
ATOM      6  N   UNL     1       0.511  -7.295  -0.071  0.00  0.00    -0.121 NA
ATOM      7  N   UNL     1       2.859  -9.952  -0.068  0.00  0.00    -0.205 N 
ATOM      8  H   UNL     1       3.829  -9.930  -0.063  0.00  0.00    +0.177 HD
ENDROOT
BRANCH   7   9
ATOM      9  N   UNL     1       2.186 -11.180  -0.073  0.00  0.00    -0.188 NA
ATOM     10  C   UNL     1       2.861 -12.292  -0.071  0.00  0.00    +0.139 C 
BRANCH  10  11
ATOM     11  C   UNL     1       2.154 -13.581  -0.077  0.00  0.00    +0.002 A 
ATOM     12  C   UNL     1       2.857 -14.775  -0.188  0.00  0.00    +0.010 A 
ATOM     13  C   UNL     1       2.187 -15.991  -0.193  0.00  0.00    +0.001 A 
ATOM     14  C   UNL     1       0.832 -16.064  -0.090  0.00  0.00    +0.008 A 
ATOM     15  C   UNL     1       0.057 -14.898   0.025  0.00  0.00    -0.017 A 
ATOM     16  C   UNL     1       0.698 -13.635   0.040  0.00  0.00    -0.009 A 
ATOM     17  C   UNL     1      -0.070 -12.470   0.160  0.00  0.00    +0.009 A 
ATOM     18  C   UNL     1      -1.425 -12.566   0.266  0.00  0.00    +0.001 A 
ATOM     19  C   UNL     1      -2.058 -13.806   0.258  0.00  0.00    +0.001 A 
ATOM     20  C   UNL     1      -1.343 -14.958   0.131  0.00  0.00    +0.008 A 
ENDBRANCH  10  11
ENDBRANCH   7   9
BRANCH   1  21
ATOM     21  S   UNL     1       1.777  -4.858  -0.066  0.00  0.00    -0.081 S 
BRANCH  21  22
ATOM     22  C   UNL     1       0.059  -4.275  -0.065  0.00  0.00    +0.113 C 
BRANCH  22  27
ATOM     23  C   UNL     1      -0.018   1.503  -0.053  0.00  0.00    +0.044 C 
ATOM     24  C   UNL     1       0.002  -0.004  -0.057  0.00  0.00    -0.050 A 
ATOM     25  C   UNL     1       0.013  -0.692  -1.255  0.00  0.00    +0.007 A 
ATOM     26  C   UNL     1       0.032  -2.075  -1.258  0.00  0.00    -0.046 A 
ATOM     27  C   UNL     1       0.040  -2.768  -0.062  0.00  0.00    -0.031 A 
ATOM     28  C   UNL     1       0.030  -2.080   1.136  0.00  0.00    -0.046 A 
ATOM     29  C   UNL     1       0.016  -0.697   1.139  0.00  0.00    +0.007 A 
ATOM     30  C   UNL     1       0.039  -2.836   2.440  0.00  0.00    +0.044 C 
ATOM     31  C   UNL     1       0.043  -2.825  -2.565  0.00  0.00    +0.044 C 
ENDBRANCH  22  27
ENDBRANCH  21  22
ENDBRANCH   1  21
TORSDOF 5
