REMARK  Name = ZINC01322173
REMARK  12 active torsions:
REMARK  status: ('A' for Active; 'I' for Inactive)
REMARK    1  A    between atoms: C_1  and  C_2
REMARK    2  A    between atoms: C_4  and  O_12
REMARK    3  A    between atoms: C_5  and  C_9
REMARK    4  A    between atoms: C_9  and  C_10
REMARK    5  A    between atoms: C_9  and  C_11
REMARK    6  A    between atoms: O_12  and  C_13
REMARK    7  A    between atoms: C_13  and  C_14
REMARK    8  A    between atoms: C_16  and  C_22
REMARK    9  A    between atoms: C_19  and  O_20
REMARK   10  A    between atoms: O_20  and  C_21
REMARK   11  A    between atoms: C_28  and  O_34
REMARK   12  A    between atoms: O_34  and  C_35
REMARK                            x       y       z     vdW  Elec       q    Type
REMARK                         _______ _______ _______ _____ _____    ______ ____
ROOT
ATOM      1  C   UNL     1      -1.425   3.409   2.465  0.00  0.00    +0.031 A 
ATOM      2  C   UNL     1      -1.531   4.776   2.627  0.00  0.00    +0.013 A 
ATOM      3  C   UNL     1      -1.003   5.630   1.677  0.00  0.00    -0.055 A 
ATOM      4  C   UNL     1      -0.368   5.117   0.561  0.00  0.00    +0.006 A 
ATOM      5  C   UNL     1      -0.253   3.751   0.396  0.00  0.00    +0.046 A 
ATOM      6  C   UNL     1      -0.787   2.892   1.346  0.00  0.00    +0.126 A 
ENDROOT
BRANCH   3   7
ATOM      7  C   UNL     1      -1.120   7.122   1.857  0.00  0.00    +0.007 C 
ATOM      8  C   UNL     1      -2.253   7.648   1.008  0.00  0.00    +0.010 A 
ATOM      9  C   UNL     1      -2.157   8.775   0.268  0.00  0.00    -0.022 A 
ATOM     10  C   UNL     1      -3.426   8.957  -0.402  0.00  0.00    +0.006 A 
ATOM     11  C   UNL     1      -3.903   9.932  -1.285  0.00  0.00    +0.056 A 
ATOM     12  C   UNL     1      -5.205   9.782  -1.737  0.00  0.00    +0.121 A 
ATOM     13  C   UNL     1      -6.002   8.716  -1.336  0.00  0.00    +0.047 A 
ATOM     14  C   UNL     1      -5.546   7.742  -0.465  0.00  0.00    +0.030 A 
ATOM     15  C   UNL     1      -4.241   7.869   0.004  0.00  0.00    +0.047 A 
ATOM     16  N   UNL     1      -3.498   7.100   0.857  0.00  0.00    -0.359 N 
ATOM     17  H   UNL     1      -3.806   6.287   1.288  0.00  0.00    +0.166 HD
ATOM     18  C   UNL     1      -0.916   9.630   0.211  0.00  0.00    +0.018 C 
ATOM     19  C   UNL     1      -0.014   9.233   1.387  0.00  0.00    -0.076 C 
ATOM     20  N   UNL     1       0.141   7.764   1.426  0.00  0.00    +0.387 N 
ATOM     21  H   UNL     1       0.389   7.426   0.489  0.00  0.00    -0.084 HD
ATOM     22  H   UNL     1       0.887   7.521   2.087  0.00  0.00    -0.084 HD
BRANCH  12  23
ATOM     23  O   UNL     1      -5.717  10.704  -2.596  0.00  0.00    -0.495 OA
ATOM     24  C   UNL     1      -7.063  10.505  -3.034  0.00  0.00    +0.277 C 
ENDBRANCH  12  23
ENDBRANCH   3   7
BRANCH   6  25
ATOM     25  O   UNL     1      -0.682   1.547   1.184  0.00  0.00    -0.495 OA
ATOM     26  C   UNL     1      -0.013   1.086   0.008  0.00  0.00    +0.277 C 
ENDBRANCH   6  25
BRANCH   1  27
ATOM     27  C   UNL     1      -2.000   2.479   3.502  0.00  0.00    +0.268 C 
BRANCH  27  28
ATOM     28  O   UNL     1      -2.599   3.245   4.548  0.00  0.00    -0.487 OA
BRANCH  28  32
ATOM     29  C   UNL     1      -3.713  -1.041   6.601  0.00  0.00    +0.045 C 
ATOM     30  C   UNL     1      -3.732   0.466   6.606  0.00  0.00    -0.029 A 
ATOM     31  C   UNL     1      -3.156   1.167   5.563  0.00  0.00    +0.050 A 
ATOM     32  C   UNL     1      -3.169   2.554   5.571  0.00  0.00    +0.125 A 
ATOM     33  C   UNL     1      -3.769   3.234   6.620  0.00  0.00    -0.002 A 
ATOM     34  C   UNL     1      -4.348   2.530   7.658  0.00  0.00    +0.027 A 
ATOM     35  C   UNL     1      -4.329   1.146   7.652  0.00  0.00    +0.044 A 
ATOM     36 CL   UNL     1      -5.056   0.263   8.957  0.00  0.00    -0.083 Cl
BRANCH  33  37
ATOM     37  C   UNL     1      -3.789   4.741   6.628  0.00  0.00    +0.016 C 
ATOM     38  C   UNL     1      -5.238   5.232   6.644  0.00  0.00    +0.012 C 
ATOM     39  C   UNL     1      -3.063   5.254   7.874  0.00  0.00    +0.012 C 
ENDBRANCH  33  37
ENDBRANCH  28  32
ENDBRANCH  27  28
ENDBRANCH   1  27
TORSDOF 7
