REMARK  Name = ZINC16161823
REMARK  8 active torsions:
REMARK  status: ('A' for Active; 'I' for Inactive)
REMARK    1  A    between atoms: C_1  and  C_2
REMARK    2  A    between atoms: C_2  and  C_3
REMARK    3  A    between atoms: C_6  and  N_9
REMARK    4  A    between atoms: N_9  and  C_10
REMARK    5  A    between atoms: C_16  and  C_17
REMARK    6  A    between atoms: C_19  and  O_25
REMARK    7  A    between atoms: C_20  and  O_24
REMARK    8  A    between atoms: O_25  and  C_26
REMARK                            x       y       z     vdW  Elec       q    Type
REMARK                         _______ _______ _______ _____ _____    ______ ____
ROOT
ATOM      1  C   UNL     1       0.037  -0.012  -0.344  0.00  0.00    +0.224 C 
ATOM      2  N   UNL     1       1.484  -0.283  -0.312  0.00  0.00    -0.284 N 
ATOM      3  C   UNL     1       2.308   0.743  -0.203  0.00  0.00    +0.252 C 
ATOM      4  O   UNL     1       3.511   0.565  -0.172  0.00  0.00    -0.270 OA
ATOM      5  C   UNL     1       1.755   2.107  -0.118  0.00  0.00    +0.073 C 
ATOM      6  C   UNL     1       2.417   3.283  -0.003  0.00  0.00    +0.028 C 
ATOM      7  S   UNL     1      -0.006   1.821  -0.205  0.00  0.00    -0.078 S 
ATOM      8  H   UNL     1       1.822  -1.191  -0.369  0.00  0.00    +0.152 HD
ENDROOT
BRANCH   6   9
ATOM      9  C   UNL     1       1.682   4.552  -0.100  0.00  0.00    -0.019 A 
ATOM     10  C   UNL     1       0.420   4.588  -0.703  0.00  0.00    +0.057 A 
ATOM     11  C   UNL     1      -0.269   5.783  -0.785  0.00  0.00    +0.163 A 
ATOM     12  C   UNL     1       0.299   6.951  -0.280  0.00  0.00    +0.173 A 
ATOM     13  C   UNL     1       1.553   6.918   0.313  0.00  0.00    +0.063 A 
ATOM     14  C   UNL     1       2.245   5.729   0.406  0.00  0.00    +0.027 A 
ATOM     15 BR   UNL     1       2.316   8.508   0.997  0.00  0.00    -0.046 Br
BRANCH  12  16
ATOM     16  O   UNL     1      -0.379   8.127  -0.368  0.00  0.00    -0.503 OA
ATOM     17  H   UNL     1      -0.200   8.624  -1.178  0.00  0.00    +0.292 HD
ENDBRANCH  12  16
BRANCH  11  18
ATOM     18  O   UNL     1      -1.498   5.820  -1.365  0.00  0.00    -0.491 OA
ATOM     19  C   UNL     1      -2.019   4.585  -1.862  0.00  0.00    +0.277 C 
ENDBRANCH  11  18
ENDBRANCH   6   9
BRANCH   1  20
ATOM     20  N   UNL     1      -0.551  -0.456  -1.611  0.00  0.00    -0.317 N 
ATOM     21  H   UNL     1       0.024  -0.745  -2.337  0.00  0.00    +0.149 HD
BRANCH  20  25
ATOM     22  C   UNL     1      -4.686  -0.474  -2.092  0.00  0.00    -0.048 A 
ATOM     23  C   UNL     1      -3.869  -0.887  -3.129  0.00  0.00    +0.005 A 
ATOM     24  C   UNL     1      -2.497  -0.881  -2.972  0.00  0.00    +0.023 A 
ATOM     25  C   UNL     1      -1.938  -0.462  -1.772  0.00  0.00    +0.029 A 
ATOM     26  C   UNL     1      -2.762  -0.053  -0.731  0.00  0.00    +0.023 A 
ATOM     27  C   UNL     1      -4.133  -0.055  -0.896  0.00  0.00    +0.005 A 
BRANCH  22  29
ATOM     28  C   UNL     1      -6.741  -1.837  -1.827  0.00  0.00    +0.009 C 
ATOM     29  C   UNL     1      -6.183  -0.481  -2.266  0.00  0.00    +0.032 C 
ENDBRANCH  22  29
ENDBRANCH  20  25
ENDBRANCH   1  20
TORSDOF 6
