REMARK  Name = ZINC13573142
REMARK  10 active torsions:
REMARK  status: ('A' for Active; 'I' for Inactive)
REMARK    1  A    between atoms: C_1  and  C_2
REMARK    2  A    between atoms: C_2  and  N_3
REMARK    3  A    between atoms: N_3  and  C_4
REMARK    4  A    between atoms: C_7  and  C_11
REMARK    5  A    between atoms: C_8  and  C_10
REMARK    6  A    between atoms: C_12  and  C_14
REMARK    7  A    between atoms: C_14  and  N_15
REMARK    8  A    between atoms: C_16  and  C_25
REMARK    9  A    between atoms: C_19  and  C_23
REMARK   10  A    between atoms: C_19  and  C_24
REMARK                            x       y       z     vdW  Elec       q    Type
REMARK                         _______ _______ _______ _____ _____    ______ ____
ROOT
ATOM      1  N   UNL     1      -1.372  -0.511   0.012  0.00  0.00    -0.270 N 
ATOM      2  C   UNL     1      -1.864  -0.981   1.176  0.00  0.00    +0.237 C 
ATOM      3  O   UNL     1      -2.854  -1.682   1.178  0.00  0.00    -0.274 OA
ENDROOT
BRANCH   1   4
ATOM      4  C   UNL     1      -2.060  -0.747  -1.183  0.00  0.00    +0.037 A 
ATOM      5  C   UNL     1      -3.290  -0.143  -1.409  0.00  0.00    +0.024 A 
ATOM      6  C   UNL     1      -3.966  -0.378  -2.590  0.00  0.00    +0.005 A 
ATOM      7  C   UNL     1      -3.420  -1.213  -3.547  0.00  0.00    -0.047 A 
ATOM      8  C   UNL     1      -2.195  -1.816  -3.325  0.00  0.00    -0.046 A 
ATOM      9  C   UNL     1      -1.511  -1.580  -2.149  0.00  0.00    +0.027 A 
ATOM     10  C   UNL     1      -1.604  -2.726  -4.371  0.00  0.00    +0.044 C 
ATOM     11  C   UNL     1      -4.160  -1.467  -4.835  0.00  0.00    +0.044 C 
ENDBRANCH   1   4
BRANCH   1  13
ATOM     12  C   UNL     1      -0.420   1.736   0.178  0.00  0.00    +0.025 C 
ATOM     13  C   UNL     1      -0.118   0.246  -0.001  0.00  0.00    +0.110 C 
ENDBRANCH   1  13
BRANCH   2  14
ATOM     14  C   UNL     1      -1.183  -0.635   2.476  0.00  0.00    +0.203 C 
BRANCH  14  15
ATOM     15  N   UNL     1      -1.904  -1.262   3.586  0.00  0.00    -0.301 N 
ATOM     16  C   UNL     1      -2.995  -0.533   4.235  0.00  0.00    +0.075 C 
ATOM     17  C   UNL     1      -4.012  -1.538   4.788  0.00  0.00    +0.047 C 
ATOM     18  C   UNL     1      -3.280  -2.510   5.719  0.00  0.00    +0.030 C 
ATOM     19  N   UNL     1      -2.173  -3.132   4.990  0.00  0.00    -0.321 N 
ATOM     20  C   UNL     1      -1.554  -2.494   3.985  0.00  0.00    +0.134 C 
ATOM     21  S   UNL     1      -0.263  -3.282   3.183  0.00  0.00    -0.019 S 
ATOM     22  C   UNL     1      -4.251  -3.593   6.194  0.00  0.00    +0.031 C 
ATOM     23  C   UNL     1      -2.732  -1.747   6.927  0.00  0.00    +0.031 C 
ATOM     24  C   UNL     1      -3.679   0.378   3.214  0.00  0.00    +0.028 C 
ATOM     25  H   UNL     1      -1.883  -4.024   5.236  0.00  0.00    +0.148 HD
ENDBRANCH  14  15
ENDBRANCH   2  14
TORSDOF 4
