REMARK  Name = ZINC18058803
REMARK  7 active torsions:
REMARK  status: ('A' for Active; 'I' for Inactive)
REMARK    1  A    between atoms: C_1  and  O_2
REMARK    2  A    between atoms: O_2  and  C_3
REMARK    3  A    between atoms: C_6  and  C_9
REMARK    4  A    between atoms: C_14  and  O_22
REMARK    5  A    between atoms: C_16  and  O_21
REMARK    6  A    between atoms: N_19  and  N_20
REMARK    7  A    between atoms: O_22  and  C_23
REMARK                            x       y       z     vdW  Elec       q    Type
REMARK                         _______ _______ _______ _____ _____    ______ ____
ROOT
ATOM      1  C   UNL     1      -0.247   1.439   0.105  0.00  0.00    +0.042 A 
ATOM      2  C   UNL     1       0.713   2.233   0.623  0.00  0.00    +0.206 A 
ATOM      3  O   UNL     1       1.913   1.770   1.006  0.00  0.00    -0.462 OA
ATOM      4  C   UNL     1       2.364   0.554   0.626  0.00  0.00    +0.144 A 
ATOM      5  C   UNL     1       3.704   0.225   0.769  0.00  0.00    +0.092 A 
ATOM      6  C   UNL     1       4.156  -1.030   0.388  0.00  0.00    +0.127 A 
ATOM      7  C   UNL     1       3.279  -1.968  -0.139  0.00  0.00    +0.092 A 
ATOM      8  C   UNL     1       1.938  -1.654  -0.292  0.00  0.00    +0.133 A 
ATOM      9  C   UNL     1       1.482  -0.393   0.089  0.00  0.00    +0.084 A 
ATOM     10  C   UNL     1       0.056  -0.009  -0.060  0.00  0.00    +0.077 A 
ATOM     11  N   UNL     1      -0.877  -0.889  -0.320  0.00  0.00    -0.312 N 
ATOM     12  H   UNL     1      -1.791  -0.581  -0.849  0.00  0.00    +0.184 HD
ENDROOT
BRANCH   1  16
ATOM     13  C   UNL     1      -4.022   3.029  -1.038  0.00  0.00    +0.120 A 
ATOM     14  C   UNL     1      -3.224   3.720  -0.137  0.00  0.00    +0.046 A 
ATOM     15  C   UNL     1      -1.999   3.207   0.236  0.00  0.00    +0.012 A 
ATOM     16  C   UNL     1      -1.563   1.993  -0.293  0.00  0.00    -0.013 A 
ATOM     17  C   UNL     1      -2.365   1.304  -1.202  0.00  0.00    +0.012 A 
ATOM     18  C   UNL     1      -3.591   1.820  -1.567  0.00  0.00    +0.046 A 
BRANCH  13  20
ATOM     19  C   UNL     1      -5.999   2.774  -2.335  0.00  0.00    +0.277 C 
ATOM     20  O   UNL     1      -5.229   3.537  -1.404  0.00  0.00    -0.495 OA
ENDBRANCH  13  20
ENDBRANCH   1  16
BRANCH  11  21
ATOM     21  N   UNL     1      -0.712  -2.223   0.075  0.00  0.00    -0.305 N 
ATOM     22  H   UNL     1      -1.496  -2.962  -0.144  0.00  0.00    +0.162 HD
ATOM     23  H   UNL     1       0.202  -2.530   0.604  0.00  0.00    +0.162 HD
ENDBRANCH  11  21
BRANCH   8  24
ATOM     24  O   UNL     1       1.075  -2.567  -0.808  0.00  0.00    -0.506 OA
ATOM     25  H   UNL     1       0.011  -2.313  -0.927  0.00  0.00    +0.292 HD
ENDBRANCH   8  24
BRANCH   6  26
ATOM     26  O   UNL     1       5.470  -1.344   0.534  0.00  0.00    -0.495 OA
ATOM     27  C   UNL     1       5.873  -2.652   0.123  0.00  0.00    +0.277 C 
ENDBRANCH   6  26
TORSDOF 5
