REMARK  Name = ZINC34981049
REMARK  7 active torsions:
REMARK  status: ('A' for Active; 'I' for Inactive)
REMARK    1  A    between atoms: C_1  and  C_2
REMARK    2  A    between atoms: C_2  and  C_4
REMARK    3  A    between atoms: C_2  and  N_12
REMARK    4  A    between atoms: C_9  and  O_10
REMARK    5  A    between atoms: O_10  and  C_11
REMARK    6  A    between atoms: N_12  and  C_13
REMARK    7  A    between atoms: C_18  and  N_19
REMARK                            x       y       z     vdW  Elec       q    Type
REMARK                         _______ _______ _______ _____ _____    ______ ____
ROOT
ATOM      1  N   UNL     1       0.630  -0.352   1.460  0.00  0.00    -0.335 N 
ATOM      2  H   UNL     1       1.578  -0.479   1.620  0.00  0.00    +0.147 HD
ENDROOT
BRANCH   1   3
ATOM      3  C   UNL     1      -0.286  -0.552   2.497  0.00  0.00    +0.058 A 
ATOM      4  C   UNL     1      -1.647  -0.407   2.260  0.00  0.00    +0.026 A 
ATOM      5  C   UNL     1      -2.550  -0.605   3.286  0.00  0.00    +0.017 A 
ATOM      6  C   UNL     1      -2.100  -0.947   4.549  0.00  0.00    +0.020 A 
ATOM      7  C   UNL     1      -0.745  -1.092   4.788  0.00  0.00    +0.050 A 
ATOM      8  C   UNL     1       0.162  -0.902   3.764  0.00  0.00    +0.148 A 
ATOM      9 BR   UNL     1      -3.340  -1.217   5.951  0.00  0.00    -0.050 Br
BRANCH   8  10
ATOM     10  N   UNL     1       1.611  -1.063   4.018  0.00  0.00    +0.058 N 
ATOM     11  O   UNL     1       2.321  -1.560   3.176  0.00  0.00    -0.126 OA
ATOM     12  O   UNL     1       2.085  -0.698   5.069  0.00  0.00    -0.126 OA
ENDBRANCH   8  10
ENDBRANCH   1   3
BRANCH   1  14
ATOM     13  C   UNL     1      -0.004   1.569   0.086  0.00  0.00    +0.033 C 
ATOM     14  C   UNL     1       0.158   0.048   0.133  0.00  0.00    +0.101 C 
BRANCH  14  15
ATOM     15  C   UNL     1       1.160  -0.382  -0.907  0.00  0.00    +0.014 A 
ATOM     16  C   UNL     1       2.496  -0.496  -0.575  0.00  0.00    +0.009 A 
ATOM     17  C   UNL     1       3.416  -0.890  -1.529  0.00  0.00    +0.001 A 
ATOM     18  C   UNL     1       3.001  -1.171  -2.818  0.00  0.00    +0.004 A 
ATOM     19  C   UNL     1       1.667  -1.060  -3.155  0.00  0.00    +0.046 A 
ATOM     20  C   UNL     1       0.741  -0.669  -2.198  0.00  0.00    +0.125 A 
BRANCH  20  21
ATOM     21  O   UNL     1      -0.574  -0.564  -2.526  0.00  0.00    -0.495 OA
ATOM     22  C   UNL     1      -0.933  -0.876  -3.873  0.00  0.00    +0.277 C 
ENDBRANCH  20  21
ENDBRANCH  14  15
ENDBRANCH   1  14
TORSDOF 5
