REMARK  Name = ZINC06590803
REMARK  6 active torsions:
REMARK  status: ('A' for Active; 'I' for Inactive)
REMARK    1  A    between atoms: C_1  and  C_2
REMARK    2  A    between atoms: C_2  and  C_16
REMARK    3  A    between atoms: N_3  and  N_4
REMARK    4  A    between atoms: C_5  and  C_7
REMARK    5  A    between atoms: C_7  and  O_8
REMARK    6  A    between atoms: O_8  and  C_9
REMARK                            x       y       z     vdW  Elec       q    Type
REMARK                         _______ _______ _______ _____ _____    ______ ____
ROOT
ATOM      1  C   UNL     1       4.996   0.124  -0.023  0.00  0.00    +0.068 C 
ATOM      2  C   UNL     1       3.707  -0.657  -0.018  0.00  0.00    +0.063 C 
ATOM      3  N   UNL     1       3.734  -1.955  -0.020  0.00  0.00    -0.184 NA
ENDROOT
BRANCH   2   4
ATOM      4  C   UNL     1       2.416   0.053  -0.011  0.00  0.00    -0.001 A 
ATOM      5  C   UNL     1       2.385   1.450  -0.008  0.00  0.00    +0.011 A 
ATOM      6  C   UNL     1       1.174   2.108   0.002  0.00  0.00    +0.017 A 
ATOM      7  C   UNL     1      -0.017   1.390   0.010  0.00  0.00    +0.034 A 
ATOM      8  C   UNL     1       0.002  -0.004   0.002  0.00  0.00    +0.046 A 
ATOM      9  C   UNL     1       1.220  -0.669  -0.006  0.00  0.00    +0.034 A 
ATOM     10  N   UNL     1      -1.171  -0.755  -0.006  0.00  0.00    -0.313 N 
ATOM     11  C   UNL     1      -2.404  -0.312   0.463  0.00  0.00    +0.045 A 
ATOM     12  C   UNL     1      -3.344  -1.252   0.872  0.00  0.00    +0.024 A 
ATOM     13  C   UNL     1      -4.580  -0.847   1.340  0.00  0.00    +0.002 A 
ATOM     14  C   UNL     1      -4.892   0.498   1.404  0.00  0.00    +0.001 A 
ATOM     15  C   UNL     1      -3.965   1.442   1.002  0.00  0.00    +0.017 A 
ATOM     16  C   UNL     1      -2.721   1.042   0.533  0.00  0.00    +0.034 A 
ATOM     17  S   UNL     1      -1.550   2.259   0.036  0.00  0.00    -0.086 S 
ATOM     18  H   UNL     1      -1.125  -1.655  -0.365  0.00  0.00    +0.152 HD
ENDBRANCH   2   4
BRANCH   3  19
ATOM     19  N   UNL     1       4.961  -2.630  -0.027  0.00  0.00    -0.204 N 
ATOM     20  C   UNL     1       4.989  -3.977  -0.029  0.00  0.00    +0.270 C 
ATOM     21  O   UNL     1       3.952  -4.606  -0.025  0.00  0.00    -0.270 OA
ATOM     22  H   UNL     1       5.791  -2.127  -0.030  0.00  0.00    +0.177 HD
BRANCH  20  23
ATOM     23  C   UNL     1       6.310  -4.703  -0.037  0.00  0.00    +0.326 C 
BRANCH  23  24
ATOM     24  O   UNL     1       6.078  -6.114  -0.037  0.00  0.00    -0.483 OA
BRANCH  24  25
ATOM     25  C   UNL     1       7.173  -6.919  -0.044  0.00  0.00    +0.121 A 
ATOM     26  C   UNL     1       8.444  -6.363  -0.055  0.00  0.00    +0.048 A 
ATOM     27  C   UNL     1       9.556  -7.183  -0.056  0.00  0.00    +0.042 A 
ATOM     28  C   UNL     1       9.402  -8.559  -0.057  0.00  0.00    +0.124 A 
ATOM     29  C   UNL     1       8.135  -9.115  -0.052  0.00  0.00    +0.042 A 
ATOM     30  C   UNL     1       7.021  -8.298  -0.045  0.00  0.00    +0.048 A 
ATOM     31  F   UNL     1      10.491  -9.359  -0.062  0.00  0.00    -0.205 F 
ENDBRANCH  24  25
ENDBRANCH  23  24
ENDBRANCH  20  23
ENDBRANCH   3  19
TORSDOF 5
