REMARK  Name = ZINC66121594
REMARK  8 active torsions:
REMARK  status: ('A' for Active; 'I' for Inactive)
REMARK    1  A    between atoms: C_1  and  C_2
REMARK    2  A    between atoms: C_2  and  N_3
REMARK    3  A    between atoms: C_11  and  C_12
REMARK    4  A    between atoms: C_12  and  C_14
REMARK    5  A    between atoms: C_12  and  N_15
REMARK    6  A    between atoms: C_22  and  C_25
REMARK    7  A    between atoms: C_25  and  C_26
REMARK    8  A    between atoms: C_26  and  C_27
REMARK                            x       y       z     vdW  Elec       q    Type
REMARK                         _______ _______ _______ _____ _____    ______ ____
ROOT
ATOM      1  N   UNL     1       3.923  -1.723  -0.200  0.00  0.00    -0.290 N 
ATOM      2  C   UNL     1       4.558  -2.059   0.940  0.00  0.00    +0.303 C 
ATOM      3  O   UNL     1       4.466  -1.345   1.920  0.00  0.00    -0.253 OA
ATOM      4  N   UNL     1       5.294  -3.187   0.995  0.00  0.00    -0.285 N 
ATOM      5  C   UNL     1       5.510  -3.998  -0.211  0.00  0.00    +0.109 C 
ATOM      6  C   UNL     1       5.092  -5.442   0.086  0.00  0.00    +0.019 C 
ATOM      7  C   UNL     1       5.843  -5.942   1.322  0.00  0.00    +0.006 C 
ATOM      8  C   UNL     1       5.475  -5.075   2.529  0.00  0.00    +0.007 C 
ATOM      9  C   UNL     1       5.901  -3.624   2.259  0.00  0.00    +0.112 C 
ATOM     10  H   UNL     1       4.054  -2.252  -1.002  0.00  0.00    +0.151 HD
ENDROOT
BRANCH   1  11
ATOM     11  C   UNL     1       3.034  -0.558  -0.228  0.00  0.00    +0.138 C 
ATOM     12  C   UNL     1       3.857   0.705  -0.486  0.00  0.00    +0.036 C 
BRANCH  11  21
ATOM     13  N   UNL     1       0.685  -0.480  -1.202  0.00  0.00    -0.326 N 
ATOM     14  C   UNL     1       0.101  -0.749  -2.423  0.00  0.00    +0.069 A 
ATOM     15  C   UNL     1      -1.198  -0.681  -2.909  0.00  0.00    +0.028 A 
ATOM     16  C   UNL     1      -1.456  -1.029  -4.218  0.00  0.00    +0.002 A 
ATOM     17  C   UNL     1      -0.427  -1.446  -5.051  0.00  0.00    +0.002 A 
ATOM     18  C   UNL     1       0.857  -1.519  -4.590  0.00  0.00    +0.030 A 
ATOM     19  C   UNL     1       1.142  -1.171  -3.267  0.00  0.00    +0.089 A 
ATOM     20  N   UNL     1       2.284  -1.138  -2.533  0.00  0.00    -0.230 NA
ATOM     21  C   UNL     1       2.017  -0.729  -1.327  0.00  0.00    +0.131 A 
BRANCH  13  23
ATOM     22  C   UNL     1      -0.022   1.522   0.013  0.00  0.00    +0.027 C 
ATOM     23  C   UNL     1      -0.000  -0.008   0.004  0.00  0.00    +0.120 C 
ENDBRANCH  13  23
ENDBRANCH  11  21
ENDBRANCH   1  11
BRANCH   8  24
ATOM     24  C   UNL     1       6.199  -5.596   3.772  0.00  0.00    +0.014 C 
BRANCH  24  25
ATOM     25  C   UNL     1       5.736  -4.809   5.000  0.00  0.00    +0.096 C 
BRANCH  25  26
ATOM     26  C   UNL     1       6.449  -5.322   6.224  0.00  0.00    +0.210 C 
ATOM     27  O   UNL     1       7.250  -6.228   6.124  0.00  0.00    -0.276 OA
ATOM     28  N   UNL     1       6.199  -4.774   7.429  0.00  0.00    -0.329 N 
ATOM     29  H   UNL     1       5.559  -4.050   7.509  0.00  0.00    +0.145 HD
ATOM     30  H   UNL     1       6.658  -5.105   8.217  0.00  0.00    +0.145 HD
ENDBRANCH  25  26
ENDBRANCH  24  25
ENDBRANCH   8  24
TORSDOF 6
