REMARK  Name = ZINC09716459
REMARK  5 active torsions:
REMARK  status: ('A' for Active; 'I' for Inactive)
REMARK    1  A    between atoms: C_4  and  N_7
REMARK    2  A    between atoms: C_8  and  C_25
REMARK    3  A    between atoms: C_11  and  S_12
REMARK    4  A    between atoms: S_12  and  C_13
REMARK    5  A    between atoms: C_13  and  C_14
REMARK                            x       y       z     vdW  Elec       q    Type
REMARK                         _______ _______ _______ _____ _____    ______ ____
ROOT
ATOM      1  N   UNL     1       2.300   3.369  -0.002  0.00  0.00    -0.270 N 
ATOM      2  C   UNL     1       3.657   3.129  -0.016  0.00  0.00    +0.169 A 
ATOM      3  N   UNL     1       3.817   1.826  -0.025  0.00  0.00    -0.128 NA
ATOM      4  N   UNL     1       2.672   1.242  -0.011  0.00  0.00    -0.122 NA
ATOM      5  C   UNL     1       1.708   2.135  -0.003  0.00  0.00    +0.197 A 
ENDROOT
BRANCH   2   6
ATOM      6  C   UNL     1       4.729   4.146  -0.020  0.00  0.00    +0.023 A 
ATOM      7  C   UNL     1       4.437   5.472   0.303  0.00  0.00    +0.015 A 
ATOM      8  C   UNL     1       5.439   6.420   0.298  0.00  0.00    +0.050 A 
ATOM      9  C   UNL     1       6.739   6.060  -0.026  0.00  0.00    +0.166 A 
ATOM     10  C   UNL     1       7.037   4.737  -0.350  0.00  0.00    +0.167 A 
ATOM     11  C   UNL     1       6.038   3.781  -0.342  0.00  0.00    +0.061 A 
ATOM     12  O   UNL     1       8.371   4.646  -0.628  0.00  0.00    -0.453 OA
ATOM     13  C   UNL     1       8.961   5.837  -0.075  0.00  0.00    +0.466 C 
ATOM     14  O   UNL     1       7.887   6.796  -0.102  0.00  0.00    -0.453 OA
ENDBRANCH   2   6
BRANCH   1  18
ATOM     15  C   UNL     1       0.398   7.079   0.036  0.00  0.00    +0.000 A 
ATOM     16  C   UNL     1       0.272   6.228   1.118  0.00  0.00    +0.002 A 
ATOM     17  C   UNL     1       0.901   4.998   1.109  0.00  0.00    +0.026 A 
ATOM     18  C   UNL     1       1.660   4.617   0.011  0.00  0.00    +0.051 A 
ATOM     19  C   UNL     1       1.789   5.475  -1.073  0.00  0.00    +0.026 A 
ATOM     20  C   UNL     1       1.153   6.701  -1.060  0.00  0.00    +0.002 A 
ENDBRANCH   1  18
BRANCH   5  21
ATOM     21  S   UNL     1      -0.022   1.806   0.012  0.00  0.00    -0.078 S 
BRANCH  21  22
ATOM     22  C   UNL     1       0.002  -0.004   0.002  0.00  0.00    +0.151 C 
BRANCH  22  23
ATOM     23  C   UNL     1      -1.412  -0.526   0.013  0.00  0.00    +0.121 A 
ATOM     24  N   UNL     1      -1.604  -1.871   0.007  0.00  0.00    -0.309 N 
ATOM     25  H   UNL     1      -0.845  -2.474  -0.004  0.00  0.00    +0.170 HD
ATOM     26  C   UNL     1      -2.867  -2.361   0.017  0.00  0.00    +0.266 A 
ATOM     27  O   UNL     1      -3.073  -3.563   0.012  0.00  0.00    -0.267 OA
ATOM     28  C   UNL     1      -3.925  -1.452   0.033  0.00  0.00    +0.102 A 
ATOM     29  C   UNL     1      -3.699  -0.065   0.038  0.00  0.00    +0.085 A 
ATOM     30  N   UNL     1      -2.383   0.330   0.032  0.00  0.00    -0.232 NA
ATOM     31  C   UNL     1      -4.850   0.735   0.054  0.00  0.00    +0.036 A 
ATOM     32  C   UNL     1      -6.074   0.163   0.063  0.00  0.00    +0.048 A 
ATOM     33  S   UNL     1      -5.694  -1.581   0.050  0.00  0.00    -0.090 S 
ENDBRANCH  22  23
ENDBRANCH  21  22
ENDBRANCH   5  21
TORSDOF 5
