REMARK  Name = ZINC05744422
REMARK  10 active torsions:
REMARK  status: ('A' for Active; 'I' for Inactive)
REMARK    1  A    between atoms: C_1  and  C_2
REMARK    2  A    between atoms: C_5  and  O_27
REMARK    3  A    between atoms: C_6  and  C_8
REMARK    4  A    between atoms: C_8  and  C_14
REMARK    5  A    between atoms: N_9  and  N_10
REMARK    6  A    between atoms: N_10  and  C_11
REMARK    7  A    between atoms: C_11  and  N_13
REMARK    8  A    between atoms: C_14  and  S_15
REMARK    9  A    between atoms: S_15  and  C_16
REMARK   10  A    between atoms: N_20  and  C_21
REMARK                            x       y       z     vdW  Elec       q    Type
REMARK                         _______ _______ _______ _____ _____    ______ ____
ROOT
ATOM      1  C   UNL     1      -4.244   2.492   2.388  0.00  0.00    +0.080 C 
ATOM      2  N   UNL     1      -4.660   2.877   3.556  0.00  0.00    -0.184 NA
ENDROOT
BRANCH   1   8
ATOM      3  C   UNL     1      -0.540   1.055  -0.624  0.00  0.00    +0.044 C 
ATOM      4  C   UNL     1      -1.027   1.502   0.730  0.00  0.00    -0.050 A 
ATOM      5  C   UNL     1      -0.130   1.635   1.776  0.00  0.00    +0.007 A 
ATOM      6  C   UNL     1      -0.565   2.044   3.022  0.00  0.00    +0.046 A 
ATOM      7  C   UNL     1      -1.905   2.326   3.232  0.00  0.00    +0.126 A 
ATOM      8  C   UNL     1      -2.816   2.194   2.176  0.00  0.00    +0.040 A 
ATOM      9  C   UNL     1      -2.364   1.784   0.920  0.00  0.00    +0.016 A 
BRANCH   7  10
ATOM     10  O   UNL     1      -2.333   2.730   4.457  0.00  0.00    -0.506 OA
ATOM     11  H   UNL     1      -2.315   3.688   4.583  0.00  0.00    +0.292 HD
ENDBRANCH   7  10
ENDBRANCH   1   8
BRANCH   2  12
ATOM     12  N   UNL     1      -6.031   3.043   3.791  0.00  0.00    -0.218 N 
ATOM     13  H   UNL     1      -6.674   2.796   3.108  0.00  0.00    +0.176 HD
BRANCH  12  14
ATOM     14  C   UNL     1      -6.457   3.547   4.966  0.00  0.00    +0.147 C 
ATOM     15  S   UNL     1      -8.133   3.750   5.254  0.00  0.00    -0.017 S 
BRANCH  14  16
ATOM     16  N   UNL     1      -5.564   3.890   5.916  0.00  0.00    -0.339 N 
ATOM     17  H   UNL     1      -4.615   3.776   5.753  0.00  0.00    +0.144 HD
ATOM     18  H   UNL     1      -5.871   4.253   6.762  0.00  0.00    +0.144 HD
ENDBRANCH  14  16
ENDBRANCH  12  14
ENDBRANCH   2  12
BRANCH   1  19
ATOM     19  C   UNL     1      -5.221   2.348   1.250  0.00  0.00    +0.135 C 
BRANCH  19  20
ATOM     20  S   UNL     1      -5.910   0.674   1.253  0.00  0.00    -0.078 S 
BRANCH  20  21
ATOM     21  C   UNL     1      -6.986   0.783  -0.138  0.00  0.00    +0.214 A 
ATOM     22  N   UNL     1      -7.168   1.837  -0.905  0.00  0.00    -0.101 NA
ATOM     23  N   UNL     1      -8.020   1.577  -1.830  0.00  0.00    -0.022 NA
ATOM     24  N   UNL     1      -8.440   0.363  -1.727  0.00  0.00    -0.038 NA
ATOM     25  N   UNL     1      -7.779  -0.205  -0.624  0.00  0.00    -0.187 N 
BRANCH  25  26
ATOM     26  C   UNL     1      -7.912  -1.510  -0.130  0.00  0.00    +0.070 A 
ATOM     27  C   UNL     1      -6.812  -2.167   0.406  0.00  0.00    +0.028 A 
ATOM     28  C   UNL     1      -6.947  -3.451   0.896  0.00  0.00    +0.002 A 
ATOM     29  C   UNL     1      -8.174  -4.087   0.843  0.00  0.00    +0.000 A 
ATOM     30  C   UNL     1      -9.270  -3.438   0.304  0.00  0.00    +0.002 A 
ATOM     31  C   UNL     1      -9.142  -2.152  -0.182  0.00  0.00    +0.028 A 
ENDBRANCH  25  26
ENDBRANCH  20  21
ENDBRANCH  19  20
ENDBRANCH   1  19
TORSDOF 9
