REMARK  Name = ZINC13114948
REMARK  7 active torsions:
REMARK  status: ('A' for Active; 'I' for Inactive)
REMARK    1  A    between atoms: C_1  and  C_2
REMARK    2  A    between atoms: C_8  and  C_10
REMARK    3  A    between atoms: C_10  and  C_12
REMARK    4  A    between atoms: C_10  and  S_13
REMARK    5  A    between atoms: S_13  and  C_14
REMARK    6  A    between atoms: C_17  and  C_20
REMARK    7  A    between atoms: N_18  and  N_19
REMARK                            x       y       z     vdW  Elec       q    Type
REMARK                         _______ _______ _______ _____ _____    ______ ____
ROOT
ATOM      1  C   UNL     1       0.134   6.114  -5.772  0.00  0.00    +0.209 A 
ATOM      2  N   UNL     1      -1.171   6.024  -5.644  0.00  0.00    -0.121 NA
ATOM      3  N   UNL     1      -1.744   6.305  -6.760  0.00  0.00    -0.127 NA
ATOM      4  C   UNL     1      -0.841   6.592  -7.668  0.00  0.00    +0.183 A 
ATOM      5  N   UNL     1       0.390   6.483  -7.062  0.00  0.00    -0.224 N 
ENDROOT
BRANCH   4   6
ATOM      6  C   UNL     1      -1.097   6.966  -9.075  0.00  0.00    +0.035 A 
ATOM      7  C   UNL     1      -0.400   6.335 -10.107  0.00  0.00    +0.013 A 
ATOM      8  C   UNL     1      -0.644   6.689 -11.417  0.00  0.00    +0.001 A 
ATOM      9  C   UNL     1      -1.577   7.668 -11.711  0.00  0.00    +0.001 A 
ATOM     10  C   UNL     1      -2.272   8.297 -10.694  0.00  0.00    +0.016 A 
ATOM     11  C   UNL     1      -2.042   7.949  -9.378  0.00  0.00    +0.029 A 
ATOM     12 BR   UNL     1      -2.998   8.805  -7.990  0.00  0.00    -0.050 Br
ENDBRANCH   4   6
BRANCH   5  13
ATOM     13  N   UNL     1       1.612   6.697  -7.632  0.00  0.00    -0.295 N 
ATOM     14  H   UNL     1       2.013   5.832  -7.964  0.00  0.00    +0.163 HD
ATOM     15  H   UNL     1       1.551   7.376  -8.376  0.00  0.00    +0.163 HD
ENDBRANCH   5  13
BRANCH   1  16
ATOM     16  S   UNL     1       1.330   5.821  -4.512  0.00  0.00    -0.072 S 
BRANCH  16  17
ATOM     17  C   UNL     1       0.236   5.398  -3.133  0.00  0.00    +0.137 C 
ATOM     18  C   UNL     1      -0.610   6.617  -2.761  0.00  0.00    +0.029 C 
BRANCH  17  26
ATOM     19  C   UNL     1      -1.440   3.691   2.722  0.00  0.00    +0.007 C 
ATOM     20  C   UNL     1      -0.751   3.405   1.386  0.00  0.00    -0.011 C 
ATOM     21  C   UNL     1       0.671   3.970   1.415  0.00  0.00    +0.022 C 
ATOM     22  C   UNL     1       1.369   3.652   0.089  0.00  0.00    +0.108 C 
ATOM     23  N   UNL     1       0.541   4.157  -1.015  0.00  0.00    -0.301 N 
ATOM     24  C   UNL     1      -0.868   3.747  -1.086  0.00  0.00    +0.108 C 
ATOM     25  C   UNL     1      -1.541   4.065   0.253  0.00  0.00    +0.022 C 
ATOM     26  C   UNL     1       1.064   4.980  -1.945  0.00  0.00    +0.229 C 
ATOM     27  O   UNL     1       2.202   5.384  -1.827  0.00  0.00    -0.274 OA
ENDBRANCH  17  26
ENDBRANCH  16  17
ENDBRANCH   1  16
TORSDOF 5
