REMARK  Name = ZINC64502435
REMARK  9 active torsions:
REMARK  status: ('A' for Active; 'I' for Inactive)
REMARK    1  A    between atoms: C_1  and  C_2
REMARK    2  A    between atoms: C_5  and  S_9
REMARK    3  A    between atoms: C_7  and  C_8
REMARK    4  A    between atoms: S_9  and  C_12
REMARK    5  A    between atoms: N_18  and  C_19
REMARK    6  A    between atoms: C_19  and  C_20
REMARK    7  A    between atoms: C_20  and  C_21
REMARK    8  A    between atoms: C_24  and  O_30
REMARK    9  A    between atoms: O_30  and  C_31
REMARK                            x       y       z     vdW  Elec       q    Type
REMARK                         _______ _______ _______ _____ _____    ______ ____
ROOT
ATOM      1  C   UNL     1       1.752  -5.029  -0.035  0.00  0.00    +0.204 A 
ATOM      2  C   UNL     1       2.413  -5.214  -1.242  0.00  0.00    +0.053 A 
ATOM      3  C   UNL     1       3.741  -5.607  -1.204  0.00  0.00    +0.049 A 
ATOM      4  C   UNL     1       4.332  -5.792   0.046  0.00  0.00    +0.141 A 
ATOM      5  N   UNL     1       3.619  -5.591   1.144  0.00  0.00    -0.133 NA
ATOM      6  N   UNL     1       2.391  -5.222   1.102  0.00  0.00    -0.128 NA
ATOM      7  N   UNL     1       5.662  -6.186   0.138  0.00  0.00    -0.327 N 
ATOM      8  H   UNL     1       6.070  -6.315   1.009  0.00  0.00    +0.148 HD
ENDROOT
BRANCH   1   9
ATOM      9  S   UNL     1       0.063  -4.530  -0.023  0.00  0.00    +0.044 S 
ATOM     10  O   UNL     1      -0.476  -4.950   1.223  0.00  0.00    -0.163 OA
ATOM     11  O   UNL     1      -0.490  -4.937  -1.267  0.00  0.00    -0.163 OA
BRANCH   9  16
ATOM     12  C   UNL     1      -0.018   1.503   0.010  0.00  0.00    +0.044 C 
ATOM     13  C   UNL     1       0.002  -0.004   0.002  0.00  0.00    -0.047 A 
ATOM     14  C   UNL     1       0.006  -0.689  -1.199  0.00  0.00    +0.005 A 
ATOM     15  C   UNL     1       0.025  -2.071  -1.207  0.00  0.00    +0.028 A 
ATOM     16  C   UNL     1       0.040  -2.768  -0.013  0.00  0.00    +0.096 A 
ATOM     17  C   UNL     1       0.037  -2.084   1.188  0.00  0.00    +0.031 A 
ATOM     18  C   UNL     1       0.023  -0.702   1.195  0.00  0.00    -0.046 A 
ATOM     19  C   UNL     1       0.025   0.045   2.504  0.00  0.00    +0.044 C 
ENDBRANCH   9  16
ENDBRANCH   1   9
BRANCH   7  20
ATOM     20  C   UNL     1       6.447  -6.408  -1.079  0.00  0.00    +0.107 C 
BRANCH  20  21
ATOM     21  C   UNL     1       7.867  -6.832  -0.700  0.00  0.00    +0.052 C 
BRANCH  21  22
ATOM     22  C   UNL     1       8.674  -7.060  -1.952  0.00  0.00    -0.040 C 
ATOM     23  C   UNL     1       9.494  -6.175  -2.563  0.00  0.00    +0.002 A 
ATOM     24  C   UNL     1       9.866  -4.789  -2.259  0.00  0.00    +0.055 A 
ATOM     25  C   UNL     1      10.732  -4.137  -3.072  0.00  0.00    +0.121 A 
ATOM     26  C   UNL     1      11.294  -4.742  -4.210  0.00  0.00    +0.047 A 
ATOM     27  C   UNL     1      11.013  -6.013  -4.571  0.00  0.00    +0.029 A 
ATOM     28  C   UNL     1      10.088  -6.812  -3.762  0.00  0.00    +0.043 A 
ATOM     29  N   UNL     1       9.652  -8.041  -3.886  0.00  0.00    -0.380 N 
ATOM     30  C   UNL     1       8.736  -8.327  -2.776  0.00  0.00    +0.144 C 
ATOM     31  H   UNL     1       9.897  -8.659  -4.592  0.00  0.00    +0.160 HD
BRANCH  25  32
ATOM     32  O   UNL     1      11.067  -2.853  -2.779  0.00  0.00    -0.495 OA
ATOM     33  C   UNL     1      11.983  -2.203  -3.663  0.00  0.00    +0.277 C 
ENDBRANCH  25  32
ENDBRANCH  21  22
ENDBRANCH  20  21
ENDBRANCH   7  20
TORSDOF 6
