REMARK  Name = ZINC24396988
REMARK  8 active torsions:
REMARK  status: ('A' for Active; 'I' for Inactive)
REMARK    1  A    between atoms: C_1  and  C_2
REMARK    2  A    between atoms: C_2  and  O_3
REMARK    3  A    between atoms: O_3  and  C_4
REMARK    4  A    between atoms: C_9  and  C_10
REMARK    5  A    between atoms: C_10  and  N_11
REMARK    6  A    between atoms: C_12  and  C_14
REMARK    7  A    between atoms: C_15  and  C_24
REMARK    8  A    between atoms: C_26  and  C_29
REMARK                            x       y       z     vdW  Elec       q    Type
REMARK                         _______ _______ _______ _____ _____    ______ ____
ROOT
ATOM      1  N   UNL     1       0.568  -2.898   1.333  0.00  0.00    -0.307 N 
ATOM      2  C   UNL     1       1.714  -3.571   1.560  0.00  0.00    +0.247 C 
ATOM      3  O   UNL     1       2.289  -4.120   0.638  0.00  0.00    -0.270 OA
ATOM      4  H   UNL     1       0.048  -2.402   2.166  0.00  0.00    +0.149 HD
ENDROOT
BRANCH   2   5
ATOM      5  C   UNL     1       2.268  -3.642   2.918  0.00  0.00    +0.065 A 
ATOM      6  C   UNL     1       1.999  -4.590   3.861  0.00  0.00    +0.026 A 
ATOM      7  N   UNL     1       2.700  -4.325   4.990  0.00  0.00    -0.358 N 
ATOM      8  H   UNL     1       2.614  -4.993   5.860  0.00  0.00    +0.166 HD
ATOM      9  C   UNL     1       3.453  -3.180   4.832  0.00  0.00    +0.047 A 
ATOM     10  C   UNL     1       3.220  -2.699   3.533  0.00  0.00    +0.012 A 
ATOM     11  C   UNL     1       3.856  -1.541   3.093  0.00  0.00    +0.011 A 
ATOM     12  C   UNL     1       4.714  -0.871   3.938  0.00  0.00    +0.001 A 
ATOM     13  C   UNL     1       4.944  -1.344   5.221  0.00  0.00    +0.002 A 
ATOM     14  C   UNL     1       4.322  -2.489   5.669  0.00  0.00    +0.026 A 
ATOM     15  C   UNL     1       1.066  -5.758   3.674  0.00  0.00    +0.064 C 
ENDBRANCH   2   5
BRANCH   1  16
ATOM     16  C   UNL     1       0.015  -2.827  -0.021  0.00  0.00    +0.143 C 
BRANCH  16  22
ATOM     17  C   UNL     1      -1.201  -0.638   0.010  0.00  0.00    +0.126 A 
ATOM     18  C   UNL     1      -2.378   0.099   0.025  0.00  0.00    +0.053 A 
ATOM     19  C   UNL     1      -3.593  -0.548   0.031  0.00  0.00    +0.001 A 
ATOM     20  C   UNL     1      -3.662  -1.935   0.018  0.00  0.00    +0.125 A 
ATOM     21  C   UNL     1      -2.478  -2.669   0.007  0.00  0.00    +0.054 A 
ATOM     22  C   UNL     1      -1.259  -2.023  -0.003  0.00  0.00    +0.015 A 
ATOM     23  O   UNL     1      -4.954  -2.365   0.011  0.00  0.00    -0.488 OA
ATOM     24  C   UNL     1      -5.810  -1.300   0.460  0.00  0.00    +0.175 C 
ATOM     25  C   UNL     1      -5.019  -0.033   0.057  0.00  0.00    +0.083 C 
ATOM     26  C   UNL     1      -6.000  -1.361   1.977  0.00  0.00    +0.052 C 
BRANCH  17  27
ATOM     27  O   UNL     1       0.002  -0.004   0.002  0.00  0.00    -0.492 OA
BRANCH  27  29
ATOM     28  C   UNL     1       1.418   1.954  -0.001  0.00  0.00    +0.048 C 
ATOM     29  C   UNL     1      -0.017   1.425   0.010  0.00  0.00    +0.225 C 
ENDBRANCH  27  29
ENDBRANCH  17  27
ENDBRANCH  16  22
ENDBRANCH   1  16
TORSDOF 5
