REMARK  Name = ZINC16469024
REMARK  12 active torsions:
REMARK  status: ('A' for Active; 'I' for Inactive)
REMARK    1  A    between atoms: C_1  and  C_2
REMARK    2  A    between atoms: C_2  and  C_3
REMARK    3  A    between atoms: C_2  and  C_4
REMARK    4  A    between atoms: C_4  and  C_5
REMARK    5  A    between atoms: C_5  and  N_6
REMARK    6  A    between atoms: N_6  and  C_7
REMARK    7  A    between atoms: C_8  and  N_23
REMARK    8  A    between atoms: N_9  and  C_16
REMARK    9  A    between atoms: C_16  and  C_17
REMARK   10  A    between atoms: C_24  and  C_26
REMARK   11  A    between atoms: C_26  and  C_27
REMARK   12  A    between atoms: C_30  and  C_33
REMARK                            x       y       z     vdW  Elec       q    Type
REMARK                         _______ _______ _______ _____ _____    ______ ____
ROOT
ATOM      1  N   UNL     1       4.056   2.951   2.344  0.00  0.00    -0.264 N 
ATOM      2  C   UNL     1       3.424   2.821   3.529  0.00  0.00    +0.224 C 
ATOM      3  O   UNL     1       2.234   2.587   3.559  0.00  0.00    -0.275 OA
ENDROOT
BRANCH   1   4
ATOM      4  C   UNL     1       3.357   2.711   1.142  0.00  0.00    +0.140 A 
ATOM      5  C   UNL     1       3.697   1.645   0.334  0.00  0.00    +0.128 A 
ATOM      6  N   UNL     1       3.001   1.439  -0.834  0.00  0.00    -0.276 N 
ATOM      7  C   UNL     1       1.994   2.261  -1.180  0.00  0.00    +0.331 A 
ATOM      8  O   UNL     1       1.388   2.060  -2.215  0.00  0.00    -0.246 OA
ATOM      9  N   UNL     1       1.646   3.302  -0.403  0.00  0.00    -0.273 N 
ATOM     10  H   UNL     1       0.893   3.898  -0.684  0.00  0.00    +0.173 HD
ATOM     11  C   UNL     1       2.299   3.551   0.749  0.00  0.00    +0.277 A 
ATOM     12  O   UNL     1       1.975   4.497   1.446  0.00  0.00    -0.266 OA
BRANCH   5  13
ATOM     13  N   UNL     1       4.722   0.801   0.691  0.00  0.00    -0.343 N 
ATOM     14  H   UNL     1       5.015   0.109   0.078  0.00  0.00    +0.144 HD
ATOM     15  H   UNL     1       5.152   0.899   1.554  0.00  0.00    +0.144 HD
ENDBRANCH   5  13
BRANCH   6  16
ATOM     16  C   UNL     1       3.354   0.314  -1.704  0.00  0.00    +0.163 C 
BRANCH  16  17
ATOM     17  C   UNL     1       4.392   0.757  -2.702  0.00  0.00    -0.028 A 
ATOM     18  C   UNL     1       4.001   1.271  -3.924  0.00  0.00    +0.005 A 
ATOM     19  C   UNL     1       4.954   1.682  -4.837  0.00  0.00    +0.000 A 
ATOM     20  C   UNL     1       6.298   1.569  -4.533  0.00  0.00    +0.000 A 
ATOM     21  C   UNL     1       6.689   1.049  -3.313  0.00  0.00    +0.000 A 
ATOM     22  C   UNL     1       5.736   0.643  -2.397  0.00  0.00    +0.005 A 
ENDBRANCH  16  17
ENDBRANCH   6  16
ENDBRANCH   1   4
BRANCH   1  23
ATOM     23  C   UNL     1       5.467   3.342   2.305  0.00  0.00    +0.114 C 
BRANCH  23  24
ATOM     24  C   UNL     1       5.576   4.867   2.372  0.00  0.00    +0.022 C 
BRANCH  24  26
ATOM     25  C   UNL     1       7.155   6.800   2.272  0.00  0.00    +0.007 C 
ATOM     26  C   UNL     1       7.050   5.275   2.332  0.00  0.00    -0.016 C 
ATOM     27  C   UNL     1       7.755   4.764   3.589  0.00  0.00    +0.007 C 
ENDBRANCH  24  26
ENDBRANCH  23  24
ENDBRANCH   1  23
BRANCH   2  28
ATOM     28  C   UNL     1       4.196   2.967   4.815  0.00  0.00    +0.131 C 
BRANCH  28  29
ATOM     29  C   UNL     1       3.265   2.779   5.984  0.00  0.00    -0.039 A 
ATOM     30  C   UNL     1       2.611   3.868   6.530  0.00  0.00    +0.004 A 
ATOM     31  C   UNL     1       1.753   3.694   7.600  0.00  0.00    +0.012 A 
ATOM     32  C   UNL     1       1.557   2.433   8.131  0.00  0.00    +0.055 A 
ATOM     33  C   UNL     1       2.214   1.344   7.588  0.00  0.00    +0.012 A 
ATOM     34  C   UNL     1       3.068   1.517   6.515  0.00  0.00    +0.004 A 
BRANCH  32  35
ATOM     35  C   UNL     1       0.625   2.244   9.300  0.00  0.00    +0.417 C 
ATOM     36  F   UNL     1       1.342   2.378  10.494  0.00  0.00    -0.166 F 
ATOM     37  F   UNL     1      -0.386   3.210   9.252  0.00  0.00    -0.166 F 
ATOM     38  F   UNL     1       0.054   0.968   9.240  0.00  0.00    -0.166 F 
ENDBRANCH  32  35
ENDBRANCH  28  29
ENDBRANCH   2  28
TORSDOF 10
