REMARK  Name = ZINC66940004
REMARK  7 active torsions:
REMARK  status: ('A' for Active; 'I' for Inactive)
REMARK    1  A    between atoms: C_3  and  O_9
REMARK    2  A    between atoms: C_6  and  C_7
REMARK    3  A    between atoms: O_9  and  C_10
REMARK    4  A    between atoms: C_13  and  N_17
REMARK    5  A    between atoms: N_17  and  C_18
REMARK    6  A    between atoms: C_18  and  C_20
REMARK    7  A    between atoms: C_18  and  C_27
REMARK                            x       y       z     vdW  Elec       q    Type
REMARK                         _______ _______ _______ _____ _____    ______ ____
ROOT
ATOM      1  C   UNL     1       4.708   1.414   0.068  0.00  0.00    +0.147 A 
ATOM      2  C   UNL     1       4.685   0.027   0.053  0.00  0.00    +0.049 A 
ATOM      3  C   UNL     1       5.865  -0.685   0.144  0.00  0.00    +0.026 A 
ATOM      4  C   UNL     1       7.075  -0.012   0.251  0.00  0.00    +0.030 A 
ATOM      5  C   UNL     1       7.098   1.376   0.265  0.00  0.00    +0.046 A 
ATOM      6  C   UNL     1       5.918   2.088   0.168  0.00  0.00    +0.085 A 
ATOM      7 CL   UNL     1       5.946   3.823   0.179  0.00  0.00    -0.080 Cl
ENDROOT
BRANCH   4   8
ATOM      8  N   UNL     1       8.271  -0.733   0.343  0.00  0.00    -0.329 N 
ATOM      9  H   UNL     1       8.254  -1.703   0.334  0.00  0.00    +0.147 HD
BRANCH   8  10
ATOM     10  C   UNL     1       9.547  -0.023   0.455  0.00  0.00    +0.187 C 
BRANCH  10  11
ATOM     11  C   UNL     1      10.657  -0.901  -0.063  0.00  0.00    -0.018 A 
ATOM     12  C   UNL     1      10.653  -2.255   0.215  0.00  0.00    +0.009 A 
ATOM     13  C   UNL     1      11.671  -3.061  -0.260  0.00  0.00    +0.038 A 
ATOM     14  C   UNL     1      12.694  -2.512  -1.014  0.00  0.00    +0.123 A 
ATOM     15  C   UNL     1      12.696  -1.155  -1.292  0.00  0.00    +0.038 A 
ATOM     16  C   UNL     1      11.675  -0.352  -0.820  0.00  0.00    +0.009 A 
ATOM     17  F   UNL     1      13.689  -3.299  -1.479  0.00  0.00    -0.205 F 
ENDBRANCH  10  11
BRANCH  10  18
ATOM     18  C   UNL     1       9.808   0.316   1.900  0.00  0.00    +0.235 C 
ATOM     19  O   UNL     1       9.007  -0.003   2.752  0.00  0.00    -0.274 OA
ATOM     20  N   UNL     1      10.932   0.975   2.245  0.00  0.00    -0.328 N 
ATOM     21  H   UNL     1      11.573   1.230   1.564  0.00  0.00    +0.145 HD
ATOM     22  H   UNL     1      11.100   1.193   3.175  0.00  0.00    +0.145 HD
ENDBRANCH  10  18
ENDBRANCH   8  10
ENDBRANCH   4   8
BRANCH   1  23
ATOM     23  O   UNL     1       3.545   2.114  -0.021  0.00  0.00    -0.455 OA
BRANCH  23  26
ATOM     24  C   UNL     1       0.807   0.061   1.202  0.00  0.00    +0.022 A 
ATOM     25  C   UNL     1       1.990   0.766   1.169  0.00  0.00    +0.047 A 
ATOM     26  C   UNL     1       2.380   1.420   0.006  0.00  0.00    +0.129 A 
ATOM     27  C   UNL     1       1.579   1.364  -1.129  0.00  0.00    +0.047 A 
ATOM     28  C   UNL     1       0.395   0.661  -1.105  0.00  0.00    +0.022 A 
ATOM     29  C   UNL     1      -0.001   0.002   0.063  0.00  0.00    +0.052 A 
BRANCH  29  30
ATOM     30  C   UNL     1      -1.231  -0.731   0.092  0.00  0.00    +0.099 C 
ATOM     31  N   UNL     1      -2.207  -1.312   0.115  0.00  0.00    -0.191 NA
ENDBRANCH  29  30
ENDBRANCH  23  26
ENDBRANCH   1  23
TORSDOF 7
