REMARK  Name = ZINC12129852
REMARK  6 active torsions:
REMARK  status: ('A' for Active; 'I' for Inactive)
REMARK    1  A    between atoms: C_1  and  O_2
REMARK    2  A    between atoms: O_2  and  C_3
REMARK    3  A    between atoms: C_6  and  C_9
REMARK    4  A    between atoms: C_18  and  S_22
REMARK    5  A    between atoms: S_22  and  C_25
REMARK    6  A    between atoms: C_28  and  O_33
REMARK                            x       y       z     vdW  Elec       q    Type
REMARK                         _______ _______ _______ _____ _____    ______ ____
ROOT
ATOM      1  C   UNL     1       5.133  -3.006  -9.246  0.00  0.00    +0.138 A 
ATOM      2  C   UNL     1       5.611  -2.675  -8.017  0.00  0.00    +0.073 A 
ATOM      3  C   UNL     1       4.712  -2.238  -7.014  0.00  0.00    +0.055 A 
ATOM      4  N   UNL     1       5.139  -1.910  -5.798  0.00  0.00    -0.334 N 
ATOM      5  C   UNL     1       4.252  -1.648  -4.821  0.00  0.00    +0.172 A 
ATOM      6  N   UNL     1       3.812  -0.477  -4.393  0.00  0.00    -0.223 NA
ATOM      7  C   UNL     1       2.912  -0.367  -3.394  0.00  0.00    +0.081 A 
ATOM      8  C   UNL     1       2.362   0.814  -2.843  0.00  0.00    +0.031 A 
ATOM      9  C   UNL     1       1.446   0.751  -1.825  0.00  0.00    +0.029 A 
ATOM     10  C   UNL     1       1.036  -0.463  -1.293  0.00  0.00    +0.089 A 
ATOM     11  C   UNL     1       1.553  -1.638  -1.808  0.00  0.00    +0.044 A 
ATOM     12  C   UNL     1       2.467  -1.586  -2.831  0.00  0.00    +0.043 A 
ATOM     13  S   UNL     1       3.368  -2.794  -3.772  0.00  0.00    -0.050 S 
ATOM     14  C   UNL     1       3.281  -2.156  -7.373  0.00  0.00    +0.044 A 
ATOM     15  C   UNL     1       2.327  -1.731  -6.452  0.00  0.00    +0.059 A 
ATOM     16  C   UNL     1       0.997  -1.668  -6.827  0.00  0.00    +0.118 A 
ATOM     17  C   UNL     1       0.617  -2.026  -8.116  0.00  0.00    +0.049 A 
ATOM     18  C   UNL     1       1.557  -2.446  -9.034  0.00  0.00    +0.050 A 
ATOM     19  C   UNL     1       2.896  -2.516  -8.674  0.00  0.00    +0.138 A 
ATOM     20  O   UNL     1       3.829  -2.926  -9.560  0.00  0.00    -0.455 OA
ATOM     21  H   UNL     1       6.218  -1.854  -5.590  0.00  0.00    +0.168 HD
ENDROOT
BRANCH   1  25
ATOM     22  C   UNL     1       7.870  -4.324 -12.212  0.00  0.00    +0.120 A 
ATOM     23  C   UNL     1       6.516  -4.234 -12.510  0.00  0.00    +0.046 A 
ATOM     24  C   UNL     1       5.625  -3.807 -11.551  0.00  0.00    +0.015 A 
ATOM     25  C   UNL     1       6.084  -3.464 -10.276  0.00  0.00    +0.018 A 
ATOM     26  C   UNL     1       7.447  -3.551  -9.982  0.00  0.00    +0.015 A 
ATOM     27  C   UNL     1       8.331  -3.985 -10.946  0.00  0.00    +0.046 A 
BRANCH  22  29
ATOM     28  C   UNL     1      10.123  -4.815 -12.787  0.00  0.00    +0.277 C 
ATOM     29  O   UNL     1       8.746  -4.746 -13.160  0.00  0.00    -0.495 OA
ENDBRANCH  22  29
ENDBRANCH   1  25
BRANCH  10  30
ATOM     30  S   UNL     1      -0.138  -0.508   0.020  0.00  0.00    -0.006 S 
ATOM     31  O   UNL     1      -0.774  -1.772  -0.106  0.00  0.00    -0.170 OA
ATOM     32  O   UNL     1      -0.882   0.694  -0.118  0.00  0.00    -0.170 OA
ATOM     33  C   UNL     1       0.857  -0.457   1.536  0.00  0.00    +0.200 C 
ENDBRANCH  10  30
BRANCH  16  34
ATOM     34  O   UNL     1       0.059  -1.255  -5.933  0.00  0.00    -0.507 OA
ATOM     35  H   UNL     1      -0.999  -1.205  -6.230  0.00  0.00    +0.292 HD
ENDBRANCH  16  34
TORSDOF 4
