REMARK  Name = ZINC39480561
REMARK  5 active torsions:
REMARK  status: ('A' for Active; 'I' for Inactive)
REMARK    1  A    between atoms: C_1  and  N_2
REMARK    2  A    between atoms: C_6  and  S_10
REMARK    3  A    between atoms: C_8  and  O_9
REMARK    4  A    between atoms: S_10  and  O_13
REMARK    5  A    between atoms: O_13  and  C_14
REMARK                            x       y       z     vdW  Elec       q    Type
REMARK                         _______ _______ _______ _____ _____    ______ ____
ROOT
ATOM      1  C   UNL     1      -0.018   1.461   0.010  0.00  0.00    +0.137 C 
ATOM      2  N   UNL     1       0.002  -0.004   0.002  0.00  0.00    -0.283 N 
ATOM      3  C   UNL     1      -1.245  -0.586   0.005  0.00  0.00    +0.081 A 
ATOM      4  C   UNL     1      -2.255   0.123   0.624  0.00  0.00    -0.012 A 
ATOM      5  C   UNL     1      -3.565   0.030   0.329  0.00  0.00    +0.036 A 
ATOM      6  C   UNL     1      -3.940  -1.081  -0.435  0.00  0.00    +0.132 A 
ATOM      7  C   UNL     1      -2.975  -1.989  -0.837  0.00  0.00    +0.077 A 
ATOM      8  C   UNL     1      -1.620  -1.762  -0.632  0.00  0.00    +0.140 A 
ATOM      9  C   UNL     1      -1.766   0.589   2.033  0.00  0.00    +0.124 C 
ATOM     10  C   UNL     1      -0.374  -0.032   1.995  0.00  0.00    +0.195 C 
ATOM     11  N   UNL     1       0.754   0.585   1.905  0.00  0.00    -0.217 NA
ATOM     12  C   UNL     1       1.752  -0.137   1.323  0.00  0.00    +0.143 A 
ATOM     13  C   UNL     1       1.256  -0.548  -0.013  0.00  0.00    +0.156 A 
ATOM     14  N   UNL     1       2.017  -1.235  -0.776  0.00  0.00    -0.218 NA
ATOM     15  C   UNL     1       3.238  -1.583  -0.381  0.00  0.00    +0.225 A 
ATOM     16  N   UNL     1       3.721  -1.244   0.799  0.00  0.00    -0.222 NA
ATOM     17  C   UNL     1       2.999  -0.523   1.677  0.00  0.00    +0.160 A 
ATOM     18 CL   UNL     1       3.653  -0.089   3.226  0.00  0.00    -0.060 Cl
ATOM     19  F   UNL     1      -0.317  -1.380   2.065  0.00  0.00    -0.188 F 
ENDROOT
BRANCH   6  20
ATOM     20  S   UNL     1      -5.628  -1.324  -0.880  0.00  0.00    +0.151 S 
ATOM     21  O   UNL     1      -5.787  -2.715  -1.123  0.00  0.00    -0.131 OA
ATOM     22  O   UNL     1      -6.406  -0.625   0.082  0.00  0.00    -0.131 OA
BRANCH  20  23
ATOM     23  O   UNL     1      -5.848  -0.621  -2.212  0.00  0.00    -0.342 OA
BRANCH  23  24
ATOM     24  C   UNL     1      -5.322  -1.280  -3.278  0.00  0.00    +0.157 A 
ATOM     25  C   UNL     1      -4.017  -1.027  -3.676  0.00  0.00    +0.048 A 
ATOM     26  C   UNL     1      -3.485  -1.698  -4.760  0.00  0.00    +0.004 A 
ATOM     27  C   UNL     1      -4.251  -2.621  -5.448  0.00  0.00    +0.000 A 
ATOM     28  C   UNL     1      -5.552  -2.875  -5.053  0.00  0.00    +0.004 A 
ATOM     29  C   UNL     1      -6.087  -2.211  -3.966  0.00  0.00    +0.048 A 
ENDBRANCH  23  24
ENDBRANCH  20  23
ENDBRANCH   6  20
BRANCH   8  30
ATOM     30  O   UNL     1      -0.688  -2.663  -1.044  0.00  0.00    -0.505 OA
ATOM     31  H   UNL     1      -0.468  -3.332  -0.381  0.00  0.00    +0.292 HD
ENDBRANCH   8  30
TORSDOF 4
