REMARK  Name = ZINC16173929
REMARK  6 active torsions:
REMARK  status: ('A' for Active; 'I' for Inactive)
REMARK    1  A    between atoms: C_1  and  C_2
REMARK    2  A    between atoms: C_4  and  O_9
REMARK    3  A    between atoms: O_9  and  C_10
REMARK    4  A    between atoms: C_10  and  C_11
REMARK    5  A    between atoms: N_13  and  N_14
REMARK    6  A    between atoms: C_15  and  C_17
REMARK                            x       y       z     vdW  Elec       q    Type
REMARK                         _______ _______ _______ _____ _____    ______ ____
ROOT
ATOM      1  C   UNL     1       0.058   5.575   0.030  0.00  0.00    +0.267 C 
ATOM      2  O   UNL     1       1.173   6.052   0.022  0.00  0.00    -0.271 OA
ATOM      3  N   UNL     1      -1.021   6.383   0.044  0.00  0.00    -0.231 N 
ATOM      4  H   UNL     1      -1.913   6.001   0.051  0.00  0.00    +0.173 HD
ENDROOT
BRANCH   3   5
ATOM      5  N   UNL     1      -0.854   7.774   0.050  0.00  0.00    -0.231 N 
ATOM      6  C   UNL     1      -1.933   8.582   0.064  0.00  0.00    +0.270 C 
ATOM      7  O   UNL     1      -3.048   8.105   0.072  0.00  0.00    -0.270 OA
ATOM      8  H   UNL     1       0.038   8.155   0.043  0.00  0.00    +0.173 HD
BRANCH   6   9
ATOM      9  C   UNL     1      -1.753  10.078   0.070  0.00  0.00    +0.264 C 
ATOM     10  C   UNL     1      -1.214  10.571  -1.294  0.00  0.00    +0.093 C 
ATOM     11  C   UNL     1      -2.493  10.913  -2.032  0.00  0.00    -0.000 A 
ATOM     12  C   UNL     1      -2.761  11.133  -3.365  0.00  0.00    +0.027 A 
ATOM     13  C   UNL     1      -4.053  11.416  -3.774  0.00  0.00    +0.041 A 
ATOM     14  C   UNL     1      -5.072  11.475  -2.838  0.00  0.00    +0.023 A 
ATOM     15  C   UNL     1      -4.804  11.257  -1.503  0.00  0.00    +0.047 A 
ATOM     16  C   UNL     1      -3.506  10.977  -1.084  0.00  0.00    +0.125 A 
ATOM     17  O   UNL     1      -3.024  10.743   0.168  0.00  0.00    -0.479 OA
ATOM     18 CL   UNL     1      -4.395  11.695  -5.453  0.00  0.00    -0.084 Cl
ENDBRANCH   6   9
ENDBRANCH   3   5
BRANCH   1  19
ATOM     19  C   UNL     1      -0.121   4.079   0.024  0.00  0.00    +0.326 C 
BRANCH  19  20
ATOM     20  O   UNL     1       1.159   3.445   0.009  0.00  0.00    -0.483 OA
BRANCH  20  24
ATOM     21  C   UNL     1       3.713  -0.714  -0.038  0.00  0.00    +0.045 C 
ATOM     22  C   UNL     1       2.399   0.025  -0.021  0.00  0.00    -0.029 A 
ATOM     23  C   UNL     1       2.385   1.406  -0.014  0.00  0.00    +0.050 A 
ATOM     24  C   UNL     1       1.176   2.086   0.002  0.00  0.00    +0.122 A 
ATOM     25  C   UNL     1      -0.017   1.377   0.010  0.00  0.00    +0.047 A 
ATOM     26  C   UNL     1       0.002  -0.004   0.002  0.00  0.00    +0.024 A 
ATOM     27  C   UNL     1       1.209  -0.680  -0.013  0.00  0.00    +0.044 A 
ATOM     28 CL   UNL     1       1.230  -2.416  -0.023  0.00  0.00    -0.083 Cl
ENDBRANCH  20  24
ENDBRANCH  19  20
ENDBRANCH   1  19
TORSDOF 5
