REMARK  Name = ZINC19691793
REMARK  12 active torsions:
REMARK  status: ('A' for Active; 'I' for Inactive)
REMARK    1  A    between atoms: C_1  and  C_2
REMARK    2  A    between atoms: C_5  and  C_9
REMARK    3  A    between atoms: C_7  and  C_8
REMARK    4  A    between atoms: C_10  and  C_11
REMARK    5  A    between atoms: C_12  and  C_23
REMARK    6  A    between atoms: C_13  and  C_22
REMARK    7  A    between atoms: C_15  and  C_21
REMARK    8  A    between atoms: C_16  and  C_17
REMARK    9  A    between atoms: C_17  and  O_19
REMARK   10  A    between atoms: O_19  and  C_20
REMARK   11  A    between atoms: C_23  and  O_25
REMARK   12  A    between atoms: O_25  and  C_26
REMARK                            x       y       z     vdW  Elec       q    Type
REMARK                         _______ _______ _______ _____ _____    ______ ____
ROOT
ATOM      1  C   UNL     1      -4.964   0.872  -0.050  0.00  0.00    +0.090 C 
ATOM      2  C   UNL     1      -5.838   1.121  -1.246  0.00  0.00    +0.065 C 
ATOM      3  C   UNL     1      -7.150   1.380  -1.114  0.00  0.00    +0.016 C 
ATOM      4  N   UNL     1      -7.732   1.435   0.123  0.00  0.00    -0.321 N 
ATOM      5  C   UNL     1      -6.960   1.587   1.243  0.00  0.00    +0.016 C 
ATOM      6  C   UNL     1      -5.640   1.335   1.209  0.00  0.00    +0.065 C 
ATOM      7  C   UNL     1      -7.598   2.042   2.530  0.00  0.00    +0.061 C 
ATOM      8  C   UNL     1      -7.990   1.614  -2.343  0.00  0.00    +0.061 C 
ATOM      9  H   UNL     1      -8.825   1.357   0.221  0.00  0.00    +0.152 HD
ENDROOT
BRANCH   1  11
ATOM     10  C   UNL     1      -2.518   0.955  -0.254  0.00  0.00    +0.045 C 
ATOM     11  C   UNL     1      -3.666   1.619  -0.220  0.00  0.00    +0.007 C 
ATOM     12 CL   UNL     1      -2.510  -0.774  -0.104  0.00  0.00    -0.083 Cl
BRANCH  10  17
ATOM     13  C   UNL     1       2.436   3.808  -0.914  0.00  0.00    +0.044 C 
ATOM     14  C   UNL     1       1.139   3.061  -0.738  0.00  0.00    -0.048 A 
ATOM     15  C   UNL     1      -0.056   3.757  -0.697  0.00  0.00    +0.004 A 
ATOM     16  C   UNL     1      -1.247   3.079  -0.537  0.00  0.00    +0.009 A 
ATOM     17  C   UNL     1      -1.244   1.688  -0.421  0.00  0.00    -0.007 A 
ATOM     18  C   UNL     1      -0.035   0.993  -0.457  0.00  0.00    +0.013 A 
ATOM     19  C   UNL     1       1.149   1.683  -0.619  0.00  0.00    -0.047 A 
ATOM     20  C   UNL     1       2.455   0.933  -0.664  0.00  0.00    +0.044 C 
ENDBRANCH  10  17
ENDBRANCH   1  11
BRANCH   6  21
ATOM     21  C   UNL     1      -4.872   1.511   2.383  0.00  0.00    +0.337 C 
ATOM     22  O   UNL     1      -4.486   0.541   3.008  0.00  0.00    -0.245 OA
BRANCH  21  23
ATOM     23  O   UNL     1      -4.567   2.754   2.810  0.00  0.00    -0.465 OA
ATOM     24  C   UNL     1      -3.788   2.857   4.004  0.00  0.00    +0.280 C 
ENDBRANCH  21  23
ENDBRANCH   6  21
BRANCH   2  25
ATOM     25  C   UNL     1      -5.269   1.081  -2.539  0.00  0.00    +0.337 C 
ATOM     26  O   UNL     1      -5.965   1.281  -3.517  0.00  0.00    -0.245 OA
BRANCH  25  27
ATOM     27  O   UNL     1      -3.953   0.821  -2.690  0.00  0.00    -0.465 OA
ATOM     28  C   UNL     1      -3.445   0.796  -4.025  0.00  0.00    +0.280 C 
ENDBRANCH  25  27
ENDBRANCH   2  25
TORSDOF 6
