REMARK  Name = ZINC12438519
REMARK  4 active torsions:
REMARK  status: ('A' for Active; 'I' for Inactive)
REMARK    1  A    between atoms: C_1  and  C_2
REMARK    2  A    between atoms: C_11  and  C_12
REMARK    3  A    between atoms: C_12  and  N_46
REMARK    4  A    between atoms: C_13  and  N_46
REMARK                            x       y       z     vdW  Elec       q    Type
REMARK                         _______ _______ _______ _____ _____    ______ ____
ROOT
ATOM      1  N   UNL     1       3.548   1.959  -1.211  0.00  0.00    +0.386 N 
ATOM      2  H   UNL     1       3.591   2.905  -0.814  0.00  0.00    -0.085 HD
ATOM      3  H   UNL     1       4.103   1.319  -0.631  0.00  0.00    -0.085 HD
ENDROOT
BRANCH   1   4
ATOM      4  C   UNL     1       2.145   1.503  -1.232  0.00  0.00    -0.054 C 
ATOM      5  C   UNL     1       1.420   2.051  -0.001  0.00  0.00    -0.013 C 
ATOM      6  C   UNL     1      -0.019   1.526   0.010  0.00  0.00    +0.017 C 
ATOM      7  C   UNL     1       0.002  -0.004   0.002  0.00  0.00    +0.108 C 
ATOM      8  N   UNL     1       0.706  -0.479  -1.196  0.00  0.00    -0.301 N 
ATOM      9  C   UNL     1       2.103  -0.026  -1.205  0.00  0.00    +0.092 C 
ATOM     10  C   UNL     1       0.631  -1.857  -1.302  0.00  0.00    +0.218 A 
ATOM     11  N   UNL     1       0.127  -2.393  -2.404  0.00  0.00    -0.223 NA
ATOM     12  C   UNL     1       0.045  -3.707  -2.540  0.00  0.00    +0.116 A 
ATOM     13  C   UNL     1       0.484  -4.522  -1.509  0.00  0.00    +0.039 A 
ATOM     14  C   UNL     1       1.000  -3.927  -0.368  0.00  0.00    +0.116 A 
ATOM     15  N   UNL     1       1.059  -2.607  -0.298  0.00  0.00    -0.223 NA
ENDBRANCH   1   4
BRANCH   1  16
ATOM     16  C   UNL     1       4.101   1.979  -2.579  0.00  0.00    -0.028 C 
BRANCH  16  27
ATOM     17  C   UNL     1       6.542   0.224  -1.807  0.00  0.00    +0.046 C 
ATOM     18  C   UNL     1       6.582   1.681  -2.191  0.00  0.00    -0.024 A 
ATOM     19  C   UNL     1       7.774   2.528  -2.270  0.00  0.00    +0.004 A 
ATOM     20  C   UNL     1       9.135   2.312  -2.044  0.00  0.00    +0.030 A 
ATOM     21  C   UNL     1      10.022   3.340  -2.209  0.00  0.00    +0.042 A 
ATOM     22  C   UNL     1       9.579   4.597  -2.599  0.00  0.00    +0.022 A 
ATOM     23  C   UNL     1       8.241   4.831  -2.828  0.00  0.00    +0.027 A 
ATOM     24  C   UNL     1       7.322   3.800  -2.666  0.00  0.00    +0.047 A 
ATOM     25  N   UNL     1       5.955   3.715  -2.818  0.00  0.00    -0.359 N 
ATOM     26  H   UNL     1       5.378   4.447  -3.090  0.00  0.00    +0.166 HD
ATOM     27  C   UNL     1       5.532   2.447  -2.526  0.00  0.00    +0.003 A 
ATOM     28 CL   UNL     1      11.714   3.071  -1.928  0.00  0.00    -0.084 Cl
ENDBRANCH  16  27
ENDBRANCH   1  16
TORSDOF 3
