REMARK  Name = ZINC37700875
REMARK  7 active torsions:
REMARK  status: ('A' for Active; 'I' for Inactive)
REMARK    1  A    between atoms: C_3  and  N_19
REMARK    2  A    between atoms: C_6  and  C_7
REMARK    3  A    between atoms: C_7  and  C_8
REMARK    4  A    between atoms: C_8  and  O_9
REMARK    5  A    between atoms: O_9  and  C_10
REMARK    6  A    between atoms: C_15  and  C_16
REMARK    7  A    between atoms: C_16  and  N_17
REMARK                            x       y       z     vdW  Elec       q    Type
REMARK                         _______ _______ _______ _____ _____    ______ ____
ROOT
ATOM      1  O   UNL     1      -2.972  -1.760  -1.422  0.00  0.00    -0.491 OA
ENDROOT
BRANCH   1   2
ATOM      2  C   UNL     1      -3.514  -2.069  -2.629  0.00  0.00    +0.122 A 
ATOM      3  C   UNL     1      -2.873  -1.681  -3.798  0.00  0.00    +0.047 A 
ATOM      4  C   UNL     1      -3.426  -1.997  -5.024  0.00  0.00    +0.019 A 
ATOM      5  C   UNL     1      -4.616  -2.699  -5.088  0.00  0.00    +0.018 A 
ATOM      6  C   UNL     1      -5.257  -3.085  -3.924  0.00  0.00    +0.020 A 
ATOM      7  C   UNL     1      -4.705  -2.777  -2.696  0.00  0.00    -0.022 A 
ATOM      8 BR   UNL     1      -5.370  -3.129  -6.768  0.00  0.00    -0.050 Br
BRANCH   7   9
ATOM      9  C   UNL     1      -5.399  -3.205  -1.428  0.00  0.00    -0.047 C 
BRANCH   9  10
ATOM     10  N   UNL     1      -6.148  -2.070  -0.873  0.00  0.00    +0.381 N 
ATOM     11  H   UNL     1      -5.511  -1.315  -0.669  0.00  0.00    -0.090 HD
ATOM     12  H   UNL     1      -6.834  -1.760  -1.544  0.00  0.00    -0.090 HD
ATOM     13  H   UNL     1      -6.612  -2.357  -0.024  0.00  0.00    -0.090 HD
ENDBRANCH   9  10
ENDBRANCH   7   9
ENDBRANCH   1   2
BRANCH   1  14
ATOM     14  C   UNL     1      -1.744  -1.028  -1.429  0.00  0.00    +0.233 C 
BRANCH  14  15
ATOM     15  C   UNL     1      -1.293  -0.775   0.010  0.00  0.00    +0.076 C 
BRANCH  15  21
ATOM     16  C   UNL     1      -0.017   1.378   0.010  0.00  0.00    +0.006 A 
ATOM     17  C   UNL     1       1.171   2.086   0.002  0.00  0.00    +0.033 A 
ATOM     18  C   UNL     1       2.377   1.411  -0.013  0.00  0.00    +0.126 A 
ATOM     19  C   UNL     1       2.396   0.029  -0.020  0.00  0.00    +0.033 A 
ATOM     20  C   UNL     1       1.208  -0.679  -0.012  0.00  0.00    +0.006 A 
ATOM     21  C   UNL     1       0.002  -0.004   0.002  0.00  0.00    -0.044 A 
BRANCH  18  22
ATOM     22  N   UNL     1       3.649   2.168  -0.022  0.00  0.00    +0.056 N 
ATOM     23  O   UNL     1       3.633   3.377  -0.016  0.00  0.00    -0.126 OA
ATOM     24  O   UNL     1       4.704   1.578  -0.035  0.00  0.00    -0.126 OA
ENDBRANCH  18  22
ENDBRANCH  15  21
ENDBRANCH  14  15
ENDBRANCH   1  14
TORSDOF 7
