REMARK  Name = ZINC12585452
REMARK  7 active torsions:
REMARK  status: ('A' for Active; 'I' for Inactive)
REMARK    1  A    between atoms: C_1  and  C_2
REMARK    2  A    between atoms: C_7  and  C_9
REMARK    3  A    between atoms: C_7  and  C_10
REMARK    4  A    between atoms: N_11  and  C_13
REMARK    5  A    between atoms: C_13  and  N_14
REMARK    6  A    between atoms: N_17  and  C_30
REMARK    7  A    between atoms: C_18  and  C_20
REMARK                            x       y       z     vdW  Elec       q    Type
REMARK                         _______ _______ _______ _____ _____    ______ ____
ROOT
ATOM      1  N   UNL     1       1.708  -2.730  -3.351  0.00  0.00    -0.257 N 
ATOM      2  C   UNL     1       1.490  -3.149  -4.615  0.00  0.00    +0.181 A 
ATOM      3  S   UNL     1       0.840  -4.663  -5.079  0.00  0.00    -0.011 S 
ATOM      4  N   UNL     1       1.876  -2.161  -5.446  0.00  0.00    -0.271 N 
ATOM      5  C   UNL     1       2.343  -1.107  -4.680  0.00  0.00    +0.175 A 
ATOM      6  N   UNL     1       2.241  -1.436  -3.420  0.00  0.00    -0.151 NA
ENDROOT
BRANCH   5   7
ATOM      7  C   UNL     1       2.861   0.171  -5.198  0.00  0.00    +0.076 A 
ATOM      8  C   UNL     1       3.302   1.246  -4.496  0.00  0.00    +0.066 A 
ATOM      9  C   UNL     1       3.775   2.413  -5.219  0.00  0.00    +0.008 A 
ATOM     10  C   UNL     1       4.274   3.633  -4.699  0.00  0.00    +0.010 A 
ATOM     11  C   UNL     1       4.677   4.629  -5.532  0.00  0.00    +0.001 A 
ATOM     12  C   UNL     1       4.615   4.492  -6.912  0.00  0.00    +0.001 A 
ATOM     13  C   UNL     1       4.135   3.318  -7.459  0.00  0.00    +0.016 A 
ATOM     14  C   UNL     1       3.723   2.299  -6.627  0.00  0.00    +0.021 A 
ATOM     15  S   UNL     1       3.067   0.673  -6.896  0.00  0.00    -0.084 S 
ATOM     16 CL   UNL     1       3.301   1.226  -2.760  0.00  0.00    -0.082 Cl
ENDBRANCH   5   7
BRANCH   4  17
ATOM     17  C   UNL     1       1.816  -2.195  -6.845  0.00  0.00    +0.050 A 
ATOM     18  C   UNL     1       0.675  -1.754  -7.503  0.00  0.00    +0.026 A 
ATOM     19  C   UNL     1       0.619  -1.789  -8.883  0.00  0.00    +0.002 A 
ATOM     20  C   UNL     1       1.696  -2.261  -9.609  0.00  0.00    +0.000 A 
ATOM     21  C   UNL     1       2.834  -2.700  -8.957  0.00  0.00    +0.002 A 
ATOM     22  C   UNL     1       2.899  -2.664  -7.577  0.00  0.00    +0.026 A 
ENDBRANCH   4  17
BRANCH   1  23
ATOM     23  C   UNL     1       1.431  -3.488  -2.128  0.00  0.00    +0.072 C 
BRANCH  23  33
ATOM     24  C   UNL     1      -1.079  -0.171   0.490  0.00  0.00    +0.009 C 
ATOM     25  C   UNL     1      -0.254  -1.458   0.343  0.00  0.00    -0.048 C 
ATOM     26  C   UNL     1      -1.131  -2.737   0.430  0.00  0.00    -0.010 C 
ATOM     27  C   UNL     1      -0.196  -3.735  -0.309  0.00  0.00    -0.065 C 
ATOM     28  C   UNL     1       0.958  -4.061   0.619  0.00  0.00    -0.009 C 
ATOM     29  C   UNL     1       1.570  -2.914   1.392  0.00  0.00    -0.036 C 
ATOM     30  C   UNL     1       0.823  -1.596   1.420  0.00  0.00    +0.011 C 
ATOM     31  C   UNL     1       3.003  -2.666   0.883  0.00  0.00    +0.011 C 
ATOM     32  C   UNL     1       1.716  -3.383   2.863  0.00  0.00    +0.011 C 
ATOM     33  N   UNL     1       0.232  -2.959  -1.490  0.00  0.00    +0.395 N 
ATOM     34  C   UNL     1       0.424  -1.567  -1.042  0.00  0.00    -0.069 C 
ATOM     35  H   UNL     1      -0.530  -2.967  -2.171  0.00  0.00    -0.079 HD
ENDBRANCH  23  33
ENDBRANCH   1  23
TORSDOF 4
