REMARK  Name = ZINC41584636
REMARK  5 active torsions:
REMARK  status: ('A' for Active; 'I' for Inactive)
REMARK    1  A    between atoms: C_3  and  C_7
REMARK    2  A    between atoms: N_13  and  C_14
REMARK    3  A    between atoms: C_14  and  C_15
REMARK    4  A    between atoms: C_16  and  O_32
REMARK    5  A    between atoms: C_23  and  C_24
REMARK                            x       y       z     vdW  Elec       q    Type
REMARK                         _______ _______ _______ _____ _____    ______ ____
ROOT
ATOM      1  C   UNL     1       5.022   0.396   3.016  0.00  0.00    +0.020 A 
ATOM      2  C   UNL     1       4.848  -0.977   3.082  0.00  0.00    +0.122 A 
ATOM      3  C   UNL     1       5.669  -1.757   3.891  0.00  0.00    +0.046 A 
ATOM      4  C   UNL     1       6.658  -1.173   4.631  0.00  0.00    +0.019 A 
ATOM      5  C   UNL     1       6.845   0.208   4.574  0.00  0.00    +0.068 A 
ATOM      6  C   UNL     1       6.026   1.005   3.757  0.00  0.00    +0.144 A 
ATOM      7  O   UNL     1       6.398   2.300   3.861  0.00  0.00    -0.451 OA
ATOM      8  C   UNL     1       7.443   2.458   4.706  0.00  0.00    +0.176 C 
ATOM      9  C   UNL     1       8.046   3.628   5.024  0.00  0.00    +0.058 C 
ATOM     10  C   UNL     1       7.795   1.125   5.230  0.00  0.00    +0.231 C 
ATOM     11  O   UNL     1       8.681   0.843   6.017  0.00  0.00    -0.283 OA
ENDROOT
BRANCH   9  12
ATOM     12  C   UNL     1       7.646   4.870   4.345  0.00  0.00    -0.019 A 
ATOM     13  C   UNL     1       6.554   4.891   3.464  0.00  0.00    +0.028 A 
ATOM     14  C   UNL     1       6.215   6.079   2.850  0.00  0.00    +0.111 A 
ATOM     15  N   UNL     1       6.899   7.183   3.082  0.00  0.00    -0.263 NA
ATOM     16  C   UNL     1       7.932   7.208   3.902  0.00  0.00    +0.111 A 
ATOM     17  C   UNL     1       8.340   6.069   4.565  0.00  0.00    +0.028 A 
ENDBRANCH   9  12
BRANCH   2  18
ATOM     18  O   UNL     1       3.867  -1.567   2.351  0.00  0.00    -0.506 OA
ATOM     19  H   UNL     1       4.147  -1.841   1.467  0.00  0.00    +0.292 HD
ENDBRANCH   2  18
BRANCH   1  20
ATOM     20  C   UNL     1       4.125   1.228   2.135  0.00  0.00    -0.035 C 
BRANCH  20  26
ATOM     21  C   UNL     1       3.785   2.038  -0.095  0.00  0.00    -0.036 C 
ATOM     22  C   UNL     1       4.359   2.076  -1.513  0.00  0.00    -0.011 C 
ATOM     23  C   UNL     1       5.705   2.806  -1.494  0.00  0.00    -0.003 C 
ATOM     24  C   UNL     1       6.642   2.103  -0.507  0.00  0.00    -0.019 C 
ATOM     25  C   UNL     1       5.984   2.064   0.874  0.00  0.00    -0.078 C 
ATOM     26  N   UNL     1       4.715   1.331   0.794  0.00  0.00    +0.387 N 
ATOM     27  H   UNL     1       4.885   0.404   0.432  0.00  0.00    -0.080 HD
BRANCH  21  30
ATOM     28  C   UNL     1       0.078   1.336  -0.121  0.00  0.00    +0.020 A 
ATOM     29  C   UNL     1       1.274   2.038  -0.107  0.00  0.00    +0.005 A 
ATOM     30  C   UNL     1       2.460   1.321  -0.109  0.00  0.00    -0.043 A 
ATOM     31  C   UNL     1       2.412  -0.060  -0.123  0.00  0.00    +0.112 A 
ATOM     32  N   UNL     1       1.256  -0.695  -0.136  0.00  0.00    -0.263 NA
ATOM     33  C   UNL     1       0.108  -0.045  -0.135  0.00  0.00    +0.111 A 
ENDBRANCH  21  30
ENDBRANCH  20  26
ENDBRANCH   1  20
TORSDOF 5
