REMARK  Name = ZINC39753085
REMARK  13 active torsions:
REMARK  status: ('A' for Active; 'I' for Inactive)
REMARK    1  A    between atoms: C_1  and  C_2
REMARK    2  A    between atoms: C_2  and  N_3
REMARK    3  A    between atoms: C_4  and  CA_23
REMARK    4  A    between atoms: C_7  and  S_8
REMARK    5  A    between atoms: S_8  and  C_9
REMARK    6  A    between atoms: C_9  and  C_10
REMARK    7  A    between atoms: C_20  and  C_22
REMARK    8  A    between atoms: CA_23  and  C_25
REMARK    9  A    between atoms: CA_23  and  N_27
REMARK   10  A    between atoms: C_25  and  O_26
REMARK   11  A    between atoms: C_28  and  C_30
REMARK   12  A    between atoms: C_35  and  O_36
REMARK   13  A    between atoms: O_36  and  C_37
REMARK                            x       y       z     vdW  Elec       q    Type
REMARK                         _______ _______ _______ _____ _____    ______ ____
ROOT
ATOM      1  N   UNL     1       0.688  -0.476  -1.203  0.00  0.00    -0.305 N 
ATOM      2  C   UNL     1       0.126  -0.748  -2.420  0.00  0.00    +0.157 A 
ATOM      3  N   UNL     1       1.084  -1.140  -3.211  0.00  0.00    -0.131 NA
ATOM      4  N   UNL     1       2.205  -1.136  -2.582  0.00  0.00    -0.122 NA
ATOM      5  C   UNL     1       2.021  -0.732  -1.347  0.00  0.00    +0.192 A 
ENDROOT
BRANCH   1   7
ATOM      6  C   UNL     1      -0.019   1.526   0.010  0.00  0.00    +0.027 C 
ATOM      7  C   UNL     1       0.002  -0.004   0.002  0.00  0.00    +0.122 C 
ENDBRANCH   1   7
BRANCH   5   8
ATOM      8  S   UNL     1       3.261  -0.556  -0.107  0.00  0.00    -0.077 S 
BRANCH   8   9
ATOM      9  C   UNL     1       4.792  -1.052  -0.943  0.00  0.00    +0.173 C 
BRANCH   9  10
ATOM     10  C   UNL     1       5.947  -0.946   0.019  0.00  0.00    +0.230 C 
ATOM     11  O   UNL     1       5.756  -0.573   1.157  0.00  0.00    -0.274 OA
ATOM     12  N   UNL     1       7.192  -1.266  -0.386  0.00  0.00    -0.267 N 
ATOM     13  C   UNL     1       7.531  -1.701  -1.671  0.00  0.00    +0.040 A 
ATOM     14  C   UNL     1       6.711  -1.898  -2.783  0.00  0.00    +0.024 A 
ATOM     15  C   UNL     1       7.248  -2.337  -3.974  0.00  0.00    +0.002 A 
ATOM     16  C   UNL     1       8.605  -2.585  -4.076  0.00  0.00    +0.000 A 
ATOM     17  C   UNL     1       9.423  -2.392  -2.979  0.00  0.00    +0.005 A 
ATOM     18  C   UNL     1       8.889  -1.952  -1.783  0.00  0.00    -0.024 A 
ATOM     19  C   UNL     1       9.544  -1.663  -0.452  0.00  0.00    +0.059 C 
ATOM     20  C   UNL     1       8.391  -1.204   0.456  0.00  0.00    +0.083 C 
ATOM     21  C   UNL     1       8.628   0.229   0.936  0.00  0.00    +0.029 C 
ENDBRANCH   9  10
ENDBRANCH   8   9
ENDBRANCH   5   8
BRANCH   2  22
ATOM     22  CA  UNL     1      -1.332  -0.617  -2.780  0.00  0.00    +0.167 C 
BRANCH  22  23
ATOM     23  N   UNL     1      -1.758  -1.802  -3.529  0.00  0.00    -0.299 N 
ATOM     24  C   UNL     1      -3.055  -2.169  -3.527  0.00  0.00    +0.248 C 
ATOM     25  O   UNL     1      -3.871  -1.517  -2.905  0.00  0.00    -0.270 OA
ATOM     26  H   UNL     1      -1.107  -2.322  -4.025  0.00  0.00    +0.150 HD
BRANCH  24  27
ATOM     27  C   UNL     1      -3.484  -3.362  -4.281  0.00  0.00    +0.078 A 
ATOM     28  C   UNL     1      -2.549  -4.118  -4.993  0.00  0.00    +0.017 A 
ATOM     29  C   UNL     1      -2.957  -5.231  -5.694  0.00  0.00    +0.001 A 
ATOM     30  C   UNL     1      -4.291  -5.606  -5.697  0.00  0.00    +0.004 A 
ATOM     31  C   UNL     1      -5.225  -4.869  -4.998  0.00  0.00    +0.046 A 
ATOM     32  C   UNL     1      -4.832  -3.748  -4.282  0.00  0.00    +0.132 A 
BRANCH  32  33
ATOM     33  O   UNL     1      -5.748  -3.025  -3.590  0.00  0.00    -0.494 OA
ATOM     34  C   UNL     1      -7.102  -3.479  -3.638  0.00  0.00    +0.277 C 
ENDBRANCH  32  33
ENDBRANCH  24  27
ENDBRANCH  22  23
BRANCH  22  35
ATOM     35  C   UNL     1      -1.534   0.631  -3.642  0.00  0.00    +0.186 C 
BRANCH  35  36
ATOM     36  O   UNL     1      -0.670   0.571  -4.778  0.00  0.00    -0.393 OA
ATOM     37  H   UNL     1      -0.745   1.331  -5.371  0.00  0.00    +0.209 HD
ENDBRANCH  35  36
ENDBRANCH  22  35
ENDBRANCH   2  22
TORSDOF 10
