REMARK  Name = ZINC64937618
REMARK  6 active torsions:
REMARK  status: ('A' for Active; 'I' for Inactive)
REMARK    1  A    between atoms: C_6  and  C_7
REMARK    2  A    between atoms: N_9  and  N_10
REMARK    3  A    between atoms: N_10  and  S_11
REMARK    4  A    between atoms: S_11  and  C_14
REMARK    5  A    between atoms: C_17  and  S_20
REMARK    6  A    between atoms: S_20  and  C_21
REMARK                            x       y       z     vdW  Elec       q    Type
REMARK                         _______ _______ _______ _____ _____    ______ ____
ROOT
ATOM      1  S   UNL     1      -2.746  -3.954  -1.167  0.00  0.00    +0.074 S 
ATOM      2  O   UNL     1      -3.958  -4.605  -0.808  0.00  0.00    -0.152 OA
ATOM      3  O   UNL     1      -2.577  -3.292  -2.413  0.00  0.00    -0.152 OA
ENDROOT
BRANCH   1   4
ATOM      4  C   UNL     1      -1.473  -5.168  -1.064  0.00  0.00    +0.107 A 
ATOM      5  C   UNL     1      -0.308  -5.009  -1.792  0.00  0.00    +0.029 A 
ATOM      6  C   UNL     1       0.691  -5.958  -1.714  0.00  0.00    +0.017 A 
ATOM      7  C   UNL     1       0.526  -7.075  -0.903  0.00  0.00    +0.016 A 
ATOM      8  C   UNL     1      -0.646  -7.231  -0.173  0.00  0.00    +0.017 A 
ATOM      9  C   UNL     1      -1.640  -6.275  -0.252  0.00  0.00    +0.029 A 
BRANCH   7  10
ATOM     10  S   UNL     1       1.798  -8.289  -0.801  0.00  0.00    -0.016 S 
BRANCH  10  11
ATOM     11  C   UNL     1       1.136  -9.523   0.352  0.00  0.00    +0.448 C 
ATOM     12  F   UNL     1      -0.055 -10.049  -0.161  0.00  0.00    -0.160 F 
ATOM     13  F   UNL     1       2.068 -10.554   0.518  0.00  0.00    -0.160 F 
ATOM     14  F   UNL     1       0.885  -8.918   1.588  0.00  0.00    -0.160 F 
ENDBRANCH  10  11
ENDBRANCH   7  10
ENDBRANCH   1   4
BRANCH   1  15
ATOM     15  N   UNL     1      -2.447  -2.830   0.011  0.00  0.00    -0.108 NA
ATOM     16  H   UNL     1      -3.103  -2.669   0.707  0.00  0.00    +0.172 HD
BRANCH  15  19
ATOM     17  C   UNL     1      -1.266  -0.763   0.011  0.00  0.00    +0.259 C 
ATOM     18  O   UNL     1      -2.328  -0.171   0.024  0.00  0.00    -0.269 OA
ATOM     19  N   UNL     1      -1.244  -2.110   0.003  0.00  0.00    -0.228 N 
ATOM     20  H   UNL     1      -0.397  -2.582  -0.008  0.00  0.00    +0.171 HD
BRANCH  17  26
ATOM     21  C   UNL     1      -0.017   1.392   0.010  0.00  0.00    +0.016 A 
ATOM     22  C   UNL     1       1.169   2.095   0.002  0.00  0.00    +0.039 A 
ATOM     23  C   UNL     1       2.379   1.418  -0.013  0.00  0.00    +0.123 A 
ATOM     24  C   UNL     1       2.403   0.032  -0.021  0.00  0.00    +0.039 A 
ATOM     25  C   UNL     1       1.224  -0.681  -0.014  0.00  0.00    +0.016 A 
ATOM     26  C   UNL     1       0.002  -0.004   0.002  0.00  0.00    +0.038 A 
ATOM     27  F   UNL     1       3.538   2.112  -0.020  0.00  0.00    -0.205 F 
ENDBRANCH  17  26
ENDBRANCH  15  19
ENDBRANCH   1  15
TORSDOF 6
