REMARK  Name = ZINC64182135
REMARK  8 active torsions:
REMARK  status: ('A' for Active; 'I' for Inactive)
REMARK    1  A    between atoms: C_1  and  C_2
REMARK    2  A    between atoms: C_2  and  C_3
REMARK    3  A    between atoms: C_2  and  C_4
REMARK    4  A    between atoms: C_4  and  C_6
REMARK    5  A    between atoms: C_4  and  N_23
REMARK    6  A    between atoms: C_11  and  C_14
REMARK    7  A    between atoms: N_23  and  S_24
REMARK    8  A    between atoms: S_24  and  C_27
REMARK                            x       y       z     vdW  Elec       q    Type
REMARK                         _______ _______ _______ _____ _____    ______ ____
ROOT
ATOM      1  C   UNL     1      -1.429  -0.570  -2.061  0.00  0.00    +0.235 C 
ATOM      2  O   UNL     1      -1.562  -1.603  -2.683  0.00  0.00    -0.274 OA
ATOM      3  N   UNL     1      -1.688   0.612  -2.654  0.00  0.00    -0.296 N 
ATOM      4  C   UNL     1      -2.237   0.679  -4.019  0.00  0.00    +0.113 C 
ATOM      5  C   UNL     1      -3.613   1.346  -3.944  0.00  0.00    +0.054 C 
ATOM      6  C   UNL     1      -3.555   2.569  -3.078  0.00  0.00    -0.043 C 
ATOM      7  C   UNL     1      -2.596   2.811  -2.192  0.00  0.00    -0.004 C 
ATOM      8  C   UNL     1      -1.438   1.885  -1.962  0.00  0.00    +0.135 C 
ENDROOT
BRANCH   6   9
ATOM      9  C   UNL     1      -4.585   3.522  -3.212  0.00  0.00    -0.016 C 
ATOM     10  C   UNL     1      -5.729   3.417  -3.992  0.00  0.00    +0.003 A 
ATOM     11  C   UNL     1      -6.213   2.400  -4.848  0.00  0.00    +0.010 A 
ATOM     12  C   UNL     1      -7.390   2.572  -5.498  0.00  0.00    +0.001 A 
ATOM     13  C   UNL     1      -8.148   3.738  -5.347  0.00  0.00    +0.002 A 
ATOM     14  C   UNL     1      -7.748   4.753  -4.545  0.00  0.00    +0.026 A 
ATOM     15  C   UNL     1      -6.525   4.648  -3.829  0.00  0.00    +0.043 A 
ATOM     16  N   UNL     1      -5.926   5.477  -3.003  0.00  0.00    -0.380 N 
ATOM     17  C   UNL     1      -4.676   4.871  -2.533  0.00  0.00    +0.149 C 
ATOM     18  H   UNL     1      -6.260   6.350  -2.742  0.00  0.00    +0.160 HD
ENDBRANCH   6   9
BRANCH   1  19
ATOM     19  C   UNL     1      -0.977  -0.609  -0.624  0.00  0.00    +0.164 C 
BRANCH  19  21
ATOM     20  C   UNL     1       0.965  -0.272   0.911  0.00  0.00    +0.009 C 
ATOM     21  C   UNL     1       0.518  -0.291  -0.552  0.00  0.00    +0.010 C 
ATOM     22  C   UNL     1       1.305  -1.360  -1.312  0.00  0.00    +0.009 C 
ENDBRANCH  19  21
BRANCH  19  23
ATOM     23  N   UNL     1      -1.219  -1.944  -0.072  0.00  0.00    -0.181 NA
ATOM     24  H   UNL     1      -0.759  -2.713  -0.443  0.00  0.00    +0.149 HD
BRANCH  23  25
ATOM     25  S   UNL     1      -2.278  -2.140   1.186  0.00  0.00    +0.043 S 
ATOM     26  O   UNL     1      -2.206  -3.522   1.509  0.00  0.00    -0.157 OA
ATOM     27  O   UNL     1      -1.899  -1.153   2.136  0.00  0.00    -0.157 OA
BRANCH  25  28
ATOM     28  C   UNL     1      -3.906  -1.745   0.490  0.00  0.00    +0.213 C 
ATOM     29  C   UNL     1      -5.002  -1.712   1.589  0.00  0.00    +0.066 C 
ATOM     30  C   UNL     1      -5.972  -0.604   1.336  0.00  0.00    -0.017 C 
ATOM     31  C   UNL     1      -5.643   0.385   0.527  0.00  0.00    +0.038 C 
ATOM     32  S   UNL     1      -3.999   0.011  -0.058  0.00  0.00    -0.105 S 
ENDBRANCH  25  28
ENDBRANCH  23  25
ENDBRANCH  19  23
ENDBRANCH   1  19
TORSDOF 6
