REMARK  Name = ZINC35450175
REMARK  9 active torsions:
REMARK  status: ('A' for Active; 'I' for Inactive)
REMARK    1  A    between atoms: C_1  and  C_2
REMARK    2  A    between atoms: C_2  and  C_3
REMARK    3  A    between atoms: C_3  and  C_5
REMARK    4  A    between atoms: C_3  and  S_6
REMARK    5  A    between atoms: S_6  and  C_7
REMARK    6  A    between atoms: C_17  and  C_19
REMARK    7  A    between atoms: C_23  and  N_25
REMARK    8  A    between atoms: C_31  and  C_33
REMARK    9  A    between atoms: C_31  and  C_34
REMARK                            x       y       z     vdW  Elec       q    Type
REMARK                         _______ _______ _______ _____ _____    ______ ____
ROOT
ATOM      1  C   UNL     1      -3.926  -0.602  -1.300  0.00  0.00    +0.172 A 
ATOM      2  N   UNL     1      -4.264  -1.196  -0.175  0.00  0.00    -0.185 NA
ATOM      3  C   UNL     1      -5.519  -1.625   0.029  0.00  0.00    +0.280 A 
ATOM      4  O   UNL     1      -5.817  -2.174   1.081  0.00  0.00    -0.265 OA
ATOM      5  C   UNL     1      -6.492  -1.439  -0.976  0.00  0.00    +0.069 A 
ATOM      6  C   UNL     1      -6.132  -0.820  -2.132  0.00  0.00    +0.111 A 
ATOM      7  N   UNL     1      -4.839  -0.396  -2.291  0.00  0.00    -0.322 N 
ATOM      8  N   UNL     1      -7.060  -0.615  -3.126  0.00  0.00    -0.304 N 
ATOM      9  C   UNL     1      -8.400  -0.665  -2.852  0.00  0.00    +0.017 C 
ATOM     10  C   UNL     1      -8.851  -1.272  -1.734  0.00  0.00    +0.024 C 
ATOM     11  C   UNL     1      -7.896  -1.923  -0.765  0.00  0.00    +0.092 C 
ATOM     12  C   UNL     1     -10.225  -1.315  -1.438  0.00  0.00    +0.162 C 
ATOM     13  O   UNL     1     -10.599  -1.875  -0.426  0.00  0.00    -0.292 OA
ATOM     14  C   UNL     1     -11.240  -0.681  -2.348  0.00  0.00    +0.086 C 
ATOM     15  C   UNL     1     -10.585   0.492  -3.086  0.00  0.00    -0.023 C 
ATOM     16  C   UNL     1      -9.356  -0.030  -3.832  0.00  0.00    +0.058 C 
ATOM     17  C   UNL     1     -10.159   1.560  -2.077  0.00  0.00    +0.011 C 
ATOM     18  C   UNL     1     -11.578   1.089  -4.085  0.00  0.00    +0.011 C 
ATOM     19  H   UNL     1      -6.761  -0.433  -4.031  0.00  0.00    +0.153 HD
ATOM     20  H   UNL     1      -4.572   0.049  -3.111  0.00  0.00    +0.169 HD
ENDROOT
BRANCH  11  21
ATOM     21  C   UNL     1      -7.938  -3.417  -0.959  0.00  0.00    -0.033 A 
ATOM     22  C   UNL     1      -7.563  -3.967  -2.170  0.00  0.00    +0.005 A 
ATOM     23  C   UNL     1      -7.601  -5.338  -2.348  0.00  0.00    +0.003 A 
ATOM     24  C   UNL     1      -8.013  -6.158  -1.314  0.00  0.00    +0.033 A 
ATOM     25  C   UNL     1      -8.388  -5.607  -0.103  0.00  0.00    +0.126 A 
ATOM     26  C   UNL     1      -8.346  -4.237   0.076  0.00  0.00    +0.037 A 
BRANCH  25  27
ATOM     27  N   UNL     1      -8.830  -6.485   1.004  0.00  0.00    +0.056 N 
ATOM     28  O   UNL     1      -8.864  -7.684   0.848  0.00  0.00    -0.126 OA
ATOM     29  O   UNL     1      -9.158  -6.004   2.063  0.00  0.00    -0.126 OA
ENDBRANCH  25  27
ENDBRANCH  11  21
BRANCH   1  30
ATOM     30  S   UNL     1      -2.265  -0.057  -1.527  0.00  0.00    -0.085 S 
BRANCH  30  31
ATOM     31  C   UNL     1      -1.433  -0.534   0.013  0.00  0.00    +0.051 C 
ATOM     32  C   UNL     1      -1.413  -2.059   0.130  0.00  0.00    +0.019 C 
BRANCH  31  34
ATOM     33  C   UNL     1      -0.019   1.526   0.010  0.00  0.00    +0.005 C 
ATOM     34  C   UNL     1       0.002  -0.004   0.002  0.00  0.00    +0.011 C 
ENDBRANCH  31  34
ENDBRANCH  30  31
ENDBRANCH   1  30
TORSDOF 5
