REMARK  Name = ZINC15034226
REMARK  7 active torsions:
REMARK  status: ('A' for Active; 'I' for Inactive)
REMARK    1  A    between atoms: C_4  and  C_7
REMARK    2  A    between atoms: C_16  and  C_17
REMARK    3  A    between atoms: C_16  and  N_50
REMARK    4  A    between atoms: N_19  and  C_20
REMARK    5  A    between atoms: C_25  and  S_26
REMARK    6  A    between atoms: S_26  and  C_27
REMARK    7  A    between atoms: C_27  and  C_28
REMARK                            x       y       z     vdW  Elec       q    Type
REMARK                         _______ _______ _______ _____ _____    ______ ____
ROOT
ATOM      1  C   UNL     1      -7.136  -0.434   0.325  0.00  0.00    -0.005 C 
ATOM      2  C   UNL     1      -8.248  -1.478   0.327  0.00  0.00    -0.047 A 
ATOM      3  C   UNL     1      -9.598  -1.176   0.163  0.00  0.00    +0.010 A 
ATOM      4  C   UNL     1     -10.520  -2.166   0.176  0.00  0.00    +0.045 A 
ATOM      5  S   UNL     1      -9.503  -3.614   0.428  0.00  0.00    -0.101 S 
ATOM      6  C   UNL     1      -7.936  -2.794   0.496  0.00  0.00    -0.010 A 
ATOM      7  C   UNL     1      -6.571  -3.368   0.693  0.00  0.00    +0.024 C 
ATOM      8  C   UNL     1      -5.617  -2.207   1.024  0.00  0.00    -0.072 C 
ATOM      9  N   UNL     1      -5.855  -1.124   0.040  0.00  0.00    +0.393 N 
ATOM     10  H   UNL     1      -5.902  -1.535  -0.899  0.00  0.00    -0.080 HD
ENDROOT
BRANCH   1  14
ATOM     11  C   UNL     1      -7.866   2.434  -2.756  0.00  0.00    +0.000 A 
ATOM     12  C   UNL     1      -8.175   2.736  -1.443  0.00  0.00    +0.000 A 
ATOM     13  C   UNL     1      -7.939   1.808  -0.446  0.00  0.00    +0.002 A 
ATOM     14  C   UNL     1      -7.394   0.578  -0.762  0.00  0.00    -0.057 A 
ATOM     15  C   UNL     1      -7.081   0.277  -2.075  0.00  0.00    +0.002 A 
ATOM     16  C   UNL     1      -7.321   1.203  -3.072  0.00  0.00    +0.000 A 
ENDBRANCH   1  14
BRANCH   9  17
ATOM     17  C   UNL     1      -4.744  -0.154   0.083  0.00  0.00    +0.020 C 
BRANCH  17  18
ATOM     18  C   UNL     1      -4.612   0.451   1.457  0.00  0.00    +0.201 C 
ATOM     19  O   UNL     1      -5.315   0.056   2.363  0.00  0.00    -0.278 OA
ATOM     20  N   UNL     1      -3.715   1.432   1.678  0.00  0.00    -0.286 N 
ATOM     21  H   UNL     1      -3.199   1.793   0.941  0.00  0.00    +0.155 HD
BRANCH  20  22
ATOM     22  C   UNL     1      -3.528   1.931   2.975  0.00  0.00    +0.047 A 
ATOM     23  C   UNL     1      -4.601   2.019   3.848  0.00  0.00    +0.024 A 
ATOM     24  C   UNL     1      -4.414   2.511   5.126  0.00  0.00    +0.002 A 
ATOM     25  C   UNL     1      -3.158   2.916   5.539  0.00  0.00    +0.001 A 
ATOM     26  C   UNL     1      -2.080   2.827   4.678  0.00  0.00    +0.016 A 
ATOM     27  C   UNL     1      -2.260   2.340   3.390  0.00  0.00    +0.030 A 
BRANCH  27  28
ATOM     28  S   UNL     1      -0.890   2.231   2.288  0.00  0.00    -0.108 S 
BRANCH  28  29
ATOM     29  C   UNL     1       0.506   2.863   3.258  0.00  0.00    +0.192 C 
BRANCH  29  30
ATOM     30  C   UNL     1       1.729   2.825   2.440  0.00  0.00    +0.074 C 
ATOM     31  N   UNL     1       2.673   2.796   1.809  0.00  0.00    -0.196 NA
ENDBRANCH  29  30
ENDBRANCH  28  29
ENDBRANCH  27  28
ENDBRANCH  20  22
ENDBRANCH  17  18
ENDBRANCH   9  17
TORSDOF 7
