REMARK  Name = ZINC06883541
REMARK  11 active torsions:
REMARK  status: ('A' for Active; 'I' for Inactive)
REMARK    1  A    between atoms: C_1  and  C_2
REMARK    2  A    between atoms: C_2  and  C_3
REMARK    3  A    between atoms: C_2  and  C_4
REMARK    4  A    between atoms: C_4  and  N_46
REMARK    5  A    between atoms: C_5  and  C_6
REMARK    6  A    between atoms: C_5  and  N_46
REMARK    7  A    between atoms: C_8  and  O_23
REMARK    8  A    between atoms: C_9  and  O_13
REMARK    9  A    between atoms: O_13  and  C_14
REMARK   10  A    between atoms: C_14  and  C_15
REMARK   11  A    between atoms: O_23  and  C_24
REMARK                            x       y       z     vdW  Elec       q    Type
REMARK                         _______ _______ _______ _____ _____    ______ ____
ROOT
ATOM      1  C   UNL     1      -0.368   5.119   0.561  0.00  0.00    -0.059 A 
ATOM      2  C   UNL     1      -0.259   3.751   0.395  0.00  0.00    +0.051 A 
ATOM      3  C   UNL     1      -0.787   2.893   1.346  0.00  0.00    +0.163 A 
ATOM      4  C   UNL     1      -1.432   3.411   2.465  0.00  0.00    +0.181 A 
ATOM      5  C   UNL     1      -1.532   4.784   2.629  0.00  0.00    +0.086 A 
ATOM      6  C   UNL     1      -1.003   5.635   1.675  0.00  0.00    +0.025 A 
ATOM      7 CL   UNL     1      -2.329   5.436   4.027  0.00  0.00    -0.080 Cl
ENDROOT
BRANCH   3   8
ATOM      8  O   UNL     1      -0.682   1.547   1.184  0.00  0.00    -0.491 OA
ATOM      9  C   UNL     1      -0.013   1.086   0.008  0.00  0.00    +0.277 C 
ENDBRANCH   3   8
BRANCH   1  10
ATOM     10  C   UNL     1       0.207   6.050  -0.475  0.00  0.00    -0.047 C 
BRANCH  10  11
ATOM     11  N   UNL     1      -0.822   6.335  -1.493  0.00  0.00    +0.382 N 
ATOM     12  H   UNL     1      -1.112   5.456  -1.937  0.00  0.00    -0.085 HD
ATOM     13  H   UNL     1      -1.632   6.775  -1.041  0.00  0.00    -0.085 HD
BRANCH  11  14
ATOM     14  C   UNL     1      -0.286   7.246  -2.522  0.00  0.00    -0.079 C 
BRANCH  14  16
ATOM     15  C   UNL     1      -2.526   8.284  -2.903  0.00  0.00    +0.005 C 
ATOM     16  C   UNL     1      -1.373   7.524  -3.561  0.00  0.00    -0.034 C 
ATOM     17  C   UNL     1      -0.790   8.366  -4.698  0.00  0.00    +0.005 C 
ENDBRANCH  14  16
ENDBRANCH  11  14
ENDBRANCH  10  11
ENDBRANCH   1  10
BRANCH   4  18
ATOM     18  O   UNL     1      -1.957   2.573   3.399  0.00  0.00    -0.482 OA
BRANCH  18  19
ATOM     19  C   UNL     1      -1.101   2.184   4.476  0.00  0.00    +0.266 C 
BRANCH  19  20
ATOM     20  C   UNL     1      -1.850   1.262   5.404  0.00  0.00    +0.008 A 
ATOM     21  C   UNL     1      -3.163   0.925   5.133  0.00  0.00    +0.010 A 
ATOM     22  C   UNL     1      -3.850   0.079   5.983  0.00  0.00    +0.020 A 
ATOM     23  C   UNL     1      -3.223  -0.432   7.105  0.00  0.00    +0.042 A 
ATOM     24  C   UNL     1      -1.909  -0.096   7.377  0.00  0.00    +0.040 A 
ATOM     25  C   UNL     1      -1.220   0.747   6.523  0.00  0.00    +0.049 A 
ATOM     26 CL   UNL     1       0.431   1.164   6.859  0.00  0.00    -0.083 Cl
ATOM     27 CL   UNL     1      -4.086  -1.494   8.173  0.00  0.00    -0.083 Cl
ENDBRANCH  19  20
ENDBRANCH  18  19
ENDBRANCH   4  18
TORSDOF 8
