REMARK  Name = ZINC14274995
REMARK  6 active torsions:
REMARK  status: ('A' for Active; 'I' for Inactive)
REMARK    1  A    between atoms: C_3  and  N_8
REMARK    2  A    between atoms: N_8  and  C_9
REMARK    3  A    between atoms: C_9  and  N_11
REMARK    4  A    between atoms: C_12  and  C_14
REMARK    5  A    between atoms: C_15  and  C_16
REMARK    6  A    between atoms: C_19  and  C_21
REMARK                            x       y       z     vdW  Elec       q    Type
REMARK                         _______ _______ _______ _____ _____    ______ ____
ROOT
ATOM      1  N   UNL     1      -1.197   2.366   0.029  0.00  0.00    -0.264 N 
ATOM      2  C   UNL     1      -2.355   1.677   0.035  0.00  0.00    +0.242 C 
ATOM      3  O   UNL     1      -2.339   0.459   0.027  0.00  0.00    -0.270 OA
ATOM      4  H   UNL     1      -1.210   3.336   0.035  0.00  0.00    +0.157 HD
ENDROOT
BRANCH   1   5
ATOM      5  C   UNL     1      -0.021   1.708   0.015  0.00  0.00    +0.142 C 
ATOM      6  S   UNL     1       0.002  -0.004   0.005  0.00  0.00    -0.018 S 
BRANCH   5   7
ATOM      7  N   UNL     1       1.137   2.397   0.004  0.00  0.00    -0.282 N 
ATOM      8  H   UNL     1       1.125   3.365  -0.067  0.00  0.00    +0.155 HD
BRANCH   7  11
ATOM      9  C   UNL     1       4.735   1.757   0.285  0.00  0.00    +0.020 A 
ATOM     10  C   UNL     1       3.536   2.442   0.191  0.00  0.00    +0.045 A 
ATOM     11  C   UNL     1       2.352   1.720   0.094  0.00  0.00    +0.124 A 
ATOM     12  N   UNL     1       2.367   0.397   0.081  0.00  0.00    -0.239 NA
ATOM     13  C   UNL     1       3.495  -0.283   0.164  0.00  0.00    +0.128 A 
ATOM     14  C   UNL     1       4.709   0.369   0.268  0.00  0.00    +0.036 A 
ATOM     15 BR   UNL     1       6.317  -0.619   0.387  0.00  0.00    -0.049 Br
ENDBRANCH   7  11
ENDBRANCH   5   7
ENDBRANCH   1   5
BRANCH   2  16
ATOM     16  C   UNL     1      -3.588   2.367   0.049  0.00  0.00    +0.071 C 
ATOM     17  C   UNL     1      -4.756   1.672   0.055  0.00  0.00    +0.051 C 
BRANCH  17  18
ATOM     18  C   UNL     1      -5.989   2.362   0.069  0.00  0.00    +0.129 A 
ATOM     19  C   UNL     1      -7.243   1.780   0.071  0.00  0.00    +0.050 A 
ATOM     20  C   UNL     1      -8.172   2.824   0.091  0.00  0.00    +0.050 A 
ATOM     21  C   UNL     1      -7.457   4.000   0.091  0.00  0.00    +0.136 A 
ATOM     22  O   UNL     1      -6.145   3.703   0.078  0.00  0.00    -0.455 OA
BRANCH  21  23
ATOM     23  C   UNL     1      -8.032   5.359   0.103  0.00  0.00    +0.020 A 
ATOM     24  C   UNL     1      -9.418   5.534   0.111  0.00  0.00    +0.031 A 
ATOM     25  C   UNL     1      -9.950   6.808   0.127  0.00  0.00    +0.043 A 
ATOM     26  C   UNL     1      -9.113   7.911   0.125  0.00  0.00    +0.040 A 
ATOM     27  C   UNL     1      -7.738   7.744   0.113  0.00  0.00    +0.043 A 
ATOM     28  C   UNL     1      -7.193   6.476   0.102  0.00  0.00    +0.031 A 
ATOM     29 CL   UNL     1      -6.697   9.134   0.111  0.00  0.00    -0.083 Cl
ATOM     30 CL   UNL     1     -11.672   7.027   0.142  0.00  0.00    -0.083 Cl
ENDBRANCH  21  23
ENDBRANCH  17  18
ENDBRANCH   2  16
TORSDOF 6
