REMARK  Name = ZINC15529994
REMARK  11 active torsions:
REMARK  status: ('A' for Active; 'I' for Inactive)
REMARK    1  A    between atoms: C_6  and  C_7
REMARK    2  A    between atoms: C_7  and  C_8
REMARK    3  A    between atoms: N_10  and  N_11
REMARK    4  A    between atoms: C_12  and  C_14
REMARK    5  A    between atoms: C_14  and  C_15
REMARK    6  A    between atoms: C_15  and  C_16
REMARK    7  A    between atoms: C_16  and  C_17
REMARK    8  A    between atoms: C_17  and  C_18
REMARK    9  A    between atoms: C_18  and  N_19
REMARK   10  A    between atoms: N_19  and  S_20
REMARK   11  A    between atoms: S_20  and  C_23
REMARK                            x       y       z     vdW  Elec       q    Type
REMARK                         _______ _______ _______ _____ _____    ______ ____
ROOT
ATOM      1  C   UNL     1       6.335   0.325  -5.941  0.00  0.00    +0.009 C 
ENDROOT
BRANCH   1   2
ATOM      2  C   UNL     1       6.646   1.528  -6.834  0.00  0.00    +0.097 C 
BRANCH   2   4
ATOM      3  N   UNL     1       7.700   1.949  -9.031  0.00  0.00    -0.234 N 
ATOM      4  C   UNL     1       7.331   1.057  -8.091  0.00  0.00    +0.229 C 
ATOM      5  O   UNL     1       7.549  -0.124  -8.256  0.00  0.00    -0.274 OA
ATOM      6  H   UNL     1       7.526   2.894  -8.899  0.00  0.00    +0.173 HD
BRANCH   3   9
ATOM      7  C   UNL     1       8.707   2.403 -11.141  0.00  0.00    +0.233 C 
ATOM      8  O   UNL     1       8.489   3.584 -10.975  0.00  0.00    -0.274 OA
ATOM      9  N   UNL     1       8.337   1.511 -10.200  0.00  0.00    -0.234 N 
ATOM     10  H   UNL     1       8.512   0.566 -10.332  0.00  0.00    +0.173 HD
BRANCH   7  11
ATOM     11  C   UNL     1       9.392   1.932 -12.398  0.00  0.00    +0.132 C 
BRANCH  11  17
ATOM     12  C   UNL     1       8.775   3.534 -14.219  0.00  0.00    +0.005 A 
ATOM     13  C   UNL     1       9.053   4.625 -15.022  0.00  0.00    +0.020 A 
ATOM     14  C   UNL     1      10.258   5.291 -14.891  0.00  0.00    +0.041 A 
ATOM     15  C   UNL     1      11.183   4.869 -13.953  0.00  0.00    +0.020 A 
ATOM     16  C   UNL     1      10.902   3.782 -13.146  0.00  0.00    +0.005 A 
ATOM     17  C   UNL     1       9.697   3.117 -13.277  0.00  0.00    -0.038 A 
ATOM     18 CL   UNL     1      10.610   6.656 -15.904  0.00  0.00    -0.084 Cl
ENDBRANCH  11  17
ENDBRANCH   7  11
ENDBRANCH   3   9
ENDBRANCH   2   4
ENDBRANCH   1   2
BRANCH   1  19
ATOM     19  C   UNL     1       5.640   0.803  -4.665  0.00  0.00    +0.002 C 
BRANCH  19  20
ATOM     20  C   UNL     1       5.330  -0.400  -3.772  0.00  0.00    +0.017 C 
BRANCH  20  21
ATOM     21  C   UNL     1       4.635   0.078  -2.495  0.00  0.00    +0.106 C 
BRANCH  21  22
ATOM     22  N   UNL     1       4.338  -1.074  -1.640  0.00  0.00    -0.190 NA
ATOM     23  H   UNL     1       4.379  -1.972  -2.005  0.00  0.00    +0.148 HD
BRANCH  22  24
ATOM     24  S   UNL     1       3.931  -0.843  -0.052  0.00  0.00    +0.059 S 
ATOM     25  O   UNL     1       4.904   0.039   0.492  0.00  0.00    -0.153 OA
ATOM     26  O   UNL     1       3.679  -2.130   0.494  0.00  0.00    -0.153 OA
BRANCH  24  27
ATOM     27  C   UNL     1       2.397   0.024  -0.027  0.00  0.00    +0.109 A 
ATOM     28  C   UNL     1       1.207  -0.680  -0.016  0.00  0.00    +0.032 A 
ATOM     29  C   UNL     1       0.002  -0.004   0.002  0.00  0.00    +0.051 A 
ATOM     30  C   UNL     1      -0.017   1.383   0.010  0.00  0.00    +0.162 A 
ATOM     31  C   UNL     1       1.179   2.090   0.002  0.00  0.00    +0.164 A 
ATOM     32  C   UNL     1       2.385   1.406  -0.018  0.00  0.00    +0.078 A 
ATOM     33  O   UNL     1       1.184   3.451   0.018  0.00  0.00    -0.485 OA
ATOM     34  C   UNL     1      -0.040   4.103  -0.340  0.00  0.00    +0.270 C 
ATOM     35  C   UNL     1      -1.189   3.413   0.408  0.00  0.00    +0.270 C 
ATOM     36  O   UNL     1      -1.212   2.035   0.019  0.00  0.00    -0.485 OA
ENDBRANCH  24  27
ENDBRANCH  22  24
ENDBRANCH  21  22
ENDBRANCH  20  21
ENDBRANCH  19  20
ENDBRANCH   1  19
TORSDOF 11
