REMARK  Name = ZINC09205774
REMARK  7 active torsions:
REMARK  status: ('A' for Active; 'I' for Inactive)
REMARK    1  A    between atoms: C_1  and  C_2
REMARK    2  A    between atoms: C_4  and  C_7
REMARK    3  A    between atoms: C_7  and  N_9
REMARK    4  A    between atoms: N_11  and  C_23
REMARK    5  A    between atoms: C_15  and  S_19
REMARK    6  A    between atoms: S_19  and  N_22
REMARK    7  A    between atoms: C_23  and  C_24
REMARK                            x       y       z     vdW  Elec       q    Type
REMARK                         _______ _______ _______ _____ _____    ______ ____
ROOT
ATOM      1  N   UNL     1      -2.287   1.641   0.132  0.00  0.00    -0.151 NA
ATOM      2  C   UNL     1      -3.399   2.368   0.177  0.00  0.00    +0.167 A 
ATOM      3  N   UNL     1      -3.524   3.721   0.148  0.00  0.00    -0.317 N 
ATOM      4  C   UNL     1      -4.776   4.303   0.205  0.00  0.00    +0.058 A 
ATOM      5  C   UNL     1      -5.104   5.668   0.188  0.00  0.00    +0.029 A 
ATOM      6  C   UNL     1      -6.415   6.078   0.253  0.00  0.00    +0.030 A 
ATOM      7  C   UNL     1      -7.449   5.161   0.338  0.00  0.00    +0.106 A 
ATOM      8  C   UNL     1      -7.155   3.809   0.358  0.00  0.00    +0.045 A 
ATOM      9  C   UNL     1      -5.845   3.399   0.292  0.00  0.00    +0.041 A 
ATOM     10  S   UNL     1      -5.040   1.817   0.280  0.00  0.00    -0.052 S 
ENDROOT
BRANCH   7  11
ATOM     11  S   UNL     1      -9.122   5.710   0.422  0.00  0.00    +0.056 S 
ATOM     12  O   UNL     1      -9.153   7.005  -0.164  0.00  0.00    -0.153 OA
ATOM     13  O   UNL     1      -9.925   4.639  -0.054  0.00  0.00    -0.153 OA
BRANCH  11  14
ATOM     14  N   UNL     1      -9.494   5.906   2.023  0.00  0.00    -0.204 NA
ATOM     15  H   UNL     1     -10.145   6.573   2.292  0.00  0.00    +0.144 HD
ATOM     16  H   UNL     1      -9.060   5.353   2.693  0.00  0.00    +0.144 HD
ENDBRANCH  11  14
ENDBRANCH   7  11
BRANCH   1  17
ATOM     17  C   UNL     1      -1.116   2.228  -0.129  0.00  0.00    +0.291 C 
ATOM     18  O   UNL     1      -0.946   2.801  -1.190  0.00  0.00    -0.266 OA
BRANCH  17  22
ATOM     19  C   UNL     1       3.293   2.780   2.321  0.00  0.00    +0.089 C 
ATOM     20  C   UNL     1       1.885   2.427   1.914  0.00  0.00    +0.135 A 
ATOM     21  C   UNL     1       1.277   2.747   0.748  0.00  0.00    +0.080 A 
ATOM     22  C   UNL     1      -0.022   2.181   0.874  0.00  0.00    +0.170 A 
ATOM     23  N   UNL     1      -0.056   1.605   2.050  0.00  0.00    -0.073 NA
ATOM     24  O   UNL     1       0.993   1.734   2.636  0.00  0.00    -0.359 OA
ENDBRANCH  17  22
ENDBRANCH   1  17
BRANCH   3  25
ATOM     25  C   UNL     1      -2.329   4.564   0.055  0.00  0.00    +0.151 C 
BRANCH  25  26
ATOM     26  C   UNL     1      -2.103   4.958  -1.382  0.00  0.00    -0.013 C 
ATOM     27  C   UNL     1      -2.041   6.224  -1.712  0.00  0.00    +0.005 C 
ENDBRANCH  25  26
ENDBRANCH   3  25
TORSDOF 6
