REMARK  Name = ZINC40890252
REMARK  18 active torsions:
REMARK  status: ('A' for Active; 'I' for Inactive)
REMARK    1  A    between atoms: C_1  and  C_2
REMARK    2  A    between atoms: C_2  and  C_3
REMARK    3  A    between atoms: C_3  and  C_4
REMARK    4  A    between atoms: C_4  and  C_5
REMARK    5  A    between atoms: C_5  and  O_6
REMARK    6  A    between atoms: O_6  and  C_7
REMARK    7  A    between atoms: C_10  and  C_15
REMARK    8  A    between atoms: C_12  and  O_13
REMARK    9  A    between atoms: O_13  and  C_14
REMARK   10  A    between atoms: C_16  and  C_17
REMARK   11  A    between atoms: N_19  and  C_20
REMARK   12  A    between atoms: C_21  and  C_33
REMARK   13  A    between atoms: C_22  and  C_25
REMARK   14  A    between atoms: C_28  and  C_32
REMARK   15  A    between atoms: C_29  and  C_31
REMARK   16  A    between atoms: C_33  and  O_35
REMARK   17  A    between atoms: O_35  and  C_36
REMARK   18  A    between atoms: C_36  and  C_37
REMARK                            x       y       z     vdW  Elec       q    Type
REMARK                         _______ _______ _______ _____ _____    ______ ____
ROOT
ATOM      1  C   UNL     1       5.164  -6.325  -9.012  0.00  0.00    +0.241 C 
ATOM      2  O   UNL     1       5.209  -7.540  -9.079  0.00  0.00    -0.270 OA
ATOM      3  N   UNL     1       5.713  -5.575  -9.988  0.00  0.00    -0.276 N 
ATOM      4  H   UNL     1       5.678  -4.607  -9.934  0.00  0.00    +0.156 HD
ENDROOT
BRANCH   3   5
ATOM      5  C   UNL     1       6.329  -6.186 -11.067  0.00  0.00    +0.087 A 
ATOM      6  C   UNL     1       6.946  -5.578 -12.149  0.00  0.00    +0.095 A 
ATOM      7  C   UNL     1       7.517  -6.461 -13.151  0.00  0.00    +0.005 A 
ATOM      8  C   UNL     1       7.377  -7.789 -12.905  0.00  0.00    +0.056 A 
ATOM      9  S   UNL     1       6.502  -7.829 -11.356  0.00  0.00    -0.080 S 
BRANCH   7  10
ATOM     10  C   UNL     1       8.205  -5.948 -14.359  0.00  0.00    -0.016 A 
ATOM     11  C   UNL     1       7.596  -4.974 -15.151  0.00  0.00    +0.009 A 
ATOM     12  C   UNL     1       8.242  -4.500 -16.275  0.00  0.00    +0.004 A 
ATOM     13  C   UNL     1       9.490  -4.989 -16.616  0.00  0.00    -0.048 A 
ATOM     14  C   UNL     1      10.099  -5.955 -15.835  0.00  0.00    -0.047 A 
ATOM     15  C   UNL     1       9.466  -6.432 -14.705  0.00  0.00    +0.012 A 
ATOM     16  C   UNL     1      11.459  -6.482 -16.214  0.00  0.00    +0.044 C 
ATOM     17  C   UNL     1      10.190  -4.468 -17.845  0.00  0.00    +0.044 C 
ENDBRANCH   7  10
BRANCH   6  18
ATOM     18  C   UNL     1       7.017  -4.122 -12.276  0.00  0.00    +0.342 C 
ATOM     19  O   UNL     1       7.962  -3.517 -11.807  0.00  0.00    -0.245 OA
BRANCH  18  20
ATOM     20  O   UNL     1       6.035  -3.452 -12.913  0.00  0.00    -0.461 OA
BRANCH  20  21
ATOM     21  C   UNL     1       6.170  -2.032 -13.000  0.00  0.00    +0.229 C 
ATOM     22  C   UNL     1       4.970  -1.451 -13.751  0.00  0.00    +0.048 C 
ENDBRANCH  20  21
ENDBRANCH  18  20
ENDBRANCH   6  18
ENDBRANCH   3   5
BRANCH   1  24
ATOM     23  C   UNL     1       3.964  -6.431  -6.895  0.00  0.00    +0.013 C 
ATOM     24  C   UNL     1       4.514  -5.680  -7.873  0.00  0.00    +0.068 C 
BRANCH  23  28
ATOM     25  C   UNL     1       2.078  -4.552  -3.589  0.00  0.00    +0.162 A 
ATOM     26  C   UNL     1       2.644  -3.781  -4.595  0.00  0.00    +0.050 A 
ATOM     27  C   UNL     1       3.258  -4.386  -5.670  0.00  0.00    +0.012 A 
ATOM     28  C   UNL     1       3.311  -5.782  -5.749  0.00  0.00    -0.021 A 
ATOM     29  C   UNL     1       2.739  -6.559  -4.735  0.00  0.00    +0.057 A 
ATOM     30  C   UNL     1       2.131  -5.944  -3.658  0.00  0.00    +0.162 A 
BRANCH  30  31
ATOM     31  O   UNL     1       1.580  -6.696  -2.668  0.00  0.00    -0.491 OA
ATOM     32  C   UNL     1       1.672  -8.115  -2.803  0.00  0.00    +0.277 C 
ENDBRANCH  30  31
BRANCH  25  33
ATOM     33  O   UNL     1       1.474  -3.950  -2.532  0.00  0.00    -0.488 OA
BRANCH  33  34
ATOM     34  C   UNL     1       1.455  -2.521  -2.524  0.00  0.00    +0.229 C 
BRANCH  34  35
ATOM     35  C   UNL     1       0.739  -2.027  -1.265  0.00  0.00    +0.041 C 
BRANCH  35  36
ATOM     36  C   UNL     1       0.718  -0.497  -1.257  0.00  0.00    +0.003 C 
BRANCH  36  38
ATOM     37  C   UNL     1      -0.019   1.526   0.010  0.00  0.00    +0.004 C 
ATOM     38  C   UNL     1       0.002  -0.004   0.002  0.00  0.00    -0.003 C 
ENDBRANCH  36  38
ENDBRANCH  35  36
ENDBRANCH  34  35
ENDBRANCH  33  34
ENDBRANCH  25  33
ENDBRANCH  23  28
ENDBRANCH   1  24
TORSDOF 13
