REMARK  Name = ZINC10014926
REMARK  10 active torsions:
REMARK  status: ('A' for Active; 'I' for Inactive)
REMARK    1  A    between atoms: C_1  and  C_2
REMARK    2  A    between atoms: C_3  and  C_29
REMARK    3  A    between atoms: C_4  and  C_28
REMARK    4  A    between atoms: C_7  and  C_8
REMARK    5  A    between atoms: C_8  and  C_10
REMARK    6  A    between atoms: C_10  and  S_11
REMARK    7  A    between atoms: S_11  and  C_12
REMARK    8  A    between atoms: C_15  and  C_23
REMARK    9  A    between atoms: N_16  and  C_17
REMARK   10  A    between atoms: C_29  and  C_31
REMARK                            x       y       z     vdW  Elec       q    Type
REMARK                         _______ _______ _______ _____ _____    ______ ____
ROOT
ATOM      1  C   UNL     1      -2.912   0.613   0.384  0.00  0.00    +0.193 A 
ATOM      2  N   UNL     1      -3.956  -0.131   0.094  0.00  0.00    -0.122 NA
ATOM      3  N   UNL     1      -3.842  -0.609  -1.093  0.00  0.00    -0.125 NA
ATOM      4  C   UNL     1      -2.719  -0.196  -1.638  0.00  0.00    +0.201 A 
ATOM      5  N   UNL     1      -2.086   0.596  -0.705  0.00  0.00    -0.297 N 
ENDROOT
BRANCH   5   6
ATOM      6  C   UNL     1      -0.799   1.281  -0.851  0.00  0.00    +0.091 C 
ATOM      7  C   UNL     1      -1.004   2.789  -0.695  0.00  0.00    +0.025 C 
ATOM      8  C   UNL     1       0.340   3.504  -0.848  0.00  0.00    +0.002 C 
ATOM      9  C   UNL     1       1.308   3.007   0.227  0.00  0.00    +0.000 C 
ATOM     10  C   UNL     1       1.513   1.499   0.071  0.00  0.00    +0.002 C 
ATOM     11  C   UNL     1       0.169   0.783   0.224  0.00  0.00    +0.025 C 
ENDBRANCH   5   6
BRANCH   4  12
ATOM     12  C   UNL     1      -2.230  -0.519  -2.987  0.00  0.00    +0.172 A 
ATOM     13  C   UNL     1      -2.701  -1.512  -3.793  0.00  0.00    +0.053 A 
ATOM     14  C   UNL     1      -1.949  -1.461  -4.982  0.00  0.00    +0.042 A 
ATOM     15  C   UNL     1      -1.065  -0.452  -4.848  0.00  0.00    +0.196 A 
ATOM     16  O   UNL     1      -1.241   0.119  -3.645  0.00  0.00    -0.460 OA
ENDBRANCH   4  12
BRANCH   1  17
ATOM     17  S   UNL     1      -2.628   1.472   1.896  0.00  0.00    -0.078 S 
BRANCH  17  18
ATOM     18  C   UNL     1      -4.126   1.013   2.803  0.00  0.00    +0.158 C 
BRANCH  18  19
ATOM     19  C   UNL     1      -4.103   1.652   4.168  0.00  0.00    +0.190 C 
ATOM     20  O   UNL     1      -3.165   2.350   4.495  0.00  0.00    -0.290 OA
BRANCH  19  27
ATOM     21  C   UNL     1      -4.277   2.848   7.030  0.00  0.00    +0.047 C 
ATOM     22  C   UNL     1      -5.277   1.956   6.340  0.00  0.00    -0.012 A 
ATOM     23  C   UNL     1      -6.500   1.491   6.873  0.00  0.00    +0.041 A 
ATOM     24  C   UNL     1      -7.094   0.698   5.902  0.00  0.00    +0.024 A 
ATOM     25  N   UNL     1      -6.296   0.671   4.825  0.00  0.00    -0.355 N 
ATOM     26  H   UNL     1      -6.590   0.093   3.937  0.00  0.00    +0.166 HD
ATOM     27  C   UNL     1      -5.175   1.439   5.068  0.00  0.00    +0.087 A 
ATOM     28  C   UNL     1      -8.415  -0.014   6.034  0.00  0.00    +0.064 C 
BRANCH  23  29
ATOM     29  C   UNL     1      -7.039   1.786   8.205  0.00  0.00    +0.162 C 
ATOM     30  O   UNL     1      -6.825   1.028   9.128  0.00  0.00    -0.292 OA
ATOM     31  C   UNL     1      -7.858   3.032   8.428  0.00  0.00    +0.091 C 
ENDBRANCH  23  29
ENDBRANCH  19  27
ENDBRANCH  18  19
ENDBRANCH  17  18
ENDBRANCH   1  17
TORSDOF 7
