REMARK  Name = ZINC08927613
REMARK  12 active torsions:
REMARK  status: ('A' for Active; 'I' for Inactive)
REMARK    1  A    between atoms: C_1  and  C_2
REMARK    2  A    between atoms: C_2  and  C_3
REMARK    3  A    between atoms: C_2  and  N_69
REMARK    4  A    between atoms: C_11  and  O_35
REMARK    5  A    between atoms: C_13  and  C_16
REMARK    6  A    between atoms: C_19  and  O_22
REMARK    7  A    between atoms: O_22  and  C_23
REMARK    8  A    between atoms: C_23  and  C_25
REMARK    9  A    between atoms: C_28  and  C_31
REMARK   10  A    between atoms: C_31  and  C_32
REMARK   11  A    between atoms: C_31  and  C_33
REMARK   12  A    between atoms: C_31  and  C_34
REMARK                            x       y       z     vdW  Elec       q    Type
REMARK                         _______ _______ _______ _____ _____    ______ ____
ROOT
ATOM      1  C   UNL     1       3.450   0.741 -13.881  0.00  0.00    -0.073 C 
ATOM      2  C   UNL     1       3.679  -0.758 -13.670  0.00  0.00    +0.018 C 
ATOM      3  C   UNL     1       4.742  -0.930 -12.590  0.00  0.00    -0.027 A 
ATOM      4  C   UNL     1       5.547   0.110 -12.263  0.00  0.00    -0.021 A 
ATOM      5  S   UNL     1       6.608  -0.520 -10.991  0.00  0.00    -0.080 S 
ATOM      6  C   UNL     1       6.001  -2.118 -10.905  0.00  0.00    +0.080 A 
ATOM      7  C   UNL     1       4.970  -2.158 -11.854  0.00  0.00    +0.067 A 
ATOM      8  C   UNL     1       4.242  -3.443 -12.011  0.00  0.00    +0.220 C 
ATOM      9  N   UNL     1       4.457  -4.377 -11.126  0.00  0.00    -0.223 NA
ATOM     10  C   UNL     1       5.289  -4.220  -9.939  0.00  0.00    +0.224 C 
ATOM     11  N   UNL     1       6.342  -3.208 -10.145  0.00  0.00    -0.313 N 
ATOM     12  C   UNL     1       5.522   1.479 -12.866  0.00  0.00    -0.035 C 
ATOM     13  H   UNL     1       7.228  -3.307  -9.764  0.00  0.00    +0.149 HD
ATOM     14  N   UNL     1       4.746   1.406 -14.127  0.00  0.00    +0.384 N 
ATOM     15  H   UNL     1       5.277   0.859 -14.815  0.00  0.00    -0.081 HD
ENDROOT
BRANCH  10  16
ATOM     16  C   UNL     1       4.421  -3.798  -8.782  0.00  0.00    -0.005 A 
ATOM     17  C   UNL     1       3.092  -4.179  -8.741  0.00  0.00    +0.011 A 
ATOM     18  C   UNL     1       2.294  -3.793  -7.681  0.00  0.00    +0.047 A 
ATOM     19  C   UNL     1       2.827  -3.022  -6.658  0.00  0.00    +0.132 A 
ATOM     20  C   UNL     1       4.159  -2.637  -6.704  0.00  0.00    +0.047 A 
ATOM     21  C   UNL     1       4.954  -3.030  -7.763  0.00  0.00    +0.011 A 
BRANCH  19  22
ATOM     22  O   UNL     1       2.043  -2.641  -5.615  0.00  0.00    -0.422 OA
BRANCH  22  23
ATOM     23  C   UNL     1       1.779  -3.571  -4.677  0.00  0.00    +0.344 C 
ATOM     24  O   UNL     1       2.159  -4.714  -4.830  0.00  0.00    -0.245 OA
BRANCH  23  25
ATOM     25  C   UNL     1       1.026  -3.200  -3.461  0.00  0.00    +0.059 A 
ATOM     26  C   UNL     1       0.750  -4.161  -2.486  0.00  0.00    +0.015 A 
ATOM     27  C   UNL     1       0.046  -3.808  -1.354  0.00  0.00    +0.005 A 
ATOM     28  C   UNL     1      -0.387  -2.505  -1.183  0.00  0.00    -0.042 A 
ATOM     29  C   UNL     1      -0.121  -1.549  -2.147  0.00  0.00    +0.005 A 
ATOM     30  C   UNL     1       0.587  -1.887  -3.281  0.00  0.00    +0.015 A 
BRANCH  28  31
ATOM     31  C   UNL     1      -1.156  -2.127   0.057  0.00  0.00    -0.013 C 
ATOM     32  C   UNL     1      -0.297  -2.399   1.293  0.00  0.00    +0.015 C 
ATOM     33  C   UNL     1      -2.438  -2.958   0.134  0.00  0.00    +0.015 C 
ATOM     34  C   UNL     1      -1.514  -0.641   0.002  0.00  0.00    +0.015 C 
ENDBRANCH  28  31
ENDBRANCH  23  25
ENDBRANCH  22  23
ENDBRANCH  19  22
ENDBRANCH  10  16
BRANCH  14  36
ATOM     35  C   UNL     1       3.749   3.618 -13.656  0.00  0.00    -0.014 C 
ATOM     36  C   UNL     1       4.524   2.766 -14.664  0.00  0.00    -0.074 C 
ATOM     37  C   UNL     1       5.879   3.417 -14.947  0.00  0.00    -0.014 C 
ENDBRANCH  14  36
BRANCH   8  38
ATOM     38  O   UNL     1       3.383  -3.639 -13.038  0.00  0.00    -0.492 OA
ATOM     39  H   UNL     1       2.966  -4.511 -13.041  0.00  0.00    +0.294 HD
ENDBRANCH   8  38
TORSDOF 7
