REMARK  Name = ZINC09542532
REMARK  9 active torsions:
REMARK  status: ('A' for Active; 'I' for Inactive)
REMARK    1  A    between atoms: C_1  and  C_2
REMARK    2  A    between atoms: C_2  and  O_3
REMARK    3  A    between atoms: O_3  and  C_4
REMARK    4  A    between atoms: C_8  and  C_11
REMARK    5  A    between atoms: C_9  and  O_10
REMARK    6  A    between atoms: C_14  and  C_27
REMARK    7  A    between atoms: C_16  and  C_18
REMARK    8  A    between atoms: C_21  and  O_25
REMARK    9  A    between atoms: O_25  and  C_26
REMARK                            x       y       z     vdW  Elec       q    Type
REMARK                         _______ _______ _______ _____ _____    ______ ____
ROOT
ATOM      1  C   UNL     1      -0.013   1.086   0.008  0.00  0.00    -0.028 C 
ATOM      2  C   UNL     1       1.422   1.622  -0.003  0.00  0.00    +0.044 C 
ATOM      3  C   UNL     1       2.055   1.387   1.340  0.00  0.00    +0.040 C 
ATOM      4  N   UNL     1       1.383   1.095   2.389  0.00  0.00    -0.299 NA
ATOM      5  C   UNL     1      -0.067   0.945   2.415  0.00  0.00    +0.081 C 
ATOM      6  N   UNL     1      -0.678   1.571   1.233  0.00  0.00    +0.401 N 
ATOM      7  H   UNL     1      -1.675   1.329   1.197  0.00  0.00    -0.081 HD
ATOM      8  H   UNL     1      -0.575   2.590   1.296  0.00  0.00    -0.081 HD
ENDROOT
BRANCH   5   9
ATOM      9  C   UNL     1      -0.413  -0.522   2.436  0.00  0.00    -0.039 A 
ATOM     10  C   UNL     1      -1.595  -0.960   1.867  0.00  0.00    +0.007 A 
ATOM     11  C   UNL     1      -1.913  -2.304   1.880  0.00  0.00    +0.047 A 
ATOM     12  C   UNL     1      -1.051  -3.214   2.475  0.00  0.00    +0.134 A 
ATOM     13  C   UNL     1       0.132  -2.772   3.051  0.00  0.00    +0.060 A 
ATOM     14  C   UNL     1       0.448  -1.426   3.030  0.00  0.00    +0.022 A 
ATOM     15 BR   UNL     1       1.310  -4.008   3.863  0.00  0.00    -0.047 Br
BRANCH  12  16
ATOM     16  O   UNL     1      -1.365  -4.537   2.495  0.00  0.00    -0.494 OA
ATOM     17  C   UNL     1      -2.598  -4.920   1.883  0.00  0.00    +0.277 C 
ENDBRANCH  12  16
ENDBRANCH   5   9
BRANCH   3  18
ATOM     18  C   UNL     1       3.523   1.498   1.455  0.00  0.00    -0.004 A 
ATOM     19  C   UNL     1       4.292   1.810   0.332  0.00  0.00    +0.011 A 
ATOM     20  C   UNL     1       5.662   1.917   0.446  0.00  0.00    +0.020 A 
ATOM     21  C   UNL     1       6.276   1.706   1.669  0.00  0.00    +0.041 A 
ATOM     22  C   UNL     1       5.519   1.392   2.786  0.00  0.00    +0.020 A 
ATOM     23  C   UNL     1       4.148   1.287   2.685  0.00  0.00    +0.011 A 
ATOM     24 CL   UNL     1       8.002   1.837   1.804  0.00  0.00    -0.084 Cl
ENDBRANCH   3  18
BRANCH   1  29
ATOM     25  C   UNL     1      -1.349   1.376  -3.522  0.00  0.00    +0.162 A 
ATOM     26  C   UNL     1      -2.118   2.525  -3.427  0.00  0.00    +0.049 A 
ATOM     27  C   UNL     1      -2.203   3.203  -2.225  0.00  0.00    +0.004 A 
ATOM     28  C   UNL     1      -1.527   2.733  -1.114  0.00  0.00    +0.006 A 
ATOM     29  C   UNL     1      -0.753   1.591  -1.203  0.00  0.00    -0.016 A 
ATOM     30  C   UNL     1      -0.664   0.907  -2.405  0.00  0.00    +0.160 A 
BRANCH  30  31
ATOM     31  O   UNL     1       0.091  -0.220  -2.493  0.00  0.00    -0.503 OA
ATOM     32  H   UNL     1      -0.392  -1.034  -2.293  0.00  0.00    +0.292 HD
ENDBRANCH  30  31
BRANCH  25  33
ATOM     33  O   UNL     1      -1.265   0.709  -4.703  0.00  0.00    -0.489 OA
BRANCH  33  35
ATOM     34  C   UNL     1      -1.779   0.368  -7.040  0.00  0.00    +0.048 C 
ATOM     35  C   UNL     1      -1.995   1.248  -5.807  0.00  0.00    +0.226 C 
ENDBRANCH  33  35
ENDBRANCH  25  33
ENDBRANCH   1  29
TORSDOF 7
