REMARK  Name = ZINC05316291
REMARK  10 active torsions:
REMARK  status: ('A' for Active; 'I' for Inactive)
REMARK    1  A    between atoms: C_1  and  C_2
REMARK    2  A    between atoms: C_5  and  S_8
REMARK    3  A    between atoms: S_8  and  N_11
REMARK    4  A    between atoms: N_11  and  N_12
REMARK    5  A    between atoms: C_13  and  C_14
REMARK    6  A    between atoms: C_13  and  C_28
REMARK    7  A    between atoms: C_19  and  N_24
REMARK    8  A    between atoms: C_28  and  C_30
REMARK    9  A    between atoms: C_28  and  O_38
REMARK   10  A    between atoms: C_31  and  C_32
REMARK                            x       y       z     vdW  Elec       q    Type
REMARK                         _______ _______ _______ _____ _____    ______ ____
ROOT
ATOM      1  N   UNL     1       5.899   1.823  -0.046  0.00  0.00    -0.166 NA
ATOM      2  C   UNL     1       4.791   1.143  -0.039  0.00  0.00    +0.123 C 
ENDROOT
BRANCH   2   3
ATOM      3  C   UNL     1       3.498   1.844  -0.022  0.00  0.00    +0.156 A 
ATOM      4  C   UNL     1       3.454   3.305  -0.014  0.00  0.00    +0.298 A 
ATOM      5  N   UNL     1       2.293   3.923   0.001  0.00  0.00    -0.206 NA
ATOM      6  C   UNL     1       1.156   3.213   0.008  0.00  0.00    +0.095 A 
ATOM      7  C   UNL     1      -0.089   3.866   0.024  0.00  0.00    +0.062 A 
ATOM      8  C   UNL     1      -1.237   3.135   0.031  0.00  0.00    +0.128 A 
ATOM      9  C   UNL     1      -1.199   1.742   0.017  0.00  0.00    +0.035 A 
ATOM     10  C   UNL     1      -0.013   1.076   0.008  0.00  0.00    +0.032 A 
ATOM     11  C   UNL     1       1.195   1.798   0.000  0.00  0.00    +0.090 A 
ATOM     12  N   UNL     1       2.368   1.155  -0.015  0.00  0.00    -0.238 NA
ATOM     13  O   UNL     1       4.605   4.020  -0.021  0.00  0.00    -0.263 OA
BRANCH   8  14
ATOM     14  N   UNL     1      -2.545   3.829   0.047  0.00  0.00    +0.056 N 
ATOM     15  O   UNL     1      -2.588   5.046   0.053  0.00  0.00    -0.126 OA
ATOM     16  O   UNL     1      -3.577   3.183   0.053  0.00  0.00    -0.126 OA
ENDBRANCH   8  14
ENDBRANCH   2   3
BRANCH   1  17
ATOM     17  N   UNL     1       7.130   1.156  -0.062  0.00  0.00    -0.136 N 
ATOM     18  H   UNL     1       7.157   0.186  -0.068  0.00  0.00    +0.197 HD
BRANCH  17  19
ATOM     19  S   UNL     1       8.542   2.022  -0.072  0.00  0.00    +0.086 S 
ATOM     20  O   UNL     1       9.598   1.081   0.059  0.00  0.00    -0.149 OA
ATOM     21  O   UNL     1       8.457   2.925  -1.166  0.00  0.00    -0.149 OA
BRANCH  19  26
ATOM     22  C   UNL     1       8.604   5.385   4.938  0.00  0.00    +0.044 C 
ATOM     23  C   UNL     1       8.589   4.545   3.687  0.00  0.00    -0.050 A 
ATOM     24  C   UNL     1       9.129   3.273   3.701  0.00  0.00    +0.005 A 
ATOM     25  C   UNL     1       9.115   2.503   2.554  0.00  0.00    +0.029 A 
ATOM     26  C   UNL     1       8.560   3.005   1.391  0.00  0.00    +0.110 A 
ATOM     27  C   UNL     1       8.024   4.279   1.375  0.00  0.00    +0.029 A 
ATOM     28  C   UNL     1       8.034   5.047   2.524  0.00  0.00    +0.005 A 
ENDBRANCH  19  26
ENDBRANCH  17  19
ENDBRANCH   1  17
BRANCH   2  29
ATOM     29  C   UNL     1       4.832  -0.363  -0.048  0.00  0.00    +0.190 C 
BRANCH  29  30
ATOM     30  C   UNL     1       4.736  -0.876   1.366  0.00  0.00    +0.011 C 
ATOM     31  C   UNL     1       5.714  -1.615   1.871  0.00  0.00    +0.006 C 
BRANCH  31  32
ATOM     32  C   UNL     1       5.620  -2.118   3.258  0.00  0.00    -0.025 A 
ATOM     33  C   UNL     1       4.505  -1.813   4.040  0.00  0.00    +0.008 A 
ATOM     34  C   UNL     1       4.421  -2.290   5.331  0.00  0.00    +0.001 A 
ATOM     35  C   UNL     1       5.443  -3.061   5.855  0.00  0.00    +0.000 A 
ATOM     36  C   UNL     1       6.553  -3.363   5.087  0.00  0.00    +0.001 A 
ATOM     37  C   UNL     1       6.647  -2.896   3.792  0.00  0.00    +0.008 A 
ENDBRANCH  31  32
ENDBRANCH  29  30
BRANCH  29  38
ATOM     38  O   UNL     1       3.734  -0.865  -0.812  0.00  0.00    -0.381 OA
ATOM     39  H   UNL     1       3.598  -1.950  -0.932  0.00  0.00    +0.211 HD
ENDBRANCH  29  38
ENDBRANCH   2  29
TORSDOF 9
