REMARK  Name = ZINC37206498
REMARK  4 active torsions:
REMARK  status: ('A' for Active; 'I' for Inactive)
REMARK    1  A    between atoms: C_1  and  C_2
REMARK    2  A    between atoms: C_5  and  O_19
REMARK    3  A    between atoms: C_6  and  N_8
REMARK    4  A    between atoms: O_19  and  C_20
REMARK                            x       y       z     vdW  Elec       q    Type
REMARK                         _______ _______ _______ _____ _____    ______ ____
ROOT
ATOM      1  N   UNL     1       0.052  -2.794   2.398  0.00  0.00    -0.291 N 
ATOM      2  C   UNL     1       0.158  -2.114   3.595  0.00  0.00    +0.164 A 
ATOM      3  N   UNL     1       0.158  -0.818   3.809  0.00  0.00    -0.225 NA
ATOM      4  C   UNL     1       0.270  -0.287   5.046  0.00  0.00    +0.081 A 
ATOM      5  C   UNL     1       0.285   1.079   5.411  0.00  0.00    +0.044 A 
ATOM      6  C   UNL     1       0.408   1.452   6.725  0.00  0.00    +0.020 A 
ATOM      7  C   UNL     1       0.521   0.510   7.738  0.00  0.00    +0.016 A 
ATOM      8  C   UNL     1       0.510  -0.835   7.416  0.00  0.00    +0.018 A 
ATOM      9  C   UNL     1       0.388  -1.217   6.104  0.00  0.00    +0.041 A 
ATOM     10  S   UNL     1       0.320  -2.773   5.249  0.00  0.00    -0.052 S 
ATOM     11 BR   UNL     1       0.425   3.291   7.167  0.00  0.00    -0.050 Br
ATOM     12  H   UNL     1       0.149  -3.759   2.379  0.00  0.00    +0.154 HD
ENDROOT
BRANCH   1  18
ATOM     13  C   UNL     1      -1.178   1.397   0.142  0.00  0.00    +0.044 C 
ATOM     14  C   UNL     1      -0.794  -0.059   0.089  0.00  0.00    -0.048 A 
ATOM     15  C   UNL     1      -0.688  -0.700  -1.131  0.00  0.00    +0.007 A 
ATOM     16  C   UNL     1      -0.336  -2.036  -1.187  0.00  0.00    +0.048 A 
ATOM     17  C   UNL     1      -0.089  -2.737  -0.017  0.00  0.00    +0.141 A 
ATOM     18  C   UNL     1      -0.196  -2.091   1.213  0.00  0.00    +0.075 A 
ATOM     19  C   UNL     1      -0.545  -0.749   1.260  0.00  0.00    +0.030 A 
BRANCH  17  20
ATOM     20  O   UNL     1       0.256  -4.051  -0.070  0.00  0.00    -0.493 OA
ATOM     21  C   UNL     1       0.346  -4.647  -1.365  0.00  0.00    +0.277 C 
ENDBRANCH  17  20
ENDBRANCH   1  18
TORSDOF 2
