REMARK  Name = ZINC35665373
REMARK  7 active torsions:
REMARK  status: ('A' for Active; 'I' for Inactive)
REMARK    1  A    between atoms: C_1  and  C_2
REMARK    2  A    between atoms: C_2  and  C_3
REMARK    3  A    between atoms: C_3  and  C_5
REMARK    4  A    between atoms: C_3  and  N_6
REMARK    5  A    between atoms: C_9  and  C_28
REMARK    6  A    between atoms: N_15  and  S_18
REMARK    7  A    between atoms: S_18  and  C_21
REMARK                            x       y       z     vdW  Elec       q    Type
REMARK                         _______ _______ _______ _____ _____    ______ ____
ROOT
ATOM      1  N   UNL     1       0.106  -0.114  -2.406  0.00  0.00    -0.311 N 
ATOM      2  C   UNL     1      -1.189  -0.459  -2.563  0.00  0.00    +0.200 C 
ATOM      3  O   UNL     1      -1.863  -1.067  -1.758  0.00  0.00    -0.277 OA
ATOM      4  C   UNL     1      -1.658   0.039  -3.912  0.00  0.00    +0.016 C 
ATOM      5  N   UNL     1      -0.645   1.042  -4.319  0.00  0.00    +0.401 N 
ATOM      6  C   UNL     1       0.567   0.609  -3.594  0.00  0.00    +0.006 C 
ATOM      7  C   UNL     1       1.395  -0.314  -4.487  0.00  0.00    +0.023 C 
ATOM      8  C   UNL     1       2.631  -0.789  -3.717  0.00  0.00    +0.109 C 
ATOM      9  N   UNL     1       3.355   0.386  -3.213  0.00  0.00    -0.177 NA
ATOM     10  C   UNL     1       2.625   1.372  -2.405  0.00  0.00    +0.109 C 
ATOM     11  C   UNL     1       1.389   1.830  -3.185  0.00  0.00    +0.023 C 
ATOM     12  C   UNL     1      -1.706  -1.113  -4.918  0.00  0.00    -0.004 C 
ATOM     13  H   UNL     1      -0.495   1.013  -5.317  0.00  0.00    -0.082 HD
ATOM     14  H   UNL     1      -0.920   1.967  -4.025  0.00  0.00    -0.082 HD
ENDROOT
BRANCH   9  15
ATOM     15  S   UNL     1       4.963   0.594  -3.549  0.00  0.00    +0.061 S 
ATOM     16  O   UNL     1       5.486   1.432  -2.527  0.00  0.00    -0.153 OA
ATOM     17  O   UNL     1       5.492  -0.697  -3.819  0.00  0.00    -0.153 OA
BRANCH  15  18
ATOM     18  C   UNL     1       5.068   1.506  -5.052  0.00  0.00    +0.106 A 
ATOM     19  C   UNL     1       5.106   0.841  -6.263  0.00  0.00    +0.030 A 
ATOM     20  C   UNL     1       5.188   1.556  -7.443  0.00  0.00    +0.022 A 
ATOM     21  C   UNL     1       5.232   2.938  -7.412  0.00  0.00    +0.041 A 
ATOM     22  C   UNL     1       5.194   3.604  -6.200  0.00  0.00    +0.022 A 
ATOM     23  C   UNL     1       5.106   2.888  -5.021  0.00  0.00    +0.030 A 
ATOM     24 CL   UNL     1       5.336   3.837  -8.893  0.00  0.00    -0.084 Cl
ENDBRANCH  15  18
ENDBRANCH   9  15
BRANCH   1  25
ATOM     25  C   UNL     1       0.923  -0.410  -1.227  0.00  0.00    +0.071 C 
ATOM     26  C   UNL     1       0.723  -1.871  -0.821  0.00  0.00    +0.028 C 
BRANCH  25  28
ATOM     27  C   UNL     1       0.819   1.956  -0.429  0.00  0.00    +0.005 C 
ATOM     28  C   UNL     1       0.503   0.502  -0.072  0.00  0.00    +0.019 C 
ENDBRANCH  25  28
ENDBRANCH   1  25
TORSDOF 4
