REMARK  Name = ZINC25315466
REMARK  5 active torsions:
REMARK  status: ('A' for Active; 'I' for Inactive)
REMARK    1  A    between atoms: C_3  and  C_6
REMARK    2  A    between atoms: N_8  and  N_9
REMARK    3  A    between atoms: N_12  and  C_13
REMARK    4  A    between atoms: C_13  and  C_14
REMARK    5  A    between atoms: C_14  and  C_15
REMARK                            x       y       z     vdW  Elec       q    Type
REMARK                         _______ _______ _______ _____ _____    ______ ____
ROOT
ATOM      1  N   UNL     1       7.562  -1.627  -2.691  0.00  0.00    -0.218 N 
ATOM      2  C   UNL     1       6.282  -1.206  -2.676  0.00  0.00    +0.316 C 
ATOM      3  O   UNL     1       5.694  -1.010  -3.722  0.00  0.00    -0.251 OA
ATOM      4  N   UNL     1       5.653  -1.002  -1.502  0.00  0.00    -0.298 N 
ATOM      5  H   UNL     1       8.075  -1.793  -3.650  0.00  0.00    +0.174 HD
ATOM      6  H   UNL     1       6.185  -1.179  -0.555  0.00  0.00    +0.150 HD
ENDROOT
BRANCH   1   9
ATOM      7  C   UNL     1       9.520  -2.273  -1.501  0.00  0.00    +0.267 C 
ATOM      8  O   UNL     1      10.088  -2.457  -2.562  0.00  0.00    -0.268 OA
ATOM      9  N   UNL     1       8.240  -1.852  -1.486  0.00  0.00    -0.229 N 
ATOM     10  H   UNL     1       7.727  -1.686  -0.527  0.00  0.00    +0.173 HD
BRANCH   7  13
ATOM     11  C   UNL     1      11.947  -3.078   1.264  0.00  0.00    +0.008 A 
ATOM     12  C   UNL     1      11.529  -2.943  -0.037  0.00  0.00    +0.021 A 
ATOM     13  C   UNL     1      10.229  -2.509  -0.240  0.00  0.00    +0.075 A 
ATOM     14  S   UNL     1       9.640  -2.321   1.433  0.00  0.00    -0.092 S 
ATOM     15  C   UNL     1      11.081  -2.796   2.272  0.00  0.00    +0.046 A 
ENDBRANCH   7  13
ENDBRANCH   1   9
BRANCH   4  16
ATOM     16  C   UNL     1       4.262  -0.545  -1.485  0.00  0.00    +0.111 C 
BRANCH  16  17
ATOM     17  C   UNL     1       3.791  -0.394  -0.037  0.00  0.00    +0.061 C 
BRANCH  17  18
ATOM     18  C   UNL     1       2.360   0.076  -0.020  0.00  0.00    -0.008 A 
ATOM     19  C   UNL     1       1.220  -0.657  -0.013  0.00  0.00    +0.012 A 
ATOM     20  C   UNL     1       0.002  -0.004   0.002  0.00  0.00    +0.023 A 
ATOM     21  C   UNL     1      -0.016   1.352   0.009  0.00  0.00    +0.055 A 
ATOM     22  S   UNL     1       1.725   1.745  -0.005  0.00  0.00    -0.086 S 
ATOM     23 BR   UNL     1      -1.501   2.523   0.023  0.00  0.00    -0.043 Br
ENDBRANCH  17  18
ENDBRANCH  16  17
ENDBRANCH   4  16
TORSDOF 5
