REMARK  Name = ZINC35034919
REMARK  10 active torsions:
REMARK  status: ('A' for Active; 'I' for Inactive)
REMARK    1  A    between atoms: C_1  and  C_2
REMARK    2  A    between atoms: C_2  and  C_3
REMARK    3  A    between atoms: C_3  and  C_5
REMARK    4  A    between atoms: C_3  and  N_23
REMARK    5  A    between atoms: N_15  and  C_16
REMARK    6  A    between atoms: C_16  and  C_17
REMARK    7  A    between atoms: N_31  and  C_32
REMARK    8  A    between atoms: C_32  and  C_33
REMARK    9  A    between atoms: C_32  and  C_34
REMARK   10  A    between atoms: C_32  and  C_35
REMARK                            x       y       z     vdW  Elec       q    Type
REMARK                         _______ _______ _______ _____ _____    ______ ____
ROOT
ATOM      1  C   UNL     1      -0.950  -0.646  -0.358  0.00  0.00    -0.001 C 
ENDROOT
BRANCH   1   2
ATOM      2  C   UNL     1      -0.972  -2.099   0.042  0.00  0.00    +0.100 A 
ATOM      3  N   UNL     1      -0.482  -2.973  -0.785  0.00  0.00    -0.235 NA
ATOM      4  C   UNL     1      -0.468  -4.298  -0.493  0.00  0.00    +0.078 A 
ATOM      5  C   UNL     1       0.060  -5.237  -1.381  0.00  0.00    +0.028 A 
ATOM      6  C   UNL     1       0.054  -6.572  -1.044  0.00  0.00    +0.002 A 
ATOM      7  C   UNL     1      -0.471  -6.997   0.170  0.00  0.00    +0.001 A 
ATOM      8  C   UNL     1      -0.997  -6.089   1.062  0.00  0.00    +0.015 A 
ATOM      9  C   UNL     1      -1.000  -4.733   0.740  0.00  0.00    +0.065 A 
ATOM     10  C   UNL     1      -1.548  -3.719   1.653  0.00  0.00    +0.262 A 
ATOM     11  O   UNL     1      -2.022  -4.027   2.731  0.00  0.00    -0.267 OA
ATOM     12  N   UNL     1      -1.499  -2.427   1.250  0.00  0.00    -0.293 N 
BRANCH  12  13
ATOM     13  C   UNL     1      -2.025  -1.374   2.122  0.00  0.00    +0.161 C 
BRANCH  13  14
ATOM     14  C   UNL     1      -3.515  -1.262   1.932  0.00  0.00    -0.028 A 
ATOM     15  C   UNL     1      -4.027  -0.408   0.972  0.00  0.00    +0.005 A 
ATOM     16  C   UNL     1      -5.394  -0.304   0.797  0.00  0.00    +0.000 A 
ATOM     17  C   UNL     1      -6.250  -1.055   1.581  0.00  0.00    +0.000 A 
ATOM     18  C   UNL     1      -5.739  -1.910   2.540  0.00  0.00    +0.000 A 
ATOM     19  C   UNL     1      -4.371  -2.016   2.712  0.00  0.00    +0.005 A 
ENDBRANCH  13  14
ENDBRANCH  12  13
ENDBRANCH   1   2
BRANCH   1  20
ATOM     20  N   UNL     1      -1.181  -0.532  -1.804  0.00  0.00    +0.388 N 
ATOM     21  C   UNL     1      -1.142   0.883  -2.194  0.00  0.00    -0.058 C 
ATOM     22  C   UNL     1      -1.269   0.995  -3.717  0.00  0.00    +0.091 C 
ATOM     23  N   UNL     1      -2.486   0.283  -4.138  0.00  0.00    -0.289 N 
ATOM     24  C   UNL     1      -2.685  -1.093  -3.655  0.00  0.00    +0.091 C 
ATOM     25  C   UNL     1      -2.491  -1.107  -2.135  0.00  0.00    -0.058 C 
ATOM     26  C   UNL     1      -3.391   0.873  -4.942  0.00  0.00    +0.302 C 
ATOM     27  O   UNL     1      -3.171   1.979  -5.397  0.00  0.00    -0.253 OA
ATOM     28  N   UNL     1      -4.542   0.238  -5.242  0.00  0.00    -0.295 N 
ATOM     29  H   UNL     1      -4.749  -0.613  -4.825  0.00  0.00    +0.151 HD
ATOM     30  H   UNL     1      -0.460  -1.035  -2.300  0.00  0.00    -0.081 HD
BRANCH  28  31
ATOM     31  C   UNL     1      -5.478   0.832  -6.199  0.00  0.00    +0.028 C 
ATOM     32  C   UNL     1      -4.786   1.002  -7.553  0.00  0.00    +0.031 C 
ATOM     33  C   UNL     1      -6.693  -0.084  -6.359  0.00  0.00    +0.031 C 
ATOM     34  C   UNL     1      -5.934   2.199  -5.685  0.00  0.00    +0.031 C 
ENDBRANCH  28  31
ENDBRANCH   1  20
BRANCH   1  36
ATOM     35  C   UNL     1       1.509  -0.781  -0.781  0.00  0.00    +0.002 C 
ATOM     36  C   UNL     1       0.413  -0.043  -0.011  0.00  0.00    -0.011 C 
ENDBRANCH   1  36
TORSDOF 6
