REMARK  Name = ZINC00720030
REMARK  11 active torsions:
REMARK  status: ('A' for Active; 'I' for Inactive)
REMARK    1  A    between atoms: C_1  and  C_2
REMARK    2  A    between atoms: C_2  and  O_3
REMARK    3  A    between atoms: O_3  and  C_4
REMARK    4  A    between atoms: C_7  and  C_10
REMARK    5  A    between atoms: C_15  and  C_20
REMARK    6  A    between atoms: C_22  and  O_30
REMARK    7  A    between atoms: C_23  and  O_28
REMARK    8  A    between atoms: C_24  and  O_26
REMARK    9  A    between atoms: O_26  and  C_27
REMARK   10  A    between atoms: O_28  and  C_29
REMARK   11  A    between atoms: O_30  and  C_31
REMARK                            x       y       z     vdW  Elec       q    Type
REMARK                         _______ _______ _______ _____ _____    ______ ____
ROOT
ATOM      1  C   UNL     1       6.574  -0.290  -0.131  0.00  0.00    +0.136 C 
ATOM      2  C   UNL     1       5.219   0.376  -0.098  0.00  0.00    +0.036 C 
ATOM      3  C   UNL     1       4.523   0.695   1.006  0.00  0.00    +0.017 C 
ATOM      4  C   UNL     1       3.175   1.387   0.891  0.00  0.00    +0.059 C 
ATOM      5  C   UNL     1       2.455   0.915  -0.370  0.00  0.00    +0.032 C 
ATOM      6  C   UNL     1       3.336   1.273  -1.573  0.00  0.00    +0.088 C 
ATOM      7  C   UNL     1       4.686   0.650  -1.380  0.00  0.00    +0.163 C 
ATOM      8  O   UNL     1       5.346   0.369  -2.361  0.00  0.00    -0.292 OA
ATOM      9  N   UNL     1       4.928   0.448   2.277  0.00  0.00    -0.316 N 
ATOM     10  C   UNL     1       6.199   0.721   2.771  0.00  0.00    +0.052 A 
ATOM     11  C   UNL     1       6.420   1.655   3.769  0.00  0.00    +0.025 A 
ATOM     12  C   UNL     1       7.705   1.846   4.247  0.00  0.00    +0.002 A 
ATOM     13  C   UNL     1       8.757   1.108   3.734  0.00  0.00    +0.002 A 
ATOM     14  C   UNL     1       8.540   0.186   2.724  0.00  0.00    +0.025 A 
ATOM     15  C   UNL     1       7.258   0.009   2.229  0.00  0.00    +0.049 A 
ATOM     16  N   UNL     1       7.008  -0.827   1.142  0.00  0.00    -0.331 N 
ATOM     17  H   UNL     1       4.285   0.053   2.886  0.00  0.00    +0.152 HD
ATOM     18  H   UNL     1       7.126  -1.785   1.240  0.00  0.00    +0.147 HD
ENDROOT
BRANCH   1  22
ATOM     19  C   UNL     1       9.460   2.574  -1.447  0.00  0.00    +0.121 A 
ATOM     20  C   UNL     1       9.176   1.463  -2.229  0.00  0.00    +0.046 A 
ATOM     21  C   UNL     1       8.243   0.539  -1.801  0.00  0.00    +0.009 A 
ATOM     22  C   UNL     1       7.592   0.720  -0.595  0.00  0.00    -0.023 A 
ATOM     23  C   UNL     1       7.868   1.829   0.183  0.00  0.00    +0.009 A 
ATOM     24  C   UNL     1       8.805   2.753  -0.237  0.00  0.00    +0.046 A 
BRANCH  19  25
ATOM     25  O   UNL     1      10.378   3.485  -1.866  0.00  0.00    -0.492 OA
BRANCH  25  27
ATOM     26  C   UNL     1      11.674   5.512  -1.643  0.00  0.00    +0.048 C 
ATOM     27  C   UNL     1      10.619   4.603  -1.010  0.00  0.00    +0.225 C 
ENDBRANCH  25  27
ENDBRANCH  19  25
ENDBRANCH   1  22
BRANCH   5  28
ATOM     28  C   UNL     1       1.123   1.611  -0.488  0.00  0.00    -0.036 A 
ATOM     29  C   UNL     1      -0.043   0.868  -0.510  0.00  0.00    +0.053 A 
ATOM     30  C   UNL     1      -1.270   1.504  -0.625  0.00  0.00    +0.165 A 
ATOM     31  C   UNL     1      -1.327   2.890  -0.706  0.00  0.00    +0.204 A 
ATOM     32  C   UNL     1      -0.153   3.633  -0.684  0.00  0.00    +0.165 A 
ATOM     33  C   UNL     1       1.070   2.989  -0.575  0.00  0.00    +0.053 A 
BRANCH  32  34
ATOM     34  O   UNL     1      -0.204   4.989  -0.769  0.00  0.00    -0.491 OA
ATOM     35  C   UNL     1       1.043   5.688  -0.740  0.00  0.00    +0.277 C 
ENDBRANCH  32  34
BRANCH  31  36
ATOM     36  O   UNL     1      -2.530   3.518  -0.813  0.00  0.00    -0.488 OA
ATOM     37  C   UNL     1      -3.031   3.740  -2.133  0.00  0.00    +0.277 C 
ENDBRANCH  31  36
BRANCH  30  38
ATOM     38  O   UNL     1      -2.416   0.772  -0.651  0.00  0.00    -0.491 OA
ATOM     39  C   UNL     1      -2.281  -0.648  -0.558  0.00  0.00    +0.277 C 
ENDBRANCH  30  38
ENDBRANCH   5  28
TORSDOF 7
