REMARK  Name = ZINC39972707
REMARK  10 active torsions:
REMARK  status: ('A' for Active; 'I' for Inactive)
REMARK    1  A    between atoms: C_2  and  C_3
REMARK    2  A    between atoms: C_3  and  N_4
REMARK    3  A    between atoms: C_5  and  C_22
REMARK    4  A    between atoms: C_8  and  S_9
REMARK    5  A    between atoms: S_9  and  C_10
REMARK    6  A    between atoms: C_10  and  C_11
REMARK    7  A    between atoms: N_13  and  C_14
REMARK    8  A    between atoms: C_15  and  C_19
REMARK    9  A    between atoms: C_22  and  O_23
REMARK   10  A    between atoms: O_23  and  C_24
REMARK                            x       y       z     vdW  Elec       q    Type
REMARK                         _______ _______ _______ _____ _____    ______ ____
ROOT
ATOM      1  N   UNL     1      -1.318  -1.700  -1.126  0.00  0.00    -0.299 N 
ATOM      2  C   UNL     1      -1.790  -1.448  -2.385  0.00  0.00    +0.172 A 
ATOM      3  N   UNL     1      -1.624  -2.535  -3.085  0.00  0.00    -0.130 NA
ATOM      4  N   UNL     1      -1.084  -3.449  -2.361  0.00  0.00    -0.122 NA
ATOM      5  C   UNL     1      -0.869  -2.989  -1.150  0.00  0.00    +0.192 A 
ENDROOT
BRANCH   1   6
ATOM      6  C   UNL     1      -1.293  -0.775   0.010  0.00  0.00    +0.152 C 
BRANCH   6   8
ATOM      7  C   UNL     1      -0.016   1.306   0.009  0.00  0.00    +0.005 C 
ATOM      8  C   UNL     1       0.002  -0.004   0.002  0.00  0.00    -0.013 C 
ENDBRANCH   6   8
ENDBRANCH   1   6
BRANCH   5   9
ATOM      9  S   UNL     1      -0.142  -3.870   0.192  0.00  0.00    -0.077 S 
BRANCH   9  10
ATOM     10  C   UNL     1       0.221  -5.506  -0.503  0.00  0.00    +0.173 C 
BRANCH  10  11
ATOM     11  C   UNL     1       0.854  -6.372   0.555  0.00  0.00    +0.228 C 
ATOM     12  O   UNL     1       1.042  -5.929   1.668  0.00  0.00    -0.275 OA
ATOM     13  N   UNL     1       1.212  -7.639   0.264  0.00  0.00    -0.279 N 
ATOM     14  H   UNL     1       1.062  -7.993  -0.626  0.00  0.00    +0.155 HD
BRANCH  13  15
ATOM     15  C   UNL     1       1.795  -8.435   1.238  0.00  0.00    +0.084 A 
ATOM     16  C   UNL     1       2.228  -9.748   1.119  0.00  0.00    +0.065 A 
ATOM     17  C   UNL     1       2.804 -10.348   2.300  0.00  0.00    +0.022 A 
ATOM     18  C   UNL     1       2.857  -9.562   3.391  0.00  0.00    +0.048 A 
ATOM     19  S   UNL     1       2.145  -8.031   2.828  0.00  0.00    -0.081 S 
BRANCH  16  20
ATOM     20  C   UNL     1       2.108 -10.488  -0.141  0.00  0.00    +0.244 C 
ATOM     21  O   UNL     1       1.617  -9.952  -1.117  0.00  0.00    -0.270 OA
ATOM     22  N   UNL     1       2.540 -11.762  -0.218  0.00  0.00    -0.325 N 
ATOM     23  H   UNL     1       2.932 -12.190   0.560  0.00  0.00    +0.145 HD
ATOM     24  H   UNL     1       2.461 -12.252  -1.052  0.00  0.00    +0.145 HD
ENDBRANCH  16  20
ENDBRANCH  13  15
ENDBRANCH  10  11
ENDBRANCH   9  10
ENDBRANCH   5   9
BRANCH   2  25
ATOM     25  C   UNL     1      -2.390  -0.155  -2.872  0.00  0.00    +0.305 C 
BRANCH  25  26
ATOM     26  O   UNL     1      -1.358   0.681  -3.398  0.00  0.00    -0.484 OA
BRANCH  26  27
ATOM     27  C   UNL     1      -1.733   1.894  -3.883  0.00  0.00    +0.121 A 
ATOM     28  C   UNL     1      -3.067   2.274  -3.847  0.00  0.00    +0.047 A 
ATOM     29  C   UNL     1      -3.447   3.507  -4.340  0.00  0.00    +0.019 A 
ATOM     30  C   UNL     1      -2.498   4.363  -4.870  0.00  0.00    +0.018 A 
ATOM     31  C   UNL     1      -1.167   3.986  -4.907  0.00  0.00    +0.019 A 
ATOM     32  C   UNL     1      -0.783   2.756  -4.409  0.00  0.00    +0.047 A 
ATOM     33 BR   UNL     1      -3.020   6.051  -5.544  0.00  0.00    -0.050 Br
ENDBRANCH  26  27
ENDBRANCH  25  26
ENDBRANCH   2  25
TORSDOF 10
