REMARK  Name = ZINC39674083
REMARK  6 active torsions:
REMARK  status: ('A' for Active; 'I' for Inactive)
REMARK    1  A    between atoms: C_1  and  C_2
REMARK    2  A    between atoms: C_4  and  C_12
REMARK    3  A    between atoms: C_12  and  C_13
REMARK    4  A    between atoms: C_13  and  N_14
REMARK    5  A    between atoms: C_15  and  C_17
REMARK    6  A    between atoms: C_28  and  C_30
REMARK                            x       y       z     vdW  Elec       q    Type
REMARK                         _______ _______ _______ _____ _____    ______ ____
ROOT
ATOM      1  C   UNL     1      -4.582   3.777   3.191  0.00  0.00    +0.100 C 
ATOM      2  C   UNL     1      -4.664   2.686   4.282  0.00  0.00    +0.121 C 
ATOM      3  N   UNL     1      -3.959   3.267   5.448  0.00  0.00    -0.300 N 
ATOM      4  C   UNL     1      -4.367   4.692   5.452  0.00  0.00    +0.115 C 
ATOM      5  C   UNL     1      -4.390   5.093   3.964  0.00  0.00    -0.004 C 
ATOM      6  C   UNL     1      -5.554   6.041   3.690  0.00  0.00    -0.010 C 
ATOM      7  C   UNL     1      -5.312   7.364   4.422  0.00  0.00    -0.082 C 
ATOM      8  N   UNL     1      -4.052   7.958   3.960  0.00  0.00    +0.379 N 
ATOM      9  C   UNL     1      -2.927   7.082   4.310  0.00  0.00    -0.082 C 
ATOM     10  C   UNL     1      -3.068   5.747   3.573  0.00  0.00    -0.010 C 
ATOM     11  C   UNL     1      -3.134   2.641   6.310  0.00  0.00    +0.219 C 
ATOM     12  O   UNL     1      -2.834   1.480   6.129  0.00  0.00    -0.275 OA
ATOM     13  H   UNL     1      -4.085   8.076   2.958  0.00  0.00    -0.086 HD
ATOM     14  H   UNL     1      -3.925   8.858   4.398  0.00  0.00    -0.086 HD
ENDROOT
BRANCH  11  15
ATOM     15  C   UNL     1      -2.583   3.384   7.500  0.00  0.00    +0.079 C 
ATOM     16  C   UNL     1      -1.260   2.744   7.941  0.00  0.00    +0.017 C 
ATOM     17  C   UNL     1      -0.637   3.621   9.029  0.00  0.00    +0.027 C 
ATOM     18  C   UNL     1      -1.655   3.936  10.085  0.00  0.00    -0.031 C 
ATOM     19  C   UNL     1      -2.932   3.800   9.925  0.00  0.00    -0.030 C 
ATOM     20  C   UNL     1      -3.575   3.304   8.661  0.00  0.00    +0.039 C 
ENDBRANCH  11  15
BRANCH   1  22
ATOM     21  N   UNL     1      -3.443   3.936   1.001  0.00  0.00    -0.315 N 
ATOM     22  C   UNL     1      -3.405   3.525   2.284  0.00  0.00    +0.218 C 
ATOM     23  O   UNL     1      -2.424   2.953   2.709  0.00  0.00    -0.275 OA
ATOM     24  H   UNL     1      -4.228   4.394   0.661  0.00  0.00    +0.149 HD
BRANCH  21  25
ATOM     25  C   UNL     1      -2.299   3.691   0.119  0.00  0.00    +0.109 C 
BRANCH  25  26
ATOM     26  C   UNL     1      -2.598   4.252  -1.272  0.00  0.00    +0.056 C 
BRANCH  26  30
ATOM     27  C   UNL     1      -2.163   1.744  -3.048  0.00  0.00    +0.063 C 
ATOM     28  C   UNL     1      -1.225   2.919  -2.950  0.00  0.00    +0.017 A 
ATOM     29  H   UNL     1       0.314   2.382  -4.247  0.00  0.00    +0.166 HD
ATOM     30  C   UNL     1      -1.421   4.000  -2.179  0.00  0.00    -0.018 A 
ATOM     31  C   UNL     1      -0.275   4.888  -2.386  0.00  0.00    +0.003 A 
ATOM     32  C   UNL     1       0.091   6.136  -1.877  0.00  0.00    +0.010 A 
ATOM     33  C   UNL     1       1.260   6.717  -2.281  0.00  0.00    +0.001 A 
ATOM     34  C   UNL     1       2.086   6.078  -3.195  0.00  0.00    +0.002 A 
ATOM     35  C   UNL     1       1.744   4.847  -3.710  0.00  0.00    +0.026 A 
ATOM     36  C   UNL     1       0.559   4.236  -3.313  0.00  0.00    +0.047 A 
ATOM     37  N   UNL     1      -0.044   3.040  -3.631  0.00  0.00    -0.358 N 
ENDBRANCH  26  30
ENDBRANCH  25  26
ENDBRANCH  21  25
ENDBRANCH   1  22
TORSDOF 5
