REMARK  Name = ZINC17448971
REMARK  13 active torsions:
REMARK  status: ('A' for Active; 'I' for Inactive)
REMARK    1  A    between atoms: C_1  and  C_2
REMARK    2  A    between atoms: C_5  and  C_34
REMARK    3  A    between atoms: C_6  and  S_8
REMARK    4  A    between atoms: S_8  and  N_11
REMARK    5  A    between atoms: N_11  and  C_12
REMARK    6  A    between atoms: C_12  and  C_14
REMARK    7  A    between atoms: C_12  and  C_18
REMARK    8  A    between atoms: C_14  and  C_15
REMARK    9  A    between atoms: C_15  and  S_16
REMARK   10  A    between atoms: S_16  and  C_17
REMARK   11  A    between atoms: N_20  and  N_21
REMARK   12  A    between atoms: C_22  and  C_24
REMARK   13  A    between atoms: C_25  and  C_33
REMARK                            x       y       z     vdW  Elec       q    Type
REMARK                         _______ _______ _______ _____ _____    ______ ____
ROOT
ATOM      1  C   UNL     1       1.151   1.230  -0.381  0.00  0.00    +0.164 C 
ENDROOT
BRANCH   1   2
ATOM      2  C   UNL     1       0.004   0.911   0.543  0.00  0.00    +0.248 C 
ATOM      3  O   UNL     1      -0.030  -0.154   1.123  0.00  0.00    -0.273 OA
ATOM      4  N   UNL     1      -0.988   1.806   0.721  0.00  0.00    -0.233 N 
ATOM      5  H   UNL     1      -0.961   2.658   0.257  0.00  0.00    +0.173 HD
BRANCH   4   6
ATOM      6  N   UNL     1      -2.057   1.507   1.575  0.00  0.00    -0.228 N 
ATOM      7  C   UNL     1      -3.049   2.403   1.752  0.00  0.00    +0.296 C 
ATOM      8  O   UNL     1      -3.015   3.471   1.171  0.00  0.00    -0.265 OA
ATOM      9  H   UNL     1      -2.084   0.656   2.039  0.00  0.00    +0.173 HD
BRANCH   7  10
ATOM     10  C   UNL     1      -4.171   2.089   2.648  0.00  0.00    +0.195 A 
ATOM     11  C   UNL     1      -5.218   2.913   2.907  0.00  0.00    +0.008 A 
ATOM     12  C   UNL     1      -6.081   2.191   3.841  0.00  0.00    +0.024 A 
ATOM     13  C   UNL     1      -7.291   2.485   4.476  0.00  0.00    +0.012 A 
ATOM     14  C   UNL     1      -7.852   1.569   5.321  0.00  0.00    +0.001 A 
ATOM     15  C   UNL     1      -7.228   0.351   5.553  0.00  0.00    +0.004 A 
ATOM     16  C   UNL     1      -6.034   0.042   4.937  0.00  0.00    +0.047 A 
ATOM     17  C   UNL     1      -5.444   0.958   4.073  0.00  0.00    +0.136 A 
ATOM     18  O   UNL     1      -4.312   0.941   3.343  0.00  0.00    -0.450 OA
ATOM     19  C   UNL     1      -5.447   4.292   2.344  0.00  0.00    +0.048 C 
ENDBRANCH   7  10
ENDBRANCH   4   6
ENDBRANCH   1   2
BRANCH   1  20
ATOM     20  N   UNL     1       2.086   0.103  -0.406  0.00  0.00    -0.178 NA
ATOM     21  H   UNL     1       1.789  -0.766  -0.720  0.00  0.00    +0.149 HD
BRANCH  20  22
ATOM     22  S   UNL     1       3.648   0.311   0.100  0.00  0.00    +0.059 S 
ATOM     23  O   UNL     1       4.287  -0.953  -0.022  0.00  0.00    -0.153 OA
ATOM     24  O   UNL     1       4.135   1.476  -0.552  0.00  0.00    -0.153 OA
BRANCH  22  30
ATOM     25  C   UNL     1       4.406   3.569   4.116  0.00  0.00    +0.044 C 
ATOM     26  C   UNL     1       3.959   2.217   3.623  0.00  0.00    -0.049 A 
ATOM     27  C   UNL     1       3.506   1.269   4.522  0.00  0.00    +0.004 A 
ATOM     28  C   UNL     1       3.097   0.029   4.070  0.00  0.00    +0.005 A 
ATOM     29  C   UNL     1       3.135  -0.262   2.719  0.00  0.00    -0.024 A 
ATOM     30  C   UNL     1       3.593   0.684   1.821  0.00  0.00    +0.108 A 
ATOM     31  C   UNL     1       4.003   1.924   2.273  0.00  0.00    +0.032 A 
ATOM     32  C   UNL     1       2.682  -1.612   2.225  0.00  0.00    +0.046 C 
ENDBRANCH  22  30
ENDBRANCH  20  22
ENDBRANCH   1  20
BRANCH   1  33
ATOM     33  C   UNL     1       0.615   1.481  -1.792  0.00  0.00    +0.040 C 
BRANCH  33  34
ATOM     34  C   UNL     1       1.759   1.941  -2.697  0.00  0.00    +0.071 C 
BRANCH  34  35
ATOM     35  S   UNL     1       1.148   2.129  -4.395  0.00  0.00    -0.164 S 
ATOM     36  C   UNL     1       2.605   2.673  -5.328  0.00  0.00    +0.084 C 
ENDBRANCH  34  35
ENDBRANCH  33  34
ENDBRANCH   1  33
TORSDOF 9
