REMARK  Name = ZINC15478307
REMARK  10 active torsions:
REMARK  status: ('A' for Active; 'I' for Inactive)
REMARK    1  A    between atoms: C_1  and  C_2
REMARK    2  A    between atoms: C_2  and  C_3
REMARK    3  A    between atoms: C_3  and  N_4
REMARK    4  A    between atoms: C_13  and  C_15
REMARK    5  A    between atoms: N_17  and  C_18
REMARK    6  A    between atoms: C_18  and  C_19
REMARK    7  A    between atoms: C_19  and  C_21
REMARK    8  A    between atoms: C_19  and  N_65
REMARK    9  A    between atoms: C_24  and  O_27
REMARK   10  A    between atoms: O_27  and  C_28
REMARK                            x       y       z     vdW  Elec       q    Type
REMARK                         _______ _______ _______ _____ _____    ______ ____
ROOT
ATOM      1  C   UNL     1       2.096  -3.293  -1.355  0.00  0.00    +0.265 C 
ATOM      2  O   UNL     1       3.082  -2.777  -1.845  0.00  0.00    -0.268 OA
ATOM      3  N   UNL     1       2.185  -4.512  -0.788  0.00  0.00    -0.311 N 
ATOM      4  H   UNL     1       1.399  -4.923  -0.396  0.00  0.00    +0.149 HD
ENDROOT
BRANCH   1  14
ATOM      5  N   UNL     1      -1.422  -2.585  -0.836  0.00  0.00    -0.228 N 
ATOM      6  C   UNL     1      -1.679  -1.369  -1.360  0.00  0.00    +0.275 A 
ATOM      7  O   UNL     1      -2.800  -0.895  -1.315  0.00  0.00    -0.266 OA
ATOM      8  C   UNL     1      -0.575  -0.629  -1.987  0.00  0.00    +0.050 A 
ATOM      9  C   UNL     1      -0.736   0.630  -2.556  0.00  0.00    +0.014 A 
ATOM     10  C   UNL     1       0.351   1.258  -3.126  0.00  0.00    +0.001 A 
ATOM     11  C   UNL     1       1.599   0.647  -3.136  0.00  0.00    +0.001 A 
ATOM     12  C   UNL     1       1.779  -0.601  -2.577  0.00  0.00    +0.011 A 
ATOM     13  C   UNL     1       0.695  -1.251  -1.998  0.00  0.00    +0.020 A 
ATOM     14  C   UNL     1       0.802  -2.583  -1.380  0.00  0.00    +0.154 A 
ATOM     15  N   UNL     1      -0.266  -3.132  -0.854  0.00  0.00    -0.163 NA
BRANCH   5  16
ATOM     16  C   UNL     1      -2.526  -3.318  -0.211  0.00  0.00    +0.147 C 
BRANCH  16  18
ATOM     17  C   UNL     1      -4.374  -4.951  -0.611  0.00  0.00    +0.005 C 
ATOM     18  C   UNL     1      -3.221  -4.186  -1.262  0.00  0.00    +0.020 C 
ENDBRANCH  16  18
ENDBRANCH   5  16
ENDBRANCH   1  14
BRANCH   3  19
ATOM     19  C   UNL     1       3.470  -5.216  -0.762  0.00  0.00    +0.094 C 
BRANCH  19  20
ATOM     20  C   UNL     1       3.296  -6.568  -0.067  0.00  0.00    -0.020 C 
BRANCH  20  26
ATOM     21  C   UNL     1       3.604  -5.552   2.108  0.00  0.00    -0.078 C 
ATOM     22  C   UNL     1       2.906  -5.236   3.433  0.00  0.00    -0.019 C 
ATOM     23  C   UNL     1       2.553  -6.546   4.143  0.00  0.00    -0.004 C 
ATOM     24  C   UNL     1       1.666  -7.392   3.226  0.00  0.00    -0.019 C 
ATOM     25  C   UNL     1       2.400  -7.645   1.907  0.00  0.00    -0.078 C 
ATOM     26  N   UNL     1       2.689  -6.347   1.262  0.00  0.00    +0.385 N 
ATOM     27  H   UNL     1       1.810  -5.830   1.145  0.00  0.00    -0.081 HD
ENDBRANCH  20  26
BRANCH  20  28
ATOM     28  C   UNL     1       4.639  -7.239   0.069  0.00  0.00    -0.059 A 
ATOM     29  C   UNL     1       5.708  -6.543   0.602  0.00  0.00    +0.005 A 
ATOM     30  C   UNL     1       6.938  -7.157   0.733  0.00  0.00    +0.046 A 
ATOM     31  C   UNL     1       7.104  -8.470   0.317  0.00  0.00    +0.120 A 
ATOM     32  C   UNL     1       6.031  -9.165  -0.223  0.00  0.00    +0.046 A 
ATOM     33  C   UNL     1       4.801  -8.548  -0.346  0.00  0.00    +0.005 A 
BRANCH  31  34
ATOM     34  O   UNL     1       8.315  -9.075   0.439  0.00  0.00    -0.495 OA
ATOM     35  C   UNL     1       9.373  -8.299   1.004  0.00  0.00    +0.277 C 
ENDBRANCH  31  34
ENDBRANCH  20  28
ENDBRANCH  19  20
ENDBRANCH   3  19
TORSDOF 8
