REMARK  Name = ZINC42957002
REMARK  7 active torsions:
REMARK  status: ('A' for Active; 'I' for Inactive)
REMARK    1  A    between atoms: C_1  and  C_2
REMARK    2  A    between atoms: C_5  and  C_8
REMARK    3  A    between atoms: C_8  and  N_9
REMARK    4  A    between atoms: N_9  and  C_10
REMARK    5  A    between atoms: N_15  and  C_16
REMARK    6  A    between atoms: C_16  and  C_17
REMARK    7  A    between atoms: C_17  and  C_18
REMARK                            x       y       z     vdW  Elec       q    Type
REMARK                         _______ _______ _______ _____ _____    ______ ____
ROOT
ATOM      1  N   UNL     1       1.442  -4.742  -0.028  0.00  0.00    -0.278 N 
ATOM      2  C   UNL     1       2.076  -4.931  -1.203  0.00  0.00    +0.303 C 
ATOM      3  O   UNL     1       1.522  -4.643  -2.246  0.00  0.00    -0.253 OA
ATOM      4  N   UNL     1       3.324  -5.439  -1.220  0.00  0.00    -0.299 N 
ATOM      5  H   UNL     1       3.739  -5.737  -0.395  0.00  0.00    +0.150 HD
ENDROOT
BRANCH   1   6
ATOM      6  C   UNL     1       2.147  -4.987   1.232  0.00  0.00    +0.078 C 
ATOM      7  C   UNL     1       1.355  -4.812   2.530  0.00  0.00    +0.024 C 
ATOM      8  C   UNL     1       2.416  -3.782   2.136  0.00  0.00    +0.024 C 
ENDBRANCH   1   6
BRANCH   1   9
ATOM      9  C   UNL     1       0.048  -4.293  -0.013  0.00  0.00    +0.144 C 
BRANCH   9  14
ATOM     10  C   UNL     1      -0.118   1.482   0.077  0.00  0.00    +0.044 C 
ATOM     11  C   UNL     1      -0.075  -0.024   0.053  0.00  0.00    -0.050 A 
ATOM     12  C   UNL     1      -0.061  -0.696  -1.154  0.00  0.00    +0.003 A 
ATOM     13  C   UNL     1      -0.022  -2.078  -1.176  0.00  0.00    +0.005 A 
ATOM     14  C   UNL     1       0.005  -2.787   0.011  0.00  0.00    -0.030 A 
ATOM     15  C   UNL     1      -0.007  -2.115   1.218  0.00  0.00    +0.005 A 
ATOM     16  C   UNL     1      -0.043  -0.733   1.240  0.00  0.00    +0.003 A 
ENDBRANCH   9  14
ENDBRANCH   1   9
BRANCH   4  17
ATOM     17  C   UNL     1       4.055  -5.541  -2.486  0.00  0.00    +0.110 C 
BRANCH  17  18
ATOM     18  C   UNL     1       5.437  -6.146  -2.229  0.00  0.00    +0.056 C 
BRANCH  18  19
ATOM     19  C   UNL     1       6.189  -6.252  -3.531  0.00  0.00    -0.021 A 
ATOM     20  C   UNL     1       6.254  -7.328  -4.331  0.00  0.00    +0.087 A 
ATOM     21  N   UNL     1       7.029  -7.051  -5.424  0.00  0.00    -0.360 N 
ATOM     22  H   UNL     1       7.222  -7.673  -6.142  0.00  0.00    +0.165 HD
ATOM     23  C   UNL     1       7.494  -5.757  -5.352  0.00  0.00    +0.047 A 
ATOM     24  C   UNL     1       6.983  -5.197  -4.166  0.00  0.00    +0.003 A 
ATOM     25  C   UNL     1       7.289  -3.877  -3.830  0.00  0.00    +0.010 A 
ATOM     26  C   UNL     1       8.081  -3.133  -4.659  0.00  0.00    +0.001 A 
ATOM     27  C   UNL     1       8.584  -3.679  -5.831  0.00  0.00    +0.002 A 
ATOM     28  C   UNL     1       8.303  -4.983  -6.177  0.00  0.00    +0.026 A 
ENDBRANCH  18  19
ENDBRANCH  17  18
ENDBRANCH   4  17
TORSDOF 6
