REMARK  Name = ZINC06446152
REMARK  7 active torsions:
REMARK  status: ('A' for Active; 'I' for Inactive)
REMARK    1  A    between atoms: C_4  and  S_10
REMARK    2  A    between atoms: C_5  and  N_7
REMARK    3  A    between atoms: S_10  and  N_13
REMARK    4  A    between atoms: N_13  and  C_14
REMARK    5  A    between atoms: N_13  and  C_31
REMARK    6  A    between atoms: C_14  and  C_15
REMARK    7  A    between atoms: C_31  and  C_32
REMARK                            x       y       z     vdW  Elec       q    Type
REMARK                         _______ _______ _______ _____ _____    ______ ____
ROOT
ATOM      1  N   UNL     1       5.438   1.024  -1.445  0.00  0.00    -0.170 NA
ENDROOT
BRANCH   1   2
ATOM      2  S   UNL     1       6.341   2.304  -1.983  0.00  0.00    +0.063 S 
ATOM      3  O   UNL     1       6.076   2.433  -3.373  0.00  0.00    -0.153 OA
ATOM      4  O   UNL     1       6.125   3.368  -1.065  0.00  0.00    -0.153 OA
BRANCH   2   8
ATOM      5  C   UNL     1      10.695   1.128  -1.597  0.00  0.00    +0.002 A 
ATOM      6  C   UNL     1       9.707   0.166  -1.491  0.00  0.00    +0.002 A 
ATOM      7  C   UNL     1       8.377   0.526  -1.608  0.00  0.00    +0.031 A 
ATOM      8  C   UNL     1       8.035   1.846  -1.833  0.00  0.00    +0.136 A 
ATOM      9  C   UNL     1       9.023   2.807  -1.945  0.00  0.00    +0.152 A 
ATOM     10  C   UNL     1      10.353   2.448  -1.822  0.00  0.00    +0.035 A 
BRANCH   9  11
ATOM     11  N   UNL     1       8.658   4.220  -2.191  0.00  0.00    +0.058 N 
ATOM     12  O   UNL     1       9.515   5.084  -2.162  0.00  0.00    -0.126 OA
ATOM     13  O   UNL     1       7.500   4.517  -2.423  0.00  0.00    -0.126 OA
ENDBRANCH   9  11
ENDBRANCH   2   8
ENDBRANCH   1   2
BRANCH   1  14
ATOM     14  C   UNL     1       4.954   0.998  -0.063  0.00  0.00    +0.150 C 
BRANCH  14  15
ATOM     15  C   UNL     1       3.496   1.378  -0.033  0.00  0.00    +0.033 A 
ATOM     16  C   UNL     1       2.545   0.409  -0.043  0.00  0.00    +0.020 A 
ATOM     17  C   UNL     1       1.139   0.809  -0.015  0.00  0.00    +0.003 A 
ATOM     18  C   UNL     1       0.116  -0.146  -0.024  0.00  0.00    +0.059 A 
ATOM     19  C   UNL     1      -1.202   0.261  -0.004  0.00  0.00    +0.163 A 
ATOM     20  C   UNL     1      -1.517   1.623   0.039  0.00  0.00    +0.164 A 
ATOM     21  C   UNL     1      -0.511   2.574   0.048  0.00  0.00    +0.075 A 
ATOM     22  C   UNL     1       0.820   2.181   0.022  0.00  0.00    +0.053 A 
ATOM     23  N   UNL     1       1.835   3.116   0.031  0.00  0.00    -0.322 N 
ATOM     24  H   UNL     1       1.615   4.060   0.057  0.00  0.00    +0.169 HD
ATOM     25  C   UNL     1       3.125   2.737   0.004  0.00  0.00    +0.254 A 
ATOM     26  O   UNL     1       3.995   3.591   0.012  0.00  0.00    -0.268 OA
ATOM     27  O   UNL     1      -2.814   2.033   0.071  0.00  0.00    -0.485 OA
ATOM     28  C   UNL     1      -3.801   1.074  -0.333  0.00  0.00    +0.270 C 
ATOM     29  C   UNL     1      -3.493  -0.253   0.374  0.00  0.00    +0.270 C 
ATOM     30  O   UNL     1      -2.186  -0.680  -0.025  0.00  0.00    -0.485 OA
ENDBRANCH  14  15
ENDBRANCH   1  14
BRANCH   1  31
ATOM     31  C   UNL     1       5.123  -0.082  -2.352  0.00  0.00    +0.141 C 
BRANCH  31  32
ATOM     32  C   UNL     1       3.749   0.151  -2.983  0.00  0.00    +0.134 C 
ATOM     33  C   UNL     1       3.341  -1.063  -3.847  0.00  0.00    +0.035 C 
ATOM     34  C   UNL     1       2.611  -0.435  -5.056  0.00  0.00    +0.031 C 
ATOM     35  C   UNL     1       2.664   1.083  -4.779  0.00  0.00    +0.160 C 
ATOM     36  O   UNL     1       3.802   1.260  -3.907  0.00  0.00    -0.375 OA
ENDBRANCH  31  32
ENDBRANCH   1  31
TORSDOF 7
