REMARK  Name = ZINC66079458
REMARK  9 active torsions:
REMARK  status: ('A' for Active; 'I' for Inactive)
REMARK    1  A    between atoms: C_1  and  C_2
REMARK    2  A    between atoms: C_2  and  C_4
REMARK    3  A    between atoms: C_2  and  N_20
REMARK    4  A    between atoms: C_4  and  N_6
REMARK    5  A    between atoms: N_15  and  C_16
REMARK    6  A    between atoms: C_16  and  C_17
REMARK    7  A    between atoms: C_16  and  C_18
REMARK    8  A    between atoms: C_16  and  C_19
REMARK    9  A    between atoms: C_21  and  C_23
REMARK                            x       y       z     vdW  Elec       q    Type
REMARK                         _______ _______ _______ _____ _____    ______ ____
ROOT
ATOM      1  N   UNL     1       2.001  -0.166   1.423  0.00  0.00    -0.145 NA
ATOM      2  C   UNL     1       2.615  -0.523   2.548  0.00  0.00    +0.202 A 
ATOM      3  N   UNL     1       2.085  -1.316   3.516  0.00  0.00    -0.326 N 
ATOM      4  C   UNL     1       3.029  -1.458   4.528  0.00  0.00    +0.066 A 
ATOM      5  C   UNL     1       3.028  -2.143   5.735  0.00  0.00    +0.028 A 
ATOM      6  C   UNL     1       4.139  -2.098   6.553  0.00  0.00    +0.002 A 
ATOM      7  C   UNL     1       5.255  -1.371   6.174  0.00  0.00    +0.002 A 
ATOM      8  C   UNL     1       5.267  -0.686   4.976  0.00  0.00    +0.028 A 
ATOM      9  C   UNL     1       4.155  -0.725   4.147  0.00  0.00    +0.068 A 
ATOM     10  N   UNL     1       3.873  -0.158   2.908  0.00  0.00    -0.306 N 
ATOM     11  H   UNL     1       1.201  -1.714   3.504  0.00  0.00    +0.169 HD
ENDROOT
BRANCH  10  12
ATOM     12  C   UNL     1       4.777   0.691   2.128  0.00  0.00    +0.040 C 
ATOM     13  C   UNL     1       4.087   1.113   0.829  0.00  0.00    +0.034 C 
ATOM     14  C   UNL     1       5.137   1.936   2.942  0.00  0.00    +0.034 C 
ATOM     15  C   UNL     1       6.051  -0.089   1.798  0.00  0.00    +0.034 C 
ENDBRANCH  10  12
BRANCH   1  16
ATOM     16  C   UNL     1       0.727  -0.492   1.229  0.00  0.00    +0.259 C 
ATOM     17  O   UNL     1       0.150  -1.197   2.034  0.00  0.00    -0.272 OA
BRANCH  16  19
ATOM     18  C   UNL     1      -0.009   1.542   0.017  0.00  0.00    +0.038 C 
ATOM     19  C   UNL     1      -0.002   0.013   0.010  0.00  0.00    +0.158 C 
BRANCH  19  20
ATOM     20  N   UNL     1      -1.381  -0.482   0.027  0.00  0.00    -0.304 N 
ATOM     21  C   UNL     1      -2.066  -0.609  -1.127  0.00  0.00    +0.217 C 
ATOM     22  O   UNL     1      -1.540  -0.313  -2.179  0.00  0.00    -0.275 OA
ATOM     23  H   UNL     1      -1.802  -0.718   0.869  0.00  0.00    +0.149 HD
BRANCH  21  24
ATOM     24  C   UNL     1      -3.484  -1.117  -1.110  0.00  0.00    +0.075 C 
ATOM     25  C   UNL     1      -3.588  -2.651  -1.054  0.00  0.00    +0.013 C 
ATOM     26  C   UNL     1      -4.755  -2.529  -2.047  0.00  0.00    +0.001 C 
ATOM     27  C   UNL     1      -4.125  -1.204  -2.505  0.00  0.00    +0.013 C 
ENDBRANCH  21  24
ENDBRANCH  19  20
ENDBRANCH  16  19
ENDBRANCH   1  16
TORSDOF 5
