REMARK  Name = ZINC16478328
REMARK  3 active torsions:
REMARK  status: ('A' for Active; 'I' for Inactive)
REMARK    1  A    between atoms: C_4  and  C_7
REMARK    2  A    between atoms: C_10  and  C_12
REMARK    3  A    between atoms: N_14  and  N_15
REMARK                            x       y       z     vdW  Elec       q    Type
REMARK                         _______ _______ _______ _____ _____    ______ ____
ROOT
ATOM      1  C   UNL     1       1.422  -3.929  -3.312  0.00  0.00    +0.236 C 
ATOM      2  O   UNL     1       2.583  -4.065  -3.637  0.00  0.00    -0.274 OA
ATOM      3  N   UNL     1       1.029  -2.813  -2.668  0.00  0.00    -0.207 N 
ATOM      4  H   UNL     1       0.100  -2.704  -2.408  0.00  0.00    +0.177 HD
ENDROOT
BRANCH   3   5
ATOM      5  N   UNL     1       1.960  -1.809  -2.373  0.00  0.00    -0.189 NA
ATOM      6  C   UNL     1       1.611  -0.796  -1.673  0.00  0.00    +0.040 C 
ATOM      7  C   UNL     1       0.253  -0.780  -1.113  0.00  0.00    +0.056 C 
ATOM      8  C   UNL     1       0.208  -0.083   0.212  0.00  0.00    -0.005 C 
ATOM      9  C   UNL     1       0.023   1.405   0.163  0.00  0.00    +0.007 C 
ATOM     10  C   UNL     1       1.355   2.107  -0.099  0.00  0.00    -0.010 C 
ATOM     11  C   UNL     1       2.297   1.802   1.068  0.00  0.00    +0.007 C 
ATOM     12  C   UNL     1       2.602   0.302   1.014  0.00  0.00    -0.010 C 
ATOM     13  C   UNL     1       1.333  -0.515   1.140  0.00  0.00    +0.007 C 
ATOM     14  C   UNL     1       3.409   0.009  -0.242  0.00  0.00    +0.013 C 
ATOM     15  C   UNL     1       2.583   0.326  -1.492  0.00  0.00    +0.036 C 
ATOM     16  C   UNL     1       1.950   1.688  -1.422  0.00  0.00    +0.013 C 
ENDBRANCH   3   5
BRANCH   1  19
ATOM     17  C   UNL     1       0.928  -6.252  -4.362  0.00  0.00    +0.032 C 
ATOM     18  C   UNL     1       0.552  -6.338  -2.881  0.00  0.00    +0.022 C 
ATOM     19  C   UNL     1       0.420  -5.009  -3.629  0.00  0.00    +0.085 C 
BRANCH  17  23
ATOM     20  C   UNL     1       5.080  -6.395  -5.354  0.00  0.00    +0.000 A 
ATOM     21  C   UNL     1       4.128  -6.457  -6.354  0.00  0.00    +0.000 A 
ATOM     22  C   UNL     1       2.785  -6.410  -6.033  0.00  0.00    +0.004 A 
ATOM     23  C   UNL     1       2.393  -6.303  -4.712  0.00  0.00    -0.044 A 
ATOM     24  C   UNL     1       3.345  -6.237  -3.712  0.00  0.00    +0.004 A 
ATOM     25  C   UNL     1       4.689  -6.288  -4.033  0.00  0.00    +0.000 A 
ENDBRANCH  17  23
ENDBRANCH   1  19
TORSDOF 3
