REMARK  Name = ZINC08309256
REMARK  9 active torsions:
REMARK  status: ('A' for Active; 'I' for Inactive)
REMARK    1  A    between atoms: C_1  and  C_2
REMARK    2  A    between atoms: C_2  and  C_4
REMARK    3  A    between atoms: C_2  and  N_53
REMARK    4  A    between atoms: N_9  and  C_10
REMARK    5  A    between atoms: C_10  and  C_11
REMARK    6  A    between atoms: C_10  and  C_12
REMARK    7  A    between atoms: C_10  and  C_13
REMARK    8  A    between atoms: N_16  and  C_19
REMARK    9  A    between atoms: C_24  and  O_25
REMARK                            x       y       z     vdW  Elec       q    Type
REMARK                         _______ _______ _______ _____ _____    ______ ____
ROOT
ATOM      1  C   UNL     1       0.573  -2.938  -1.327  0.00  0.00    -0.059 C 
ATOM      2  C   UNL     1       1.356  -1.629  -1.455  0.00  0.00    +0.086 C 
ATOM      3  N   UNL     1       0.423  -0.529  -1.737  0.00  0.00    -0.331 N 
ATOM      4  C   UNL     1      -0.573  -0.398  -0.664  0.00  0.00    +0.086 C 
ATOM      5  C   UNL     1      -1.355  -1.707  -0.536  0.00  0.00    -0.059 C 
ATOM      6  N   UNL     1      -0.408  -2.800  -0.230  0.00  0.00    +0.389 N 
ATOM      7  H   UNL     1       0.090  -2.576   0.638  0.00  0.00    -0.081 HD
ENDROOT
BRANCH   3   8
ATOM      8  C   UNL     1       1.111   0.675  -1.933  0.00  0.00    +0.072 A 
ATOM      9  C   UNL     1       1.902   1.196  -0.919  0.00  0.00    +0.027 A 
ATOM     10  C   UNL     1       2.583   2.382  -1.116  0.00  0.00    +0.002 A 
ATOM     11  C   UNL     1       2.471   3.057  -2.318  0.00  0.00    +0.004 A 
ATOM     12  C   UNL     1       1.680   2.545  -3.331  0.00  0.00    +0.047 A 
ATOM     13  C   UNL     1       0.998   1.355  -3.143  0.00  0.00    +0.138 A 
BRANCH  13  14
ATOM     14  O   UNL     1       0.220   0.851  -4.138  0.00  0.00    -0.505 OA
ATOM     15  H   UNL     1      -0.699   1.153  -4.110  0.00  0.00    +0.292 HD
ENDBRANCH  13  14
ENDBRANCH   3   8
BRANCH   6  17
ATOM     16  C   UNL     1      -2.317  -3.838   0.905  0.00  0.00    -0.004 C 
ATOM     17  C   UNL     1      -1.144  -4.070  -0.049  0.00  0.00    +0.017 C 
BRANCH  17  18
ATOM     18  C   UNL     1      -1.663  -4.572  -1.371  0.00  0.00    +0.207 C 
ATOM     19  O   UNL     1      -1.930  -3.787  -2.255  0.00  0.00    -0.277 OA
ATOM     20  N   UNL     1      -1.832  -5.894  -1.571  0.00  0.00    -0.242 N 
ATOM     21  C   UNL     1      -2.297  -6.343  -2.754  0.00  0.00    +0.306 C 
ATOM     22  O   UNL     1      -2.564  -5.556  -3.640  0.00  0.00    -0.252 OA
ATOM     23  N   UNL     1      -2.465  -7.665  -2.953  0.00  0.00    -0.294 N 
ATOM     24  H   UNL     1      -1.619  -6.523  -0.863  0.00  0.00    +0.159 HD
ATOM     25  H   UNL     1      -2.252  -8.294  -2.246  0.00  0.00    +0.151 HD
BRANCH  23  26
ATOM     26  C   UNL     1      -2.970  -8.154  -4.239  0.00  0.00    +0.028 C 
ATOM     27  C   UNL     1      -2.015  -7.730  -5.356  0.00  0.00    +0.031 C 
ATOM     28  C   UNL     1      -3.067  -9.680  -4.202  0.00  0.00    +0.031 C 
ATOM     29  C   UNL     1      -4.356  -7.561  -4.501  0.00  0.00    +0.031 C 
ENDBRANCH  23  26
ENDBRANCH  17  18
ENDBRANCH   6  17
TORSDOF 5
