REMARK  Name = ZINC63063256
REMARK  3 active torsions:
REMARK  status: ('A' for Active; 'I' for Inactive)
REMARK    1  A    between atoms: C_1  and  C_2
REMARK    2  A    between atoms: C_7  and  O_8
REMARK    3  A    between atoms: O_8  and  C_9
REMARK                            x       y       z     vdW  Elec       q    Type
REMARK                         _______ _______ _______ _____ _____    ______ ____
ROOT
ATOM      1  O   UNL     1       0.025  -0.033   2.381  0.00  0.00    -0.454 OA
ENDROOT
BRANCH   1   2
ATOM      2  C   UNL     1      -0.065  -0.758   3.527  0.00  0.00    +0.147 A 
ATOM      3  C   UNL     1       1.034  -1.469   4.000  0.00  0.00    +0.051 A 
ATOM      4  C   UNL     1       0.894  -2.192   5.173  0.00  0.00    +0.057 A 
ATOM      5  C   UNL     1      -0.323  -2.185   5.830  0.00  0.00    +0.215 A 
ATOM      6  N   UNL     1      -1.345  -1.501   5.354  0.00  0.00    -0.229 NA
ATOM      7  C   UNL     1      -1.252  -0.795   4.244  0.00  0.00    +0.159 A 
ATOM      8  N   UNL     1      -0.481  -2.956   7.083  0.00  0.00    +0.075 N 
ATOM      9  O   UNL     1       0.450  -3.586   7.527  0.00  0.00    -0.125 OA
ATOM     10  O   UNL     1      -1.542  -2.955   7.664  0.00  0.00    -0.125 OA
ENDBRANCH   1   2
BRANCH   1  17
ATOM     11  C   UNL     1       0.221   1.495   0.013  0.00  0.00    +0.047 C 
ATOM     12  C   UNL     1      -0.202   0.049   0.014  0.00  0.00    -0.007 A 
ATOM     13  C   UNL     1      -0.506  -0.583  -1.176  0.00  0.00    +0.022 A 
ATOM     14  C   UNL     1      -0.895  -1.911  -1.176  0.00  0.00    +0.018 A 
ATOM     15  C   UNL     1      -0.979  -2.609   0.016  0.00  0.00    +0.019 A 
ATOM     16  C   UNL     1      -0.675  -1.981   1.208  0.00  0.00    +0.047 A 
ATOM     17  C   UNL     1      -0.280  -0.651   1.209  0.00  0.00    +0.131 A 
ATOM     18 BR   UNL     1      -1.312  -2.773  -2.807  0.00  0.00    -0.050 Br
ENDBRANCH   1  17
TORSDOF 2
