REMARK  Name = ZINC20692973
REMARK  6 active torsions:
REMARK  status: ('A' for Active; 'I' for Inactive)
REMARK    1  A    between atoms: C_1  and  O_2
REMARK    2  A    between atoms: O_2  and  C_3
REMARK    3  A    between atoms: C_5  and  C_10
REMARK    4  A    between atoms: C_8  and  O_9
REMARK    5  A    between atoms: C_21  and  S_26
REMARK    6  A    between atoms: S_26  and  N_29
REMARK                            x       y       z     vdW  Elec       q    Type
REMARK                         _______ _______ _______ _____ _____    ______ ____
ROOT
ATOM      1  C   UNL     1       3.674   1.782  -0.061  0.00  0.00    +0.105 C 
ATOM      2  C   UNL     1       3.454   3.078  -0.822  0.00  0.00    +0.029 C 
ATOM      3  C   UNL     1       4.591   4.109  -0.831  0.00  0.00    +0.033 C 
ATOM      4  C   UNL     1       3.816   5.420  -0.975  0.00  0.00    -0.030 C 
ATOM      5  C   UNL     1       2.587   5.277  -0.494  0.00  0.00    -0.023 C 
ATOM      6  C   UNL     1       2.444   3.897   0.036  0.00  0.00    +0.049 C 
ATOM      7  C   UNL     1       1.149   3.182   0.019  0.00  0.00    -0.018 A 
ATOM      8  C   UNL     1      -0.061   3.842   0.028  0.00  0.00    +0.034 A 
ATOM      9  C   UNL     1      -1.245   3.128   0.030  0.00  0.00    +0.106 A 
ATOM     10  C   UNL     1      -1.218   1.746   0.017  0.00  0.00    +0.030 A 
ATOM     11  C   UNL     1      -0.013   1.076   0.008  0.00  0.00    +0.025 A 
ATOM     12  C   UNL     1       1.183   1.784   0.000  0.00  0.00    +0.031 A 
ATOM     13  N   UNL     1       2.394   1.082  -0.048  0.00  0.00    -0.336 N 
ATOM     14  H   UNL     1       2.369  -0.017  -0.078  0.00  0.00    +0.147 HD
ENDROOT
BRANCH   1  17
ATOM     15  C   UNL     1       6.985   0.171  -0.905  0.00  0.00    +0.162 A 
ATOM     16  C   UNL     1       6.021   0.943  -0.277  0.00  0.00    +0.054 A 
ATOM     17  C   UNL     1       4.722   0.946  -0.749  0.00  0.00    -0.023 A 
ATOM     18  C   UNL     1       4.383   0.189  -1.855  0.00  0.00    +0.009 A 
ATOM     19  C   UNL     1       5.341  -0.580  -2.490  0.00  0.00    +0.049 A 
ATOM     20  C   UNL     1       6.644  -0.592  -2.018  0.00  0.00    +0.158 A 
BRANCH  15  22
ATOM     21  C   UNL     1       8.540   0.970   0.707  0.00  0.00    +0.277 C 
ATOM     22  O   UNL     1       8.262   0.162  -0.439  0.00  0.00    -0.491 OA
ENDBRANCH  15  22
BRANCH  20  23
ATOM     23  O   UNL     1       7.587  -1.347  -2.642  0.00  0.00    -0.503 OA
ATOM     24  H   UNL     1       7.316  -1.950  -3.521  0.00  0.00    +0.292 HD
ENDBRANCH  20  23
ENDBRANCH   1  17
BRANCH   9  25
ATOM     25  S   UNL     1      -2.787   3.980   0.043  0.00  0.00    +0.061 S 
ATOM     26  O   UNL     1      -3.742   3.084   0.594  0.00  0.00    -0.153 OA
ATOM     27  O   UNL     1      -2.538   5.264   0.600  0.00  0.00    -0.153 OA
BRANCH  25  28
ATOM     28  N   UNL     1      -3.224   4.226  -1.535  0.00  0.00    -0.177 NA
ATOM     29  C   UNL     1      -2.799   5.442  -2.191  0.00  0.00    +0.109 C 
ATOM     30  C   UNL     1      -3.848   6.552  -1.972  0.00  0.00    +0.017 C 
ATOM     31  C   UNL     1      -5.062   6.267  -2.752  0.00  0.00    +0.001 C 
ATOM     32  C   UNL     1      -5.780   4.982  -2.350  0.00  0.00    +0.001 C 
ATOM     33  C   UNL     1      -5.155   3.814  -3.072  0.00  0.00    +0.017 C 
ATOM     34  C   UNL     1      -4.037   3.197  -2.212  0.00  0.00    +0.109 C 
ENDBRANCH  25  28
ENDBRANCH   9  25
TORSDOF 5
