REMARK  Name = ZINC35450735
REMARK  10 active torsions:
REMARK  status: ('A' for Active; 'I' for Inactive)
REMARK    1  A    between atoms: C_1  and  C_2
REMARK    2  A    between atoms: C_2  and  C_3
REMARK    3  A    between atoms: C_2  and  C_4
REMARK    4  A    between atoms: C_4  and  C_5
REMARK    5  A    between atoms: C_5  and  S_6
REMARK    6  A    between atoms: S_6  and  C_7
REMARK    7  A    between atoms: C_14  and  C_26
REMARK    8  A    between atoms: C_20  and  C_24
REMARK    9  A    between atoms: C_20  and  C_25
REMARK   10  A    between atoms: C_30  and  O_32
REMARK                            x       y       z     vdW  Elec       q    Type
REMARK                         _______ _______ _______ _____ _____    ______ ____
ROOT
ATOM      1  C   UNL     1      -2.929  -4.430  -0.269  0.00  0.00    +0.171 A 
ATOM      2  N   UNL     1      -1.719  -4.943  -0.356  0.00  0.00    -0.208 NA
ATOM      3  C   UNL     1      -1.536  -6.262  -0.478  0.00  0.00    +0.135 A 
ATOM      4  C   UNL     1      -2.630  -7.110  -0.509  0.00  0.00    +0.069 A 
ATOM      5  C   UNL     1      -3.913  -6.559  -0.417  0.00  0.00    +0.258 A 
ATOM      6  O   UNL     1      -4.901  -7.276  -0.444  0.00  0.00    -0.267 OA
ATOM      7  N   UNL     1      -4.038  -5.221  -0.293  0.00  0.00    -0.302 N 
ATOM      8  C   UNL     1      -2.448  -8.593  -0.633  0.00  0.00    +0.092 C 
ATOM      9  C   UNL     1      -1.069  -8.937  -1.137  0.00  0.00    +0.024 C 
ATOM     10  C   UNL     1      -0.062  -8.040  -1.088  0.00  0.00    +0.017 C 
ATOM     11  N   UNL     1      -0.262  -6.787  -0.576  0.00  0.00    -0.302 N 
ATOM     12  C   UNL     1       1.315  -8.388  -1.599  0.00  0.00    +0.058 C 
ATOM     13  C   UNL     1       1.570  -9.885  -1.409  0.00  0.00    -0.023 C 
ATOM     14  C   UNL     1       0.485 -10.661  -2.163  0.00  0.00    +0.086 C 
ATOM     15  C   UNL     1      -0.864 -10.227  -1.660  0.00  0.00    +0.162 C 
ATOM     16  O   UNL     1      -1.796 -11.005  -1.707  0.00  0.00    -0.292 OA
ATOM     17  C   UNL     1       2.947 -10.248  -1.969  0.00  0.00    +0.011 C 
ATOM     18  C   UNL     1       1.512 -10.232   0.080  0.00  0.00    +0.011 C 
ATOM     19  H   UNL     1       0.498  -6.261  -0.280  0.00  0.00    +0.153 HD
ATOM     20  H   UNL     1      -4.920  -4.821  -0.226  0.00  0.00    +0.171 HD
ENDROOT
BRANCH   8  21
ATOM     21  C   UNL     1      -2.651  -9.230   0.717  0.00  0.00    -0.032 A 
ATOM     22  C   UNL     1      -1.841  -8.872   1.779  0.00  0.00    +0.005 A 
ATOM     23  C   UNL     1      -2.025  -9.454   3.019  0.00  0.00    +0.004 A 
ATOM     24  C   UNL     1      -3.019 -10.396   3.201  0.00  0.00    +0.045 A 
ATOM     25  C   UNL     1      -3.833 -10.758   2.137  0.00  0.00    +0.117 A 
ATOM     26  C   UNL     1      -3.650 -10.167   0.895  0.00  0.00    +0.050 A 
BRANCH  25  27
ATOM     27  O   UNL     1      -4.811 -11.684   2.313  0.00  0.00    -0.507 OA
ATOM     28  H   UNL     1      -5.662 -11.312   2.581  0.00  0.00    +0.292 HD
ENDBRANCH  25  27
ENDBRANCH   8  21
BRANCH   1  29
ATOM     29  S   UNL     1      -3.118  -2.686  -0.108  0.00  0.00    -0.088 S 
BRANCH  29  30
ATOM     30  C   UNL     1      -1.416  -2.058  -0.121  0.00  0.00    +0.077 C 
BRANCH  30  31
ATOM     31  C   UNL     1      -1.433  -0.534   0.013  0.00  0.00    +0.014 C 
BRANCH  31  33
ATOM     32  C   UNL     1      -0.019   1.526   0.010  0.00  0.00    +0.007 C 
ATOM     33  C   UNL     1       0.002  -0.004   0.002  0.00  0.00    -0.016 C 
ATOM     34  C   UNL     1       0.742  -0.511   1.242  0.00  0.00    +0.007 C 
ENDBRANCH  31  33
ENDBRANCH  30  31
ENDBRANCH  29  30
ENDBRANCH   1  29
TORSDOF 6
