REMARK  Name = ZINC08643449
REMARK  6 active torsions:
REMARK  status: ('A' for Active; 'I' for Inactive)
REMARK    1  A    between atoms: C_1  and  C_2
REMARK    2  A    between atoms: C_5  and  C_8
REMARK    3  A    between atoms: C_8  and  C_32
REMARK    4  A    between atoms: N_11  and  C_15
REMARK    5  A    between atoms: C_15  and  C_16
REMARK    6  A    between atoms: N_21  and  C_22
REMARK                            x       y       z     vdW  Elec       q    Type
REMARK                         _______ _______ _______ _____ _____    ______ ____
ROOT
ATOM      1  C   UNL     1       3.913  -5.224  -2.018  0.00  0.00    +0.238 C 
ATOM      2  O   UNL     1       3.907  -4.094  -1.580  0.00  0.00    -0.274 OA
ATOM      3  N   UNL     1       4.923  -5.635  -2.810  0.00  0.00    -0.239 N 
ATOM      4  C   UNL     1       5.927  -4.789  -3.115  0.00  0.00    +0.306 C 
ATOM      5  O   UNL     1       5.922  -3.656  -2.675  0.00  0.00    -0.252 OA
ATOM      6  N   UNL     1       6.937  -5.200  -3.907  0.00  0.00    -0.294 N 
ATOM      7  H   UNL     1       4.927  -6.539  -3.161  0.00  0.00    +0.159 HD
ATOM      8  H   UNL     1       6.942  -6.104  -4.258  0.00  0.00    +0.151 HD
ENDROOT
BRANCH   6   9
ATOM      9  C   UNL     1       8.029  -4.280  -4.238  0.00  0.00    +0.037 C 
ATOM     10  C   UNL     1       8.726  -3.832  -2.952  0.00  0.00    +0.029 C 
ATOM     11  C   UNL     1       9.866  -2.872  -3.298  0.00  0.00    -0.008 C 
ATOM     12  C   UNL     1      10.874  -3.582  -4.204  0.00  0.00    +0.007 C 
ATOM     13  C   UNL     1      10.177  -4.030  -5.490  0.00  0.00    -0.008 C 
ATOM     14  C   UNL     1       9.037  -4.990  -5.144  0.00  0.00    +0.029 C 
ATOM     15  C   UNL     1       9.611  -2.808  -6.216  0.00  0.00    +0.007 C 
ATOM     16  C   UNL     1       8.603  -2.098  -5.310  0.00  0.00    -0.008 C 
ATOM     17  C   UNL     1       9.301  -1.650  -4.024  0.00  0.00    +0.007 C 
ATOM     18  C   UNL     1       7.463  -3.058  -4.964  0.00  0.00    +0.029 C 
ENDBRANCH   6   9
BRANCH   1  19
ATOM     19  C   UNL     1       2.790  -6.170  -1.678  0.00  0.00    +0.214 C 
BRANCH  19  23
ATOM     20  C   UNL     1       0.058  -4.275  -0.021  0.00  0.00    +0.135 C 
ATOM     21  C   UNL     1       0.763  -4.793  -1.260  0.00  0.00    +0.251 C 
ATOM     22  O   UNL     1       0.438  -4.617  -2.414  0.00  0.00    -0.272 OA
ATOM     23  N   UNL     1       1.825  -5.490  -0.810  0.00  0.00    -0.215 N 
ATOM     24  C   UNL     1       1.889  -5.485   0.526  0.00  0.00    +0.310 C 
ATOM     25  O   UNL     1       2.758  -6.046   1.163  0.00  0.00    -0.252 OA
ATOM     26  N   UNL     1       0.883  -4.789   1.086  0.00  0.00    -0.281 N 
ATOM     27  C   UNL     1      -1.365  -4.831   0.060  0.00  0.00    +0.047 C 
ATOM     28  H   UNL     1       0.730  -4.652   2.034  0.00  0.00    +0.152 HD
BRANCH  20  33
ATOM     29  C   UNL     1      -0.018   1.503   0.010  0.00  0.00    +0.044 C 
ATOM     30  C   UNL     1       0.002  -0.004   0.002  0.00  0.00    -0.050 A 
ATOM     31  C   UNL     1      -0.006  -0.689  -1.199  0.00  0.00    +0.004 A 
ATOM     32  C   UNL     1       0.018  -2.071  -1.206  0.00  0.00    +0.006 A 
ATOM     33  C   UNL     1       0.039  -2.768  -0.013  0.00  0.00    -0.015 A 
ATOM     34  C   UNL     1       0.041  -2.084   1.188  0.00  0.00    +0.006 A 
ATOM     35  C   UNL     1       0.023  -0.702   1.195  0.00  0.00    +0.004 A 
ENDBRANCH  20  33
ENDBRANCH  19  23
ENDBRANCH   1  19
TORSDOF 4
