REMARK  Name = ZINC09102928
REMARK  8 active torsions:
REMARK  status: ('A' for Active; 'I' for Inactive)
REMARK    1  A    between atoms: N_9  and  C_12
REMARK    2  A    between atoms: C_12  and  C_13
REMARK    3  A    between atoms: C_13  and  C_14
REMARK    4  A    between atoms: N_16  and  C_17
REMARK    5  A    between atoms: C_17  and  C_18
REMARK    6  A    between atoms: C_18  and  C_20
REMARK    7  A    between atoms: C_18  and  S_25
REMARK    8  A    between atoms: S_25  and  C_28
REMARK                            x       y       z     vdW  Elec       q    Type
REMARK                         _______ _______ _______ _____ _____    ______ ____
ROOT
ATOM      1  C   UNL     1      -1.549   3.806   2.677  0.00  0.00    +0.136 C 
ENDROOT
BRANCH   1   4
ATOM      2  C   UNL     1      -0.724   2.012   1.250  0.00  0.00    +0.215 C 
ATOM      3  O   UNL     1      -1.167   1.213   2.049  0.00  0.00    -0.276 OA
ATOM      4  N   UNL     1      -0.863   3.334   1.472  0.00  0.00    -0.313 N 
ATOM      5  H   UNL     1      -0.509   3.973   0.834  0.00  0.00    +0.149 HD
BRANCH   2   6
ATOM      6  C   UNL     1      -0.019   1.526   0.010  0.00  0.00    +0.115 C 
BRANCH   6   7
ATOM      7  C   UNL     1       0.002  -0.004   0.002  0.00  0.00    +0.126 C 
BRANCH   7  16
ATOM      8  C   UNL     1       3.433  -1.949  -4.631  0.00  0.00    +0.001 A 
ATOM      9  C   UNL     1       2.229  -1.962  -5.311  0.00  0.00    +0.001 A 
ATOM     10  C   UNL     1       1.058  -1.583  -4.673  0.00  0.00    +0.014 A 
ATOM     11  C   UNL     1       1.096  -1.188  -3.345  0.00  0.00    +0.049 A 
ATOM     12  C   UNL     1       2.323  -1.175  -2.652  0.00  0.00    +0.049 A 
ATOM     13  C   UNL     1       3.486  -1.557  -3.303  0.00  0.00    +0.014 A 
ATOM     14  C   UNL     1       2.010  -0.712  -1.284  0.00  0.00    +0.254 C 
ATOM     15  O   UNL     1       2.812  -0.568  -0.384  0.00  0.00    -0.270 OA
ATOM     16  N   UNL     1       0.688  -0.476  -1.203  0.00  0.00    -0.234 N 
ATOM     17  C   UNL     1       0.077  -0.738  -2.373  0.00  0.00    +0.254 C 
ATOM     18  O   UNL     1      -1.111  -0.620  -2.595  0.00  0.00    -0.270 OA
ENDBRANCH   7  16
ENDBRANCH   6   7
ENDBRANCH   2   6
ENDBRANCH   1   4
BRANCH   1  19
ATOM     19  C   UNL     1      -1.570   5.336   2.686  0.00  0.00    +0.189 C 
BRANCH  19  20
ATOM     20  C   UNL     1      -2.275   5.822   3.926  0.00  0.00    +0.016 A 
ATOM     21  C   UNL     1      -1.801   6.604   4.926  0.00  0.00    +0.013 A 
ATOM     22  C   UNL     1      -2.638   6.928   5.978  0.00  0.00    +0.008 A 
ATOM     23  C   UNL     1      -3.908   6.454   5.977  0.00  0.00    +0.045 A 
ATOM     24  S   UNL     1      -3.954   5.524   4.454  0.00  0.00    -0.100 S 
ENDBRANCH  19  20
BRANCH  19  25
ATOM     25  S   UNL     1      -2.447   5.937   1.216  0.00  0.00    +0.006 S 
ATOM     26  O   UNL     1      -1.700   5.640   0.044  0.00  0.00    -0.169 OA
ATOM     27  O   UNL     1      -3.826   5.605   1.299  0.00  0.00    -0.169 OA
BRANCH  25  28
ATOM     28  C   UNL     1      -2.399   7.694   1.347  0.00  0.00    +0.093 A 
ATOM     29  C   UNL     1      -1.349   8.399   0.789  0.00  0.00    +0.031 A 
ATOM     30  C   UNL     1      -1.307   9.777   0.889  0.00  0.00    +0.051 A 
ATOM     31  C   UNL     1      -2.319  10.455   1.549  0.00  0.00    +0.166 A 
ATOM     32  C   UNL     1      -3.377   9.745   2.111  0.00  0.00    +0.168 A 
ATOM     33  C   UNL     1      -3.415   8.364   2.002  0.00  0.00    +0.076 A 
ATOM     34  O   UNL     1      -4.234  10.630   2.697  0.00  0.00    -0.453 OA
ATOM     35  C   UNL     1      -3.903  11.915   2.137  0.00  0.00    +0.466 C 
ATOM     36  O   UNL     1      -2.513  11.786   1.784  0.00  0.00    -0.453 OA
ENDBRANCH  25  28
ENDBRANCH  19  25
ENDBRANCH   1  19
TORSDOF 8
