REMARK  Name = ZINC12136562
REMARK  8 active torsions:
REMARK  status: ('A' for Active; 'I' for Inactive)
REMARK    1  A    between atoms: C_1  and  C_2
REMARK    2  A    between atoms: C_2  and  C_4
REMARK    3  A    between atoms: C_2  and  S_17
REMARK    4  A    between atoms: N_6  and  C_7
REMARK    5  A    between atoms: S_17  and  C_18
REMARK    6  A    between atoms: C_21  and  C_30
REMARK    7  A    between atoms: N_22  and  C_23
REMARK    8  A    between atoms: C_30  and  N_71
REMARK                            x       y       z     vdW  Elec       q    Type
REMARK                         _______ _______ _______ _____ _____    ______ ____
ROOT
ATOM      1  C   UNL     1      -3.419   9.580  -1.615  0.00  0.00    +0.197 A 
ATOM      2  N   UNL     1      -2.511  10.182  -0.882  0.00  0.00    -0.122 NA
ATOM      3  N   UNL     1      -2.717  11.450  -0.884  0.00  0.00    -0.135 NA
ATOM      4  C   UNL     1      -3.760  11.735  -1.611  0.00  0.00    +0.122 A 
ATOM      5  N   UNL     1      -4.244  10.554  -2.108  0.00  0.00    -0.276 N 
ENDROOT
BRANCH   5   6
ATOM      6  C   UNL     1      -5.355  10.379  -2.947  0.00  0.00    +0.050 A 
ATOM      7  C   UNL     1      -5.343  10.900  -4.233  0.00  0.00    +0.029 A 
ATOM      8  C   UNL     1      -6.436  10.723  -5.059  0.00  0.00    +0.040 A 
ATOM      9  C   UNL     1      -7.547  10.034  -4.601  0.00  0.00    +0.124 A 
ATOM     10  C   UNL     1      -7.562   9.518  -3.317  0.00  0.00    +0.040 A 
ATOM     11  C   UNL     1      -6.469   9.689  -2.490  0.00  0.00    +0.029 A 
ATOM     12  F   UNL     1      -8.617   9.866  -5.409  0.00  0.00    -0.205 F 
ENDBRANCH   5   6
BRANCH   1  13
ATOM     13  S   UNL     1      -3.547   7.848  -1.912  0.00  0.00    -0.073 S 
BRANCH  13  15
ATOM     14  C   UNL     1      -0.838   7.790  -1.569  0.00  0.00    +0.029 C 
ATOM     15  C   UNL     1      -2.132   7.259  -0.950  0.00  0.00    +0.137 C 
BRANCH  15  16
ATOM     16  C   UNL     1      -2.112   5.752  -0.958  0.00  0.00    +0.227 C 
ATOM     17  O   UNL     1      -2.637   5.143  -1.866  0.00  0.00    -0.275 OA
ATOM     18  N   UNL     1      -1.510   5.081   0.044  0.00  0.00    -0.309 N 
ATOM     19  H   UNL     1      -1.089   5.567   0.770  0.00  0.00    +0.149 HD
BRANCH  18  20
ATOM     20  C   UNL     1      -1.490   3.616   0.036  0.00  0.00    +0.035 C 
ATOM     21  C   UNL     1      -0.773   3.123  -1.223  0.00  0.00    +0.029 C 
ATOM     22  C   UNL     1      -0.753   1.593  -1.232  0.00  0.00    -0.008 C 
ATOM     23  C   UNL     1      -0.013   1.086   0.008  0.00  0.00    +0.007 C 
ATOM     24  C   UNL     1      -0.729   1.579   1.267  0.00  0.00    -0.008 C 
ATOM     25  C   UNL     1      -0.750   3.109   1.275  0.00  0.00    +0.029 C 
ATOM     26  C   UNL     1      -2.164   1.050   1.278  0.00  0.00    +0.007 C 
ATOM     27  C   UNL     1      -2.904   1.556   0.038  0.00  0.00    -0.008 C 
ATOM     28  C   UNL     1      -2.188   1.063  -1.221  0.00  0.00    +0.007 C 
ATOM     29  C   UNL     1      -2.925   3.086   0.047  0.00  0.00    +0.029 C 
ENDBRANCH  18  20
ENDBRANCH  15  16
ENDBRANCH  13  15
ENDBRANCH   1  13
BRANCH   4  30
ATOM     30  C   UNL     1      -4.327  13.108  -1.862  0.00  0.00    -0.001 C 
BRANCH  30  36
ATOM     31  C   UNL     1      -2.267  13.927  -2.836  0.00  0.00    -0.078 C 
ATOM     32  C   UNL     1      -1.618  14.390  -4.142  0.00  0.00    -0.019 C 
ATOM     33  C   UNL     1      -2.303  15.673  -4.621  0.00  0.00    -0.004 C 
ATOM     34  C   UNL     1      -3.800  15.407  -4.798  0.00  0.00    -0.019 C 
ATOM     35  C   UNL     1      -4.386  14.915  -3.473  0.00  0.00    -0.078 C 
ATOM     36  N   UNL     1      -3.701  13.665  -3.080  0.00  0.00    +0.384 N 
ATOM     37  H   UNL     1      -3.790  12.983  -3.842  0.00  0.00    -0.081 HD
ENDBRANCH  30  36
ENDBRANCH   4  30
TORSDOF 7
