REMARK  Name = ZINC39896620
REMARK  11 active torsions:
REMARK  status: ('A' for Active; 'I' for Inactive)
REMARK    1  A    between atoms: C_1  and  C_2
REMARK    2  A    between atoms: C_2  and  C_4
REMARK    3  A    between atoms: C_2  and  N_10
REMARK    4  A    between atoms: C_11  and  C_13
REMARK    5  A    between atoms: C_13  and  C_37
REMARK    6  A    between atoms: N_15  and  C_28
REMARK    7  A    between atoms: C_18  and  C_21
REMARK    8  A    between atoms: C_21  and  C_22
REMARK    9  A    between atoms: C_31  and  C_34
REMARK   10  A    between atoms: C_34  and  C_35
REMARK   11  A    between atoms: C_34  and  C_36
REMARK                            x       y       z     vdW  Elec       q    Type
REMARK                         _______ _______ _______ _____ _____    ______ ____
ROOT
ATOM      1  C   UNL     1       0.848  -0.765   3.626  0.00  0.00    +0.141 C 
ATOM      2  C   UNL     1       0.156  -0.996   4.816  0.00  0.00    +0.098 C 
ATOM      3  N   UNL     1      -1.183  -0.821   5.065  0.00  0.00    -0.232 N 
ATOM      4  C   UNL     1      -1.728  -1.077   6.242  0.00  0.00    +0.238 C 
ATOM      5  O   UNL     1      -2.912  -0.920   6.453  0.00  0.00    -0.274 OA
ATOM      6  C   UNL     1      -0.776  -1.580   7.316  0.00  0.00    +0.143 C 
ATOM      7  S   UNL     1       0.803  -1.595   6.370  0.00  0.00    -0.095 S 
ENDROOT
BRANCH   3   8
ATOM      8  C   UNL     1      -2.005  -0.354   4.031  0.00  0.00    +0.042 A 
ATOM      9  C   UNL     1      -2.270  -1.162   2.934  0.00  0.00    +0.024 A 
ATOM     10  C   UNL     1      -3.081  -0.699   1.916  0.00  0.00    +0.006 A 
ATOM     11  C   UNL     1      -3.628   0.569   1.989  0.00  0.00    -0.045 A 
ATOM     12  C   UNL     1      -3.366   1.377   3.081  0.00  0.00    +0.006 A 
ATOM     13  C   UNL     1      -2.561   0.917   4.104  0.00  0.00    +0.024 A 
BRANCH  11  14
ATOM     14  C   UNL     1      -4.512   1.072   0.877  0.00  0.00    +0.013 C 
ATOM     15  C   UNL     1      -5.898   1.400   1.435  0.00  0.00    +0.012 C 
ATOM     16  C   UNL     1      -3.896   2.332   0.267  0.00  0.00    +0.012 C 
ENDBRANCH  11  14
ENDBRANCH   3   8
BRANCH   1  18
ATOM     17  N   UNL     1       0.176  -0.711   1.287  0.00  0.00    -0.304 N 
ATOM     18  C   UNL     1       0.172  -0.123   2.500  0.00  0.00    +0.257 C 
ATOM     19  O   UNL     1      -0.396   0.943   2.657  0.00  0.00    -0.269 OA
ATOM     20  H   UNL     1       0.562  -1.594   1.177  0.00  0.00    +0.150 HD
BRANCH  17  22
ATOM     21  C   UNL     1       0.631   0.953  -0.448  0.00  0.00    +0.033 C 
ATOM     22  C   UNL     1      -0.401  -0.016   0.134  0.00  0.00    +0.100 C 
BRANCH  22  23
ATOM     23  C   UNL     1      -0.792  -1.024  -0.916  0.00  0.00    -0.027 A 
ATOM     24  C   UNL     1       0.025  -2.110  -1.170  0.00  0.00    +0.005 A 
ATOM     25  C   UNL     1      -0.333  -3.034  -2.133  0.00  0.00    +0.000 A 
ATOM     26  C   UNL     1      -1.508  -2.873  -2.842  0.00  0.00    +0.000 A 
ATOM     27  C   UNL     1      -2.326  -1.788  -2.588  0.00  0.00    +0.000 A 
ATOM     28  C   UNL     1      -1.970  -0.866  -1.622  0.00  0.00    +0.005 A 
ENDBRANCH  22  23
ENDBRANCH  17  22
ENDBRANCH   1  18
BRANCH   1  29
ATOM     29  C   UNL     1       2.220  -1.157   3.508  0.00  0.00    +0.107 C 
ATOM     30  N   UNL     1       3.309  -1.468   3.415  0.00  0.00    -0.191 NA
ENDBRANCH   1  29
BRANCH   6  31
ATOM     31  C   UNL     1      -0.711  -0.611   8.499  0.00  0.00    +0.059 C 
BRANCH  31  32
ATOM     32  C   UNL     1       0.145  -1.205   9.588  0.00  0.00    -0.046 A 
ATOM     33  C   UNL     1      -0.429  -2.001  10.561  0.00  0.00    +0.004 A 
ATOM     34  C   UNL     1       0.356  -2.545  11.560  0.00  0.00    +0.000 A 
ATOM     35  C   UNL     1       1.715  -2.295  11.585  0.00  0.00    +0.000 A 
ATOM     36  C   UNL     1       2.290  -1.500  10.611  0.00  0.00    +0.000 A 
ATOM     37  C   UNL     1       1.505  -0.959   9.609  0.00  0.00    +0.004 A 
ENDBRANCH  31  32
ENDBRANCH   6  31
TORSDOF 8
