REMARK  Name = ZINC42216986
REMARK  7 active torsions:
REMARK  status: ('A' for Active; 'I' for Inactive)
REMARK    1  A    between atoms: C_1  and  C_2
REMARK    2  A    between atoms: C_5  and  C_8
REMARK    3  A    between atoms: C_11  and  S_14
REMARK    4  A    between atoms: S_14  and  C_15
REMARK    5  A    between atoms: C_15  and  C_17
REMARK    6  A    between atoms: C_15  and  C_18
REMARK    7  A    between atoms: N_20  and  C_21
REMARK                            x       y       z     vdW  Elec       q    Type
REMARK                         _______ _______ _______ _____ _____    ______ ____
ROOT
ATOM      1  S   UNL     1       0.140  -7.705   1.774  0.00  0.00    -0.074 S 
ENDROOT
BRANCH   1   5
ATOM      2  C   UNL     1       0.112  -4.270  -0.035  0.00  0.00    +0.182 A 
ATOM      3  N   UNL     1       0.117  -5.052   1.054  0.00  0.00    -0.201 NA
ATOM      4  H   UNL     1       0.139  -7.159  -1.214  0.00  0.00    +0.191 HD
ATOM      5  C   UNL     1       0.129  -6.316   0.690  0.00  0.00    +0.185 A 
ATOM      6  N   UNL     1       0.131  -6.362  -0.661  0.00  0.00    -0.253 N 
ATOM      7  N   UNL     1       0.115  -5.031  -1.106  0.00  0.00    -0.152 NA
BRANCH   2  12
ATOM      8  C   UNL     1       0.059   1.490  -0.020  0.00  0.00    +0.044 C 
ATOM      9  C   UNL     1       0.073  -0.017  -0.024  0.00  0.00    -0.050 A 
ATOM     10  C   UNL     1       0.082  -0.703  -1.225  0.00  0.00    +0.004 A 
ATOM     11  C   UNL     1       0.095  -2.083  -1.235  0.00  0.00    +0.012 A 
ATOM     12  C   UNL     1       0.099  -2.786  -0.031  0.00  0.00    +0.021 A 
ATOM     13  C   UNL     1       0.090  -2.090   1.176  0.00  0.00    +0.012 A 
ATOM     14  C   UNL     1       0.083  -0.710   1.174  0.00  0.00    +0.004 A 
ENDBRANCH   2  12
ENDBRANCH   1   5
BRANCH   1  15
ATOM     15  C   UNL     1       0.131  -6.968   3.431  0.00  0.00    +0.137 C 
ATOM     16  C   UNL     1      -1.184  -6.216   3.648  0.00  0.00    +0.029 C 
BRANCH  15  17
ATOM     17  C   UNL     1       0.263  -8.057   4.465  0.00  0.00    +0.230 C 
ATOM     18  O   UNL     1      -0.006  -9.204   4.176  0.00  0.00    -0.274 OA
ATOM     19  N   UNL     1       0.680  -7.756   5.711  0.00  0.00    -0.282 N 
ATOM     20  H   UNL     1       0.956  -6.851   5.925  0.00  0.00    +0.155 HD
BRANCH  19  21
ATOM     21  C   UNL     1       0.714  -8.749   6.697  0.00  0.00    +0.070 A 
ATOM     22  C   UNL     1       1.032 -10.057   6.357  0.00  0.00    +0.046 A 
ATOM     23  C   UNL     1       1.065 -11.035   7.333  0.00  0.00    +0.043 A 
ATOM     24  C   UNL     1       0.780 -10.713   8.648  0.00  0.00    +0.023 A 
ATOM     25  C   UNL     1       0.462  -9.412   8.991  0.00  0.00    +0.041 A 
ATOM     26  C   UNL     1       0.433  -8.427   8.021  0.00  0.00    +0.145 A 
ATOM     27  F   UNL     1       0.128  -7.155   8.357  0.00  0.00    -0.204 F 
ATOM     28 CL   UNL     1       1.463 -12.671   6.907  0.00  0.00    -0.083 Cl
ENDBRANCH  19  21
ENDBRANCH  15  17
ENDBRANCH   1  15
TORSDOF 5
