REMARK  Name = ZINC12569135
REMARK  8 active torsions:
REMARK  status: ('A' for Active; 'I' for Inactive)
REMARK    1  A    between atoms: C_1  and  C_2
REMARK    2  A    between atoms: C_2  and  C_3
REMARK    3  A    between atoms: C_3  and  C_4
REMARK    4  A    between atoms: C_3  and  C_5
REMARK    5  A    between atoms: C_3  and  C_6
REMARK    6  A    between atoms: C_9  and  N_12
REMARK    7  A    between atoms: C_13  and  C_15
REMARK    8  A    between atoms: C_15  and  N_16
REMARK                            x       y       z     vdW  Elec       q    Type
REMARK                         _______ _______ _______ _____ _____    ______ ____
ROOT
ATOM      1  N   UNL     1      -0.011   0.966   0.007  0.00  0.00    -0.311 N 
ATOM      2  C   UNL     1      -1.187   1.624   0.017  0.00  0.00    +0.231 C 
ATOM      3  O   UNL     1      -1.204   2.837   0.023  0.00  0.00    -0.274 OA
ATOM      4  H   UNL     1       0.002  -0.004   0.002  0.00  0.00    +0.149 HD
ENDROOT
BRANCH   1   8
ATOM      5  C   UNL     1       4.035   2.010  -0.853  0.00  0.00    -0.005 C 
ATOM      6  C   UNL     1       3.675   1.633   0.585  0.00  0.00    +0.006 C 
ATOM      7  C   UNL     1       2.361   0.850   0.594  0.00  0.00    +0.022 C 
ATOM      8  C   UNL     1       1.248   1.716  -0.001  0.00  0.00    +0.073 C 
ATOM      9  C   UNL     1       1.608   2.092  -1.439  0.00  0.00    +0.022 C 
ATOM     10  C   UNL     1       2.922   2.875  -1.448  0.00  0.00    +0.006 C 
BRANCH   5  11
ATOM     11  C   UNL     1       5.349   2.793  -0.862  0.00  0.00    -0.032 C 
ATOM     12  C   UNL     1       5.191   4.064  -0.026  0.00  0.00    +0.011 C 
ATOM     13  C   UNL     1       6.462   1.927  -0.267  0.00  0.00    +0.011 C 
BRANCH  11  15
ATOM     14  C   UNL     1       7.024   3.952  -2.308  0.00  0.00    +0.004 C 
ATOM     15  C   UNL     1       5.710   3.169  -2.300  0.00  0.00    +0.003 C 
ENDBRANCH  11  15
ENDBRANCH   5  11
ENDBRANCH   1   8
BRANCH   2  16
ATOM     16  C   UNL     1      -2.482   0.853   0.018  0.00  0.00    +0.213 C 
BRANCH  16  17
ATOM     17  N   UNL     1      -3.608   1.789   0.029  0.00  0.00    -0.215 N 
ATOM     18  C   UNL     1      -4.197   2.281  -1.083  0.00  0.00    +0.247 C 
ATOM     19  O   UNL     1      -3.908   2.042  -2.235  0.00  0.00    -0.273 OA
ATOM     20  C   UNL     1      -5.292   3.190  -0.584  0.00  0.00    +0.113 C 
ATOM     21  C   UNL     1      -6.667   2.720  -1.077  0.00  0.00    +0.035 C 
ATOM     22  C   UNL     1      -7.450   4.038  -1.312  0.00  0.00    +0.003 C 
ATOM     23  C   UNL     1      -6.364   4.989  -1.874  0.00  0.00    +0.003 C 
ATOM     24  C   UNL     1      -5.091   4.624  -1.079  0.00  0.00    +0.035 C 
ATOM     25  N   UNL     1      -5.198   3.110   0.875  0.00  0.00    -0.285 N 
ATOM     26  C   UNL     1      -4.186   2.260   1.142  0.00  0.00    +0.310 C 
ATOM     27  O   UNL     1      -3.834   1.958   2.265  0.00  0.00    -0.252 OA
ATOM     28  H   UNL     1      -5.755   3.572   1.521  0.00  0.00    +0.151 HD
ENDBRANCH  16  17
ENDBRANCH   2  16
TORSDOF 5
