REMARK  Name = ZINC11845922
REMARK  8 active torsions:
REMARK  status: ('A' for Active; 'I' for Inactive)
REMARK    1  A    between atoms: C_1  and  N_2
REMARK    2  A    between atoms: C_6  and  C_7
REMARK    3  A    between atoms: C_7  and  C_9
REMARK    4  A    between atoms: C_7  and  N_56
REMARK    5  A    between atoms: C_9  and  N_10
REMARK    6  A    between atoms: C_11  and  C_13
REMARK    7  A    between atoms: C_13  and  O_14
REMARK    8  A    between atoms: O_14  and  C_15
REMARK                            x       y       z     vdW  Elec       q    Type
REMARK                         _______ _______ _______ _____ _____    ______ ____
ROOT
ATOM      1  C   UNL     1      -0.099   1.224   4.856  0.00  0.00    -0.003 C 
ENDROOT
BRANCH   1  11
ATOM      2  C   UNL     1       1.846   1.911   3.584  0.00  0.00    -0.073 C 
ATOM      3  C   UNL     1       3.138   2.716   3.721  0.00  0.00    +0.017 C 
ATOM      4  C   UNL     1       4.043   2.067   4.737  0.00  0.00    -0.048 A 
ATOM      5  C   UNL     1       5.383   2.425   4.753  0.00  0.00    +0.004 A 
ATOM      6  C   UNL     1       6.244   1.861   5.673  0.00  0.00    +0.000 A 
ATOM      7  C   UNL     1       5.769   0.934   6.582  0.00  0.00    +0.000 A 
ATOM      8  C   UNL     1       4.436   0.575   6.564  0.00  0.00    +0.002 A 
ATOM      9  C   UNL     1       3.570   1.140   5.640  0.00  0.00    -0.061 A 
ATOM     10  C   UNL     1       2.125   0.713   5.658  0.00  0.00    -0.042 C 
ATOM     11  N   UNL     1       1.300   1.700   4.941  0.00  0.00    +0.389 N 
ATOM     12  H   UNL     1       1.320   2.589   5.452  0.00  0.00    -0.080 HD
ENDBRANCH   1  11
BRANCH   1  18
ATOM     13  C   UNL     1      -2.950   0.282   5.634  0.00  0.00    +0.148 C 
ATOM     14  N   UNL     1      -1.978   0.877   6.556  0.00  0.00    -0.355 N 
ATOM     15  C   UNL     1      -2.179   1.100   7.886  0.00  0.00    +0.085 A 
ATOM     16  C   UNL     1      -1.064   1.663   8.392  0.00  0.00    +0.019 A 
ATOM     17  C   UNL     1      -0.138   1.787   7.337  0.00  0.00    +0.021 A 
ATOM     18  C   UNL     1      -0.723   1.294   6.227  0.00  0.00    +0.006 A 
ENDBRANCH   1  18
BRANCH   1  19
ATOM     19  C   UNL     1      -0.879   2.122   3.894  0.00  0.00    +0.095 C 
BRANCH  19  20
ATOM     20  N   UNL     1      -0.731   3.521   4.304  0.00  0.00    -0.314 N 
ATOM     21  C   UNL     1      -1.254   4.505   3.545  0.00  0.00    +0.251 C 
ATOM     22  O   UNL     1      -1.846   4.232   2.523  0.00  0.00    -0.272 OA
ATOM     23  H   UNL     1      -0.257   3.739   5.122  0.00  0.00    +0.149 HD
BRANCH  21  24
ATOM     24  C   UNL     1      -1.102   5.943   3.967  0.00  0.00    +0.324 C 
BRANCH  24  25
ATOM     25  O   UNL     1      -1.735   6.791   3.007  0.00  0.00    -0.481 OA
BRANCH  25  26
ATOM     26  C   UNL     1      -1.689   8.129   3.239  0.00  0.00    +0.140 A 
ATOM     27  C   UNL     1      -1.048   8.616   4.368  0.00  0.00    +0.048 A 
ATOM     28  C   UNL     1      -1.002   9.977   4.603  0.00  0.00    +0.023 A 
ATOM     29  C   UNL     1      -1.596  10.854   3.713  0.00  0.00    +0.043 A 
ATOM     30  C   UNL     1      -2.237  10.371   2.586  0.00  0.00    +0.043 A 
ATOM     31  C   UNL     1      -2.280   9.011   2.344  0.00  0.00    +0.084 A 
ATOM     32 CL   UNL     1      -3.077   8.405   0.926  0.00  0.00    -0.080 Cl
ATOM     33 CL   UNL     1      -1.537  12.564   4.011  0.00  0.00    -0.083 Cl
ENDBRANCH  25  26
ENDBRANCH  24  25
ENDBRANCH  21  24
ENDBRANCH  19  20
ENDBRANCH   1  19
TORSDOF 7
