REMARK  Name = ZINC32784639
REMARK  10 active torsions:
REMARK  status: ('A' for Active; 'I' for Inactive)
REMARK    1  A    between atoms: C_4  and  C_7
REMARK    2  A    between atoms: C_7  and  N_8
REMARK    3  A    between atoms: C_9  and  N_36
REMARK    4  A    between atoms: C_10  and  N_17
REMARK    5  A    between atoms: N_17  and  C_18
REMARK    6  A    between atoms: C_18  and  C_19
REMARK    7  A    between atoms: C_19  and  C_20
REMARK    8  A    between atoms: C_26  and  C_28
REMARK    9  A    between atoms: C_28  and  C_29
REMARK   10  A    between atoms: C_29  and  N_30
REMARK                            x       y       z     vdW  Elec       q    Type
REMARK                         _______ _______ _______ _____ _____    ______ ____
ROOT
ATOM      1  N   UNL     1      -0.065   8.634  -4.055  0.00  0.00    -0.276 N 
ATOM      2  C   UNL     1       0.243   7.295  -4.013  0.00  0.00    +0.128 A 
ATOM      3  C   UNL     1      -0.735   6.368  -4.314  0.00  0.00    +0.140 A 
ATOM      4  C   UNL     1      -2.025   6.825  -4.643  0.00  0.00    +0.277 A 
ATOM      5  O   UNL     1      -2.909   6.028  -4.908  0.00  0.00    -0.266 OA
ATOM      6  N   UNL     1      -2.276   8.149  -4.664  0.00  0.00    -0.273 N 
ATOM      7  H   UNL     1      -3.281   8.514  -4.920  0.00  0.00    +0.173 HD
ATOM      8  C   UNL     1      -1.309   9.037  -4.373  0.00  0.00    +0.331 A 
ATOM      9  O   UNL     1      -1.563  10.226  -4.400  0.00  0.00    -0.246 OA
ENDROOT
BRANCH   3  10
ATOM     10  N   UNL     1      -0.448   4.987  -4.285  0.00  0.00    -0.264 N 
ATOM     11  C   UNL     1      -0.483   4.267  -5.426  0.00  0.00    +0.221 C 
ATOM     12  O   UNL     1      -0.666   4.824  -6.489  0.00  0.00    -0.275 OA
BRANCH  10  13
ATOM     13  C   UNL     1      -0.112   4.335  -3.018  0.00  0.00    +0.118 C 
BRANCH  13  14
ATOM     14  C   UNL     1      -1.398   3.926  -2.297  0.00  0.00    +0.050 C 
BRANCH  14  15
ATOM     15  C   UNL     1      -1.052   3.255  -0.993  0.00  0.00    -0.072 C 
ATOM     16  C   UNL     1      -1.035   3.982   0.078  0.00  0.00    -0.028 C 
ATOM     17  C   UNL     1      -0.700   3.459   1.444  0.00  0.00    +0.027 C 
ATOM     18  C   UNL     1      -0.800   1.933   1.467  0.00  0.00    +0.004 C 
ATOM     19  C   UNL     1      -0.023   1.377   0.267  0.00  0.00    +0.005 C 
ATOM     20  C   UNL     1      -0.749   1.786  -1.017  0.00  0.00    +0.030 C 
ENDBRANCH  14  15
ENDBRANCH  13  14
ENDBRANCH  10  13
BRANCH  11  21
ATOM     21  C   UNL     1      -0.295   2.773  -5.380  0.00  0.00    +0.115 C 
BRANCH  21  22
ATOM     22  C   UNL     1      -0.380   2.204  -6.798  0.00  0.00    +0.118 C 
BRANCH  22  23
ATOM     23  N   UNL     1      -0.197   0.752  -6.754  0.00  0.00    -0.291 N 
ATOM     24  C   UNL     1       1.131   0.196  -6.872  0.00  0.00    +0.119 C 
ATOM     25  C   UNL     1       1.156  -1.345  -6.802  0.00  0.00    +0.098 C 
ATOM     26  S   UNL     1      -0.630  -1.709  -6.603  0.00  0.00    -0.066 S 
ATOM     27  C   UNL     1      -1.265  -0.045  -6.610  0.00  0.00    +0.275 C 
ATOM     28  O   UNL     1      -2.428   0.297  -6.506  0.00  0.00    -0.263 OA
ENDBRANCH  22  23
ENDBRANCH  21  22
ENDBRANCH  11  21
ENDBRANCH   3  10
BRANCH   2  29
ATOM     29  N   UNL     1       1.512   6.883  -3.682  0.00  0.00    -0.343 N 
ATOM     30  H   UNL     1       1.752   5.810  -3.651  0.00  0.00    +0.144 HD
ATOM     31  H   UNL     1       2.288   7.627  -3.448  0.00  0.00    +0.144 HD
ENDBRANCH   2  29
BRANCH   1  32
ATOM     32  C   UNL     1       0.965   9.629  -3.743  0.00  0.00    +0.163 C 
BRANCH  32  36
ATOM     33  C   UNL     1       0.924  10.457   0.447  0.00  0.00    +0.000 A 
ATOM     34  C   UNL     1       1.724   9.445  -0.050  0.00  0.00    +0.000 A 
ATOM     35  C   UNL     1       1.737   9.177  -1.406  0.00  0.00    +0.005 A 
ATOM     36  C   UNL     1       0.950   9.921  -2.265  0.00  0.00    -0.028 A 
ATOM     37  C   UNL     1       0.155  10.937  -1.769  0.00  0.00    +0.005 A 
ATOM     38  C   UNL     1       0.138  11.201  -0.412  0.00  0.00    +0.000 A 
ENDBRANCH  32  36
ENDBRANCH   1  32
TORSDOF 10
