REMARK  Name = ZINC02647879
REMARK  8 active torsions:
REMARK  status: ('A' for Active; 'I' for Inactive)
REMARK    1  A    between atoms: C_1  and  O_2
REMARK    2  A    between atoms: O_2  and  C_3
REMARK    3  A    between atoms: C_5  and  C_13
REMARK    4  A    between atoms: C_7  and  O_11
REMARK    5  A    between atoms: C_8  and  O_9
REMARK    6  A    between atoms: O_9  and  C_10
REMARK    7  A    between atoms: O_11  and  C_12
REMARK    8  A    between atoms: C_25  and  C_28
REMARK                            x       y       z     vdW  Elec       q    Type
REMARK                         _______ _______ _______ _____ _____    ______ ____
ROOT
ATOM      1  C   UNL     1      -1.333   2.112   0.020  0.00  0.00    +0.007 C 
ATOM      2  C   UNL     1      -1.637   2.589   1.420  0.00  0.00    +0.011 A 
ATOM      3  C   UNL     1      -2.117   3.824   1.690  0.00  0.00    -0.015 A 
ATOM      4  C   UNL     1      -2.279   3.916   3.124  0.00  0.00    +0.004 A 
ATOM      5  C   UNL     1      -2.728   4.937   3.967  0.00  0.00    +0.010 A 
ATOM      6  C   UNL     1      -2.749   4.667   5.313  0.00  0.00    +0.001 A 
ATOM      7  C   UNL     1      -2.347   3.445   5.825  0.00  0.00    +0.002 A 
ATOM      8  C   UNL     1      -1.898   2.417   5.015  0.00  0.00    +0.026 A 
ATOM      9  C   UNL     1      -1.865   2.662   3.644  0.00  0.00    +0.047 A 
ATOM     10  N   UNL     1      -1.486   1.887   2.585  0.00  0.00    -0.359 N 
ATOM     11  H   UNL     1      -1.160   0.976   2.649  0.00  0.00    +0.166 HD
ATOM     12  C   UNL     1      -2.402   4.856   0.628  0.00  0.00    +0.036 C 
ATOM     13  C   UNL     1      -2.439   4.141  -0.730  0.00  0.00    -0.068 C 
ATOM     14  N   UNL     1      -1.242   3.288  -0.874  0.00  0.00    +0.388 N 
ATOM     15  H   UNL     1      -1.170   2.968  -1.847  0.00  0.00    -0.084 HD
ATOM     16  H   UNL     1      -0.407   3.833  -0.630  0.00  0.00    -0.084 HD
ENDROOT
BRANCH  12  17
ATOM     17  C   UNL     1      -3.733   5.509   0.896  0.00  0.00    -0.023 A 
ATOM     18  C   UNL     1      -4.881   4.741   0.954  0.00  0.00    +0.007 A 
ATOM     19  C   UNL     1      -6.101   5.338   1.206  0.00  0.00    +0.020 A 
ATOM     20  C   UNL     1      -6.177   6.708   1.389  0.00  0.00    +0.042 A 
ATOM     21  C   UNL     1      -5.030   7.478   1.325  0.00  0.00    +0.040 A 
ATOM     22  C   UNL     1      -3.807   6.878   1.079  0.00  0.00    +0.046 A 
ATOM     23 CL   UNL     1      -2.367   7.844   0.998  0.00  0.00    -0.083 Cl
ATOM     24 CL   UNL     1      -7.711   7.459   1.699  0.00  0.00    -0.083 Cl
ENDBRANCH  12  17
BRANCH   1  27
ATOM     25  C   UNL     1       1.211  -0.683  -0.014  0.00  0.00    +0.165 A 
ATOM     26  C   UNL     1       0.002  -0.004   0.002  0.00  0.00    +0.052 A 
ATOM     27  C   UNL     1      -0.017   1.378   0.010  0.00  0.00    -0.049 A 
ATOM     28  C   UNL     1       1.169   2.089   0.002  0.00  0.00    +0.052 A 
ATOM     29  C   UNL     1       2.382   1.418  -0.013  0.00  0.00    +0.165 A 
ATOM     30  C   UNL     1       2.405   0.028  -0.021  0.00  0.00    +0.204 A 
BRANCH  25  32
ATOM     31  C   UNL     1      -0.036  -2.708  -0.012  0.00  0.00    +0.277 C 
ATOM     32  O   UNL     1       1.229  -2.043  -0.021  0.00  0.00    -0.491 OA
ENDBRANCH  25  32
BRANCH  30  33
ATOM     33  O   UNL     1       3.594  -0.634  -0.037  0.00  0.00    -0.488 OA
ATOM     34  C   UNL     1       4.148  -0.942  -1.318  0.00  0.00    +0.277 C 
ENDBRANCH  30  33
BRANCH  29  35
ATOM     35  O   UNL     1       3.548   2.119  -0.021  0.00  0.00    -0.491 OA
ATOM     36  C   UNL     1       3.448   3.544  -0.011  0.00  0.00    +0.277 C 
ENDBRANCH  29  35
ENDBRANCH   1  27
TORSDOF 5
