REMARK  Name = ZINC09596479
REMARK  8 active torsions:
REMARK  status: ('A' for Active; 'I' for Inactive)
REMARK    1  A    between atoms: C_1  and  C_2
REMARK    2  A    between atoms: C_2  and  C_4
REMARK    3  A    between atoms: C_2  and  N_58
REMARK    4  A    between atoms: N_6  and  C_7
REMARK    5  A    between atoms: C_8  and  C_15
REMARK    6  A    between atoms: N_20  and  S_23
REMARK    7  A    between atoms: S_23  and  C_26
REMARK    8  A    between atoms: C_31  and  C_32
REMARK                            x       y       z     vdW  Elec       q    Type
REMARK                         _______ _______ _______ _____ _____    ______ ____
ROOT
ATOM      1  C   UNL     1      -1.569   0.759  -5.415  0.00  0.00    -0.004 C 
ATOM      2  C   UNL     1      -1.582   2.270  -5.172  0.00  0.00    +0.017 C 
ENDROOT
BRANCH   2   8
ATOM      3  C   UNL     1      -3.949   2.644  -5.517  0.00  0.00    -0.060 C 
ATOM      4  C   UNL     1      -4.961   3.458  -6.332  0.00  0.00    +0.091 C 
ATOM      5  N   UNL     1      -4.770   3.148  -7.757  0.00  0.00    -0.180 NA
ATOM      6  C   UNL     1      -3.412   3.244  -8.314  0.00  0.00    +0.091 C 
ATOM      7  C   UNL     1      -2.462   2.439  -7.422  0.00  0.00    -0.060 C 
ATOM      8  N   UNL     1      -2.591   2.925  -6.031  0.00  0.00    +0.389 N 
ATOM      9  H   UNL     1      -2.433   3.939  -6.017  0.00  0.00    -0.081 HD
BRANCH   5  10
ATOM     10  S   UNL     1      -6.050   2.704  -8.709  0.00  0.00    +0.062 S 
ATOM     11  O   UNL     1      -7.227   3.090  -8.012  0.00  0.00    -0.153 OA
ATOM     12  O   UNL     1      -5.758   3.162 -10.022  0.00  0.00    -0.153 OA
BRANCH  10  13
ATOM     13  C   UNL     1      -6.061   0.944  -8.779  0.00  0.00    +0.123 A 
ATOM     14  C   UNL     1      -5.784   0.297  -9.967  0.00  0.00    +0.030 A 
ATOM     15  C   UNL     1      -5.788  -1.085 -10.023  0.00  0.00    +0.002 A 
ATOM     16  C   UNL     1      -6.078  -1.829  -8.893  0.00  0.00    +0.001 A 
ATOM     17  C   UNL     1      -6.362  -1.196  -7.700  0.00  0.00    +0.021 A 
ATOM     18  C   UNL     1      -6.355   0.199  -7.635  0.00  0.00    +0.078 A 
BRANCH  18  19
ATOM     19  C   UNL     1      -6.649   0.863  -6.401  0.00  0.00    +0.101 C 
ATOM     20  N   UNL     1      -6.882   1.390  -5.422  0.00  0.00    -0.191 NA
ENDBRANCH  18  19
ENDBRANCH  10  13
ENDBRANCH   5  10
ENDBRANCH   2   8
BRANCH   2  21
ATOM     21  C   UNL     1      -0.227   2.843  -5.497  0.00  0.00    +0.204 C 
ATOM     22  O   UNL     1      -0.084   3.547  -6.474  0.00  0.00    -0.277 OA
ATOM     23  N   UNL     1       0.827   2.572  -4.701  0.00  0.00    -0.281 N 
ATOM     24  H   UNL     1       0.713   2.009  -3.920  0.00  0.00    +0.155 HD
BRANCH  23  25
ATOM     25  C   UNL     1       2.075   3.099  -5.000  0.00  0.00    +0.084 A 
ATOM     26  C   UNL     1       3.264   2.937  -4.311  0.00  0.00    +0.068 A 
ATOM     27  C   UNL     1       4.452   3.602  -4.846  0.00  0.00    -0.023 A 
ATOM     28  C   UNL     1       4.251   4.315  -5.968  0.00  0.00    -0.004 A 
ATOM     29  S   UNL     1       2.522   4.122  -6.323  0.00  0.00    -0.077 S 
ATOM     30  C   UNL     1       5.517   4.964  -6.459  0.00  0.00    +0.043 C 
ATOM     31  C   UNL     1       6.650   4.212  -5.725  0.00  0.00    +0.010 C 
ATOM     32  C   UNL     1       5.927   3.716  -4.457  0.00  0.00    +0.037 C 
BRANCH  26  33
ATOM     33  C   UNL     1       3.333   2.123  -3.094  0.00  0.00    +0.244 C 
ATOM     34  O   UNL     1       3.146   2.638  -2.007  0.00  0.00    -0.270 OA
ATOM     35  N   UNL     1       3.597   0.804  -3.179  0.00  0.00    -0.325 N 
ATOM     36  H   UNL     1       3.638   0.265  -2.373  0.00  0.00    +0.145 HD
ATOM     37  H   UNL     1       3.746   0.394  -4.045  0.00  0.00    +0.145 HD
ENDBRANCH  26  33
ENDBRANCH  23  25
ENDBRANCH   2  21
TORSDOF 7
