REMARK  Name = ZINC65397355
REMARK  5 active torsions:
REMARK  status: ('A' for Active; 'I' for Inactive)
REMARK    1  A    between atoms: C_4  and  C_7
REMARK    2  A    between atoms: C_9  and  C_22
REMARK    3  A    between atoms: N_11  and  C_14
REMARK    4  A    between atoms: C_14  and  C_15
REMARK    5  A    between atoms: C_15  and  C_16
REMARK                            x       y       z     vdW  Elec       q    Type
REMARK                         _______ _______ _______ _____ _____    ______ ____
ROOT
ATOM      1  C   UNL     1       3.711  -0.707  -0.038  0.00  0.00    +0.135 C 
ATOM      2  C   UNL     1       4.052  -1.241   1.369  0.00  0.00    +0.131 C 
ATOM      3  N   UNL     1       4.104  -2.699   1.167  0.00  0.00    -0.313 N 
ATOM      4  C   UNL     1       3.837  -2.961  -0.143  0.00  0.00    +0.155 C 
ATOM      5  N   UNL     1       3.613  -1.919  -0.863  0.00  0.00    -0.370 N 
ATOM      6  H   UNL     1       3.409  -1.930  -1.811  0.00  0.00    +0.161 HD
ENDROOT
BRANCH   2   7
ATOM      7  C   UNL     1       5.387  -0.715   1.829  0.00  0.00    -0.021 A 
ATOM      8  C   UNL     1       6.553  -1.300   1.373  0.00  0.00    +0.009 A 
ATOM      9  C   UNL     1       7.780  -0.821   1.794  0.00  0.00    +0.050 A 
ATOM     10  C   UNL     1       7.843   0.248   2.675  0.00  0.00    +0.162 A 
ATOM     11  C   UNL     1       6.670   0.838   3.132  0.00  0.00    +0.162 A 
ATOM     12  C   UNL     1       5.443   0.355   2.702  0.00  0.00    +0.055 A 
ATOM     13  O   UNL     1       6.710   1.893   3.991  0.00  0.00    -0.485 OA
ATOM     14  C   UNL     1       7.943   2.112   4.684  0.00  0.00    +0.270 C 
ATOM     15  C   UNL     1       9.089   2.013   3.669  0.00  0.00    +0.270 C 
ATOM     16  O   UNL     1       9.058   0.706   3.084  0.00  0.00    -0.485 OA
ENDBRANCH   2   7
BRANCH   1  20
ATOM     17  C   UNL     1      -0.017   1.378   0.010  0.00  0.00    +0.000 A 
ATOM     18  C   UNL     1       1.171   2.086   0.002  0.00  0.00    +0.000 A 
ATOM     19  C   UNL     1       2.377   1.411  -0.013  0.00  0.00    +0.006 A 
ATOM     20  C   UNL     1       2.396   0.029  -0.020  0.00  0.00    -0.023 A 
ATOM     21  C   UNL     1       1.208  -0.679  -0.012  0.00  0.00    +0.006 A 
ATOM     22  C   UNL     1       0.002  -0.004   0.002  0.00  0.00    +0.000 A 
ENDBRANCH   1  20
BRANCH   3  23
ATOM     23  C   UNL     1       4.394  -3.697   2.200  0.00  0.00    +0.113 C 
BRANCH  23  24
ATOM     24  C   UNL     1       3.088  -4.137   2.865  0.00  0.00    +0.073 C 
BRANCH  24  25
ATOM     25  C   UNL     1       3.386  -5.164   3.927  0.00  0.00    +0.035 A 
ATOM     26  H   UNL     1       4.174  -6.260   6.739  0.00  0.00    +0.166 HD
ATOM     27  C   UNL     1       3.743  -4.906   5.199  0.00  0.00    +0.105 A 
ATOM     28  N   UNL     1       3.916  -6.116   5.815  0.00  0.00    -0.352 N 
ATOM     29  C   UNL     1       3.658  -7.072   4.897  0.00  0.00    +0.171 A 
ATOM     30  N   UNL     1       3.337  -6.496   3.771  0.00  0.00    -0.350 N 
ATOM     31  H   UNL     1       3.102  -6.957   2.951  0.00  0.00    +0.166 HD
ENDBRANCH  24  25
ENDBRANCH  23  24
ENDBRANCH   3  23
TORSDOF 5
