REMARK  Name = ZINC04788438
REMARK  8 active torsions:
REMARK  status: ('A' for Active; 'I' for Inactive)
REMARK    1  A    between atoms: C_1  and  C_2
REMARK    2  A    between atoms: C_2  and  C_3
REMARK    3  A    between atoms: C_2  and  C_4
REMARK    4  A    between atoms: C_4  and  N_5
REMARK    5  A    between atoms: C_7  and  C_20
REMARK    6  A    between atoms: N_15  and  C_19
REMARK    7  A    between atoms: N_22  and  C_23
REMARK    8  A    between atoms: C_23  and  C_24
REMARK                            x       y       z     vdW  Elec       q    Type
REMARK                         _______ _______ _______ _____ _____    ______ ____
ROOT
ATOM      1  N   UNL     1      -0.846   3.479   1.191  0.00  0.00    -0.313 N 
ATOM      2  C   UNL     1       0.141   4.237   1.725  0.00  0.00    +0.103 A 
ATOM      3  C   UNL     1       0.052   5.601   1.727  0.00  0.00    +0.063 A 
ATOM      4  C   UNL     1      -1.141   6.229   1.149  0.00  0.00    +0.026 A 
ATOM      5  C   UNL     1      -1.587   7.614   0.976  0.00  0.00    +0.009 A 
ATOM      6  C   UNL     1      -1.036   8.855   1.303  0.00  0.00    +0.010 A 
ATOM      7  C   UNL     1      -1.716  10.002   1.004  0.00  0.00    +0.001 A 
ATOM      8  C   UNL     1      -2.953   9.944   0.377  0.00  0.00    +0.002 A 
ATOM      9  C   UNL     1      -3.515   8.732   0.045  0.00  0.00    +0.026 A 
ATOM     10  C   UNL     1      -2.841   7.549   0.341  0.00  0.00    +0.050 A 
ATOM     11  N   UNL     1      -3.150   6.222   0.133  0.00  0.00    -0.339 N 
ATOM     12  C   UNL     1      -2.135   5.416   0.615  0.00  0.00    +0.116 A 
ATOM     13  C   UNL     1      -1.954   4.015   0.652  0.00  0.00    +0.276 A 
ATOM     14  O   UNL     1      -2.813   3.284   0.190  0.00  0.00    -0.265 OA
ATOM     15  C   UNL     1      -4.376   5.737  -0.505  0.00  0.00    +0.149 C 
ENDROOT
BRANCH   3  16
ATOM     16  C   UNL     1       1.130   6.423   2.303  0.00  0.00    +0.246 C 
ATOM     17  O   UNL     1       1.098   7.633   2.190  0.00  0.00    -0.270 OA
ATOM     18  N   UNL     1       2.151   5.834   2.956  0.00  0.00    -0.308 N 
ATOM     19  H   UNL     1       2.216   4.866   2.983  0.00  0.00    +0.149 HD
BRANCH  18  20
ATOM     20  C   UNL     1       3.164   6.654   3.624  0.00  0.00    +0.152 C 
BRANCH  20  21
ATOM     21  C   UNL     1       4.204   5.745   4.283  0.00  0.00    +0.228 C 
ATOM     22  C   UNL     1       5.214   6.596   5.064  0.00  0.00    +0.275 C 
ATOM     23  O   UNL     1       6.177   5.717   5.656  0.00  0.00    -0.485 OA
ATOM     24  C   UNL     1       6.693   4.746   4.853  0.00  0.00    +0.162 A 
ATOM     25  C   UNL     1       7.863   4.103   5.229  0.00  0.00    +0.049 A 
ATOM     26  C   UNL     1       8.397   3.113   4.426  0.00  0.00    +0.004 A 
ATOM     27  C   UNL     1       7.767   2.761   3.247  0.00  0.00    +0.004 A 
ATOM     28  C   UNL     1       6.601   3.398   2.866  0.00  0.00    +0.049 A 
ATOM     29  C   UNL     1       6.061   4.394   3.667  0.00  0.00    +0.163 A 
ATOM     30  O   UNL     1       4.915   5.016   3.277  0.00  0.00    -0.480 OA
ENDBRANCH  20  21
ENDBRANCH  18  20
ENDBRANCH   3  16
BRANCH   1  31
ATOM     31  C   UNL     1      -0.704   2.021   1.208  0.00  0.00    +0.128 C 
BRANCH  31  33
ATOM     32  C   UNL     1       0.034   0.034  -0.115  0.00  0.00    +0.009 C 
ATOM     33  C   UNL     1      -0.004   1.562  -0.074  0.00  0.00    +0.003 C 
ATOM     34  C   UNL     1       1.425   2.109  -0.098  0.00  0.00    +0.009 C 
ENDBRANCH  31  33
ENDBRANCH   1  31
TORSDOF 5
