REMARK  Name = ZINC06831047
REMARK  6 active torsions:
REMARK  status: ('A' for Active; 'I' for Inactive)
REMARK    1  A    between atoms: C_1  and  N_2
REMARK    2  A    between atoms: N_2  and  C_3
REMARK    3  A    between atoms: N_2  and  S_4
REMARK    4  A    between atoms: S_4  and  C_7
REMARK    5  A    between atoms: C_10  and  N_13
REMARK    6  A    between atoms: N_13  and  C_14
REMARK                            x       y       z     vdW  Elec       q    Type
REMARK                         _______ _______ _______ _____ _____    ______ ____
ROOT
ATOM      1  N   UNL     1      -0.068  -2.624   2.322  0.00  0.00    -0.325 N 
ATOM      2  H   UNL     1      -0.304  -2.778   1.394  0.00  0.00    +0.148 HD
ENDROOT
BRANCH   1   3
ATOM      3  C   UNL     1      -0.002  -1.257   2.843  0.00  0.00    +0.221 C 
ATOM      4  C   UNL     1       0.692  -0.370   1.846  0.00  0.00    +0.248 C 
ATOM      5  O   UNL     1       1.883  -0.184   1.975  0.00  0.00    -0.272 OA
ATOM      6  N   UNL     1       0.070   0.223   0.830  0.00  0.00    -0.282 N 
ATOM      7  C   UNL     1      -1.283   0.119   0.518  0.00  0.00    +0.047 A 
ATOM      8  C   UNL     1      -1.712   0.400  -0.774  0.00  0.00    +0.024 A 
ATOM      9  C   UNL     1      -3.051   0.311  -1.098  0.00  0.00    +0.002 A 
ATOM     10  C   UNL     1      -3.980  -0.059  -0.143  0.00  0.00    +0.001 A 
ATOM     11  C   UNL     1      -3.568  -0.344   1.146  0.00  0.00    +0.016 A 
ATOM     12  C   UNL     1      -2.226  -0.257   1.476  0.00  0.00    +0.031 A 
ATOM     13  S   UNL     1      -1.686  -0.626   3.115  0.00  0.00    -0.092 S 
ATOM     14  H   UNL     1       0.612   0.781   0.250  0.00  0.00    +0.155 HD
ENDBRANCH   1   3
BRANCH   1  18
ATOM     15  C   UNL     1       0.754  -5.849   4.825  0.00  0.00    +0.106 A 
ATOM     16  C   UNL     1       0.666  -4.572   5.350  0.00  0.00    +0.030 A 
ATOM     17  C   UNL     1       0.394  -3.501   4.523  0.00  0.00    +0.025 A 
ATOM     18  C   UNL     1       0.208  -3.706   3.161  0.00  0.00    +0.028 A 
ATOM     19  C   UNL     1       0.291  -4.990   2.638  0.00  0.00    +0.025 A 
ATOM     20  C   UNL     1       0.569  -6.056   3.470  0.00  0.00    +0.030 A 
BRANCH  15  21
ATOM     21  S   UNL     1       1.102  -7.213   5.884  0.00  0.00    +0.060 S 
ATOM     22  O   UNL     1       1.671  -8.227   5.066  0.00  0.00    -0.153 OA
ATOM     23  O   UNL     1       1.773  -6.685   7.020  0.00  0.00    -0.153 OA
BRANCH  21  25
ATOM     24  C   UNL     1      -1.045  -8.843   5.665  0.00  0.00    +0.131 C 
ATOM     25  N   UNL     1      -0.350  -7.798   6.422  0.00  0.00    -0.183 NA
ATOM     26  C   UNL     1      -0.941  -7.272   7.655  0.00  0.00    +0.131 C 
ENDBRANCH  21  25
ENDBRANCH  15  21
ENDBRANCH   1  18
TORSDOF 4
