REMARK  Name = ZINC35493937
REMARK  7 active torsions:
REMARK  status: ('A' for Active; 'I' for Inactive)
REMARK    1  A    between atoms: C_1  and  C_2
REMARK    2  A    between atoms: C_9  and  O_20
REMARK    3  A    between atoms: C_12  and  C_14
REMARK    4  A    between atoms: C_23  and  O_39
REMARK    5  A    between atoms: C_24  and  C_31
REMARK    6  A    between atoms: C_27  and  O_30
REMARK    7  A    between atoms: N_32  and  C_33
REMARK                            x       y       z     vdW  Elec       q    Type
REMARK                         _______ _______ _______ _____ _____    ______ ____
ROOT
ATOM      1  C   UNL     1       0.874   1.632   0.808  0.00  0.00    +0.014 C 
ATOM      2  C   UNL     1       0.855   0.102   0.848  0.00  0.00    +0.004 C 
ATOM      3  C   UNL     1      -0.577  -0.391   0.909  0.00  0.00    +0.010 C 
ATOM      4  C   UNL     1      -1.244   0.286   2.118  0.00  0.00    +0.005 C 
ATOM      5  C   UNL     1      -0.488  -0.012   3.409  0.00  0.00    +0.009 C 
ATOM      6  C   UNL     1       0.990   0.394   3.303  0.00  0.00    +0.025 C 
ATOM      7  C   UNL     1       1.574  -0.399   2.129  0.00  0.00    +0.075 C 
ATOM      8  C   UNL     1       3.041  -0.108   1.795  0.00  0.00    +0.036 C 
ATOM      9  C   UNL     1       3.151  -0.540   0.307  0.00  0.00    +0.011 C 
ATOM     10  C   UNL     1       1.719  -0.454  -0.279  0.00  0.00    +0.027 C 
ATOM     11  C   UNL     1       1.703   0.042   4.609  0.00  0.00    +0.009 C 
ATOM     12  C   UNL     1       1.050   0.800   5.766  0.00  0.00    +0.036 C 
ATOM     13  C   UNL     1      -0.424   0.405   5.870  0.00  0.00    +0.079 C 
ATOM     14  C   UNL     1      -1.122   0.747   4.574  0.00  0.00    +0.036 C 
ATOM     15  C   UNL     1      -2.600   0.367   4.686  0.00  0.00    +0.018 C 
ATOM     16  C   UNL     1      -3.235   1.122   5.856  0.00  0.00    +0.032 C 
ATOM     17  C   UNL     1      -2.515   0.752   7.153  0.00  0.00    +0.117 C 
ATOM     18  C   UNL     1      -1.077   1.164   7.026  0.00  0.00    +0.067 C 
ENDROOT
BRANCH  10  19
ATOM     19  C   UNL     1       1.696   0.477  -1.464  0.00  0.00    -0.022 C 
ATOM     20  C   UNL     1       2.682   1.277  -1.865  0.00  0.00    +0.094 C 
ATOM     21  C   UNL     1       2.247   2.012  -3.056  0.00  0.00    +0.332 C 
ATOM     22  O   UNL     1       2.920   2.822  -3.663  0.00  0.00    -0.246 OA
ATOM     23  O   UNL     1       0.990   1.655  -3.378  0.00  0.00    -0.457 OA
ATOM     24  C   UNL     1       0.551   0.678  -2.428  0.00  0.00    +0.264 C 
ENDBRANCH  10  19
BRANCH  14  25
ATOM     25  C   UNL     1      -1.000   2.230   4.335  0.00  0.00    +0.060 C 
ATOM     26  N   UNL     1      -2.043   2.926   4.081  0.00  0.00    -0.390 N 
ATOM     27  H   UNL     1      -2.898   2.487   3.947  0.00  0.00    +0.159 HD
BRANCH  26  28
ATOM     28  C   UNL     1      -1.947   4.385   3.992  0.00  0.00    +0.078 C 
ATOM     29  C   UNL     1      -2.857   5.021   5.044  0.00  0.00    +0.024 C 
ATOM     30  C   UNL     1      -2.757   6.545   4.951  0.00  0.00    +0.002 C 
ATOM     31  C   UNL     1      -3.192   7.001   3.557  0.00  0.00    +0.000 C 
ATOM     32  C   UNL     1      -2.282   6.364   2.505  0.00  0.00    +0.002 C 
ATOM     33  C   UNL     1      -2.382   4.841   2.598  0.00  0.00    +0.024 C 
ENDBRANCH  26  28
ENDBRANCH  14  25
BRANCH   7  34
ATOM     34  O   UNL     1       1.358  -1.800   2.308  0.00  0.00    -0.388 OA
ATOM     35  H   UNL     1       1.786  -2.167   3.094  0.00  0.00    +0.210 HD
ENDBRANCH   7  34
BRANCH  17  36
ATOM     36  O   UNL     1      -2.628  -0.655   7.376  0.00  0.00    -0.392 OA
ATOM     37  H   UNL     1      -3.539  -0.969   7.456  0.00  0.00    +0.210 HD
ENDBRANCH  17  36
BRANCH  13  38
ATOM     38  O   UNL     1      -0.524  -1.001   6.106  0.00  0.00    -0.388 OA
ATOM     39  H   UNL     1      -0.092  -1.294   6.920  0.00  0.00    +0.210 HD
ENDBRANCH  13  38
TORSDOF 6
