REMARK  Name = ZINC59472820
REMARK  9 active torsions:
REMARK  status: ('A' for Active; 'I' for Inactive)
REMARK    1  A    between atoms: C_1  and  C_2
REMARK    2  A    between atoms: C_2  and  C_3
REMARK    3  A    between atoms: C_2  and  C_4
REMARK    4  A    between atoms: C_2  and  C_5
REMARK    5  A    between atoms: N_9  and  N_10
REMARK    6  A    between atoms: C_11  and  C_13
REMARK    7  A    between atoms: C_13  and  S_14
REMARK    8  A    between atoms: S_14  and  C_15
REMARK    9  A    between atoms: C_15  and  C_16
REMARK                            x       y       z     vdW  Elec       q    Type
REMARK                         _______ _______ _______ _____ _____    ______ ____
ROOT
ATOM      1  N   UNL     1       5.004  -1.986  -3.180  0.00  0.00    -0.206 N 
ATOM      2  C   UNL     1       6.072  -2.732  -3.526  0.00  0.00    +0.242 C 
ATOM      3  O   UNL     1       5.962  -3.935  -3.637  0.00  0.00    -0.273 OA
ATOM      4  H   UNL     1       5.092  -1.025  -3.091  0.00  0.00    +0.177 HD
ENDROOT
BRANCH   1   9
ATOM      5  C   UNL     1       0.919  -0.746  -0.706  0.00  0.00    -0.005 C 
ATOM      6  C   UNL     1       0.866  -2.248  -0.991  0.00  0.00    +0.010 C 
ATOM      7  C   UNL     1       1.398  -2.517  -2.403  0.00  0.00    +0.053 C 
ATOM      8  C   UNL     1       2.778  -1.909  -2.520  0.00  0.00    +0.037 C 
ATOM      9  N   UNL     1       3.766  -2.601  -2.949  0.00  0.00    -0.189 NA
ATOM     10  C   UNL     1       2.961  -0.462  -2.118  0.00  0.00    +0.053 C 
ATOM     11  C   UNL     1       2.372  -0.268  -0.717  0.00  0.00    +0.010 C 
BRANCH   5  13
ATOM     12  C   UNL     1       0.348   1.036   0.950  0.00  0.00    +0.011 C 
ATOM     13  C   UNL     1       0.303  -0.467   0.667  0.00  0.00    -0.035 C 
ATOM     14  C   UNL     1       1.095  -1.213   1.743  0.00  0.00    +0.011 C 
ATOM     15  C   UNL     1      -1.151  -0.946   0.680  0.00  0.00    +0.011 C 
ENDBRANCH   5  13
ENDBRANCH   1   9
BRANCH   2  16
ATOM     16  C   UNL     1       7.403  -2.071  -3.776  0.00  0.00    +0.166 C 
BRANCH  16  17
ATOM     17  S   UNL     1       8.630  -3.331  -4.219  0.00  0.00    -0.147 S 
BRANCH  17  18
ATOM     18  C   UNL     1      10.155  -2.385  -4.483  0.00  0.00    +0.104 C 
BRANCH  18  19
ATOM     19  C   UNL     1      11.270  -3.325  -4.863  0.00  0.00    -0.037 A 
ATOM     20  C   UNL     1      12.060  -3.893  -3.881  0.00  0.00    +0.006 A 
ATOM     21  C   UNL     1      13.082  -4.755  -4.229  0.00  0.00    +0.020 A 
ATOM     22  C   UNL     1      13.316  -5.050  -5.560  0.00  0.00    +0.041 A 
ATOM     23  C   UNL     1      12.525  -4.481  -6.543  0.00  0.00    +0.020 A 
ATOM     24  C   UNL     1      11.499  -3.624  -6.193  0.00  0.00    +0.006 A 
ATOM     25 CL   UNL     1      14.601  -6.132  -5.998  0.00  0.00    -0.084 Cl
ENDBRANCH  18  19
ENDBRANCH  17  18
ENDBRANCH  16  17
ENDBRANCH   2  16
TORSDOF 6
