REMARK  Name = ZINC01392159
REMARK  3 active torsions:
REMARK  status: ('A' for Active; 'I' for Inactive)
REMARK    1  A    between atoms: C_1  and  C_2
REMARK    2  A    between atoms: C_2  and  C_20
REMARK    3  A    between atoms: N_8  and  C_13
REMARK                            x       y       z     vdW  Elec       q    Type
REMARK                         _______ _______ _______ _____ _____    ______ ____
ROOT
ATOM      1  C   UNL     1      -1.779  -0.487  -1.215  0.00  0.00    +0.040 C 
ATOM      2  C   UNL     1      -1.091  -0.531   0.151  0.00  0.00    +0.092 C 
ATOM      3  C   UNL     1      -1.153  -1.946   0.754  0.00  0.00    +0.209 C 
ATOM      4  N   UNL     1       0.142  -2.636   0.688  0.00  0.00    -0.303 N 
ATOM      5  C   UNL     1       0.326  -3.160   1.939  0.00  0.00    +0.156 C 
ATOM      6  S   UNL     1       1.575  -4.259   2.346  0.00  0.00    -0.017 S 
ATOM      7  N   UNL     1      -0.608  -2.712   2.805  0.00  0.00    -0.196 N 
ATOM      8  N   UNL     1      -1.272  -1.634   2.206  0.00  0.00    -0.202 N 
ATOM      9  C   UNL     1      -1.867  -0.444   2.306  0.00  0.00    +0.152 C 
ATOM     10  S   UNL     1      -2.581   0.136   3.749  0.00  0.00    -0.017 S 
ATOM     11  N   UNL     1      -1.849   0.254   1.152  0.00  0.00    -0.313 N 
ATOM     12  H   UNL     1       0.736  -2.696  -0.077  0.00  0.00    +0.150 HD
ATOM     13  H   UNL     1      -2.260   1.120   1.003  0.00  0.00    +0.149 HD
ENDROOT
BRANCH   7  14
ATOM     14  C   UNL     1      -0.868  -3.234   4.077  0.00  0.00    +0.055 A 
ATOM     15  C   UNL     1       0.179  -3.475   4.957  0.00  0.00    +0.026 A 
ATOM     16  C   UNL     1      -0.080  -3.985   6.214  0.00  0.00    +0.022 A 
ATOM     17  C   UNL     1      -1.381  -4.266   6.593  0.00  0.00    +0.041 A 
ATOM     18  C   UNL     1      -2.425  -4.032   5.716  0.00  0.00    +0.022 A 
ATOM     19  C   UNL     1      -2.172  -3.517   4.460  0.00  0.00    +0.026 A 
ATOM     20 CL   UNL     1      -1.703  -4.913   8.172  0.00  0.00    -0.084 Cl
ENDBRANCH   7  14
BRANCH   2  21
ATOM     21  C   UNL     1       0.333  -0.049   0.051  0.00  0.00    -0.021 A 
ATOM     22  C   UNL     1       0.860   0.757   1.043  0.00  0.00    +0.007 A 
ATOM     23  C   UNL     1       2.166   1.200   0.952  0.00  0.00    +0.020 A 
ATOM     24  C   UNL     1       2.945   0.838  -0.133  0.00  0.00    +0.041 A 
ATOM     25  C   UNL     1       2.417   0.030  -1.124  0.00  0.00    +0.020 A 
ATOM     26  C   UNL     1       1.111  -0.412  -1.032  0.00  0.00    +0.007 A 
ATOM     27 CL   UNL     1       4.585   1.395  -0.248  0.00  0.00    -0.084 Cl
ENDBRANCH   2  21
TORSDOF 2
