REMARK  Name = ZINC23873178
REMARK  7 active torsions:
REMARK  status: ('A' for Active; 'I' for Inactive)
REMARK    1  A    between atoms: C_1  and  O_2
REMARK    2  A    between atoms: O_2  and  C_3
REMARK    3  A    between atoms: C_8  and  O_9
REMARK    4  A    between atoms: O_9  and  C_10
REMARK    5  A    between atoms: C_11  and  C_29
REMARK    6  A    between atoms: N_13  and  C_16
REMARK    7  A    between atoms: C_16  and  N_17
REMARK                            x       y       z     vdW  Elec       q    Type
REMARK                         _______ _______ _______ _____ _____    ______ ____
ROOT
ATOM      1  C   UNL     1      -2.376   2.734   6.149  0.00  0.00    +0.162 A 
ATOM      2  C   UNL     1      -2.034   3.632   5.154  0.00  0.00    +0.053 A 
ATOM      3  C   UNL     1      -1.673   3.178   3.894  0.00  0.00    -0.037 A 
ATOM      4  C   UNL     1      -1.652   1.825   3.629  0.00  0.00    -0.019 A 
ATOM      5  C   UNL     1      -1.996   0.921   4.623  0.00  0.00    +0.055 A 
ATOM      6  C   UNL     1      -2.358   1.369   5.882  0.00  0.00    +0.162 A 
ATOM      7  C   UNL     1      -1.257   1.286   2.279  0.00  0.00    +0.119 C 
ATOM      8  N   UNL     1      -1.329   2.341   1.263  0.00  0.00    -0.275 NA
ATOM      9  C   UNL     1      -0.560   3.519   1.696  0.00  0.00    +0.091 C 
ATOM     10  C   UNL     1      -1.313   4.196   2.842  0.00  0.00    +0.051 C 
ENDROOT
BRANCH   7  11
ATOM     11  C   UNL     1      -2.189   0.165   1.898  0.00  0.00    -0.026 A 
ATOM     12  C   UNL     1      -3.482   0.447   1.498  0.00  0.00    +0.005 A 
ATOM     13  C   UNL     1      -4.336  -0.581   1.145  0.00  0.00    +0.000 A 
ATOM     14  C   UNL     1      -3.900  -1.891   1.201  0.00  0.00    +0.000 A 
ATOM     15  C   UNL     1      -2.609  -2.174   1.606  0.00  0.00    +0.000 A 
ATOM     16  C   UNL     1      -1.754  -1.145   1.955  0.00  0.00    +0.005 A 
ENDBRANCH   7  11
BRANCH   1  18
ATOM     17  C   UNL     1      -2.726   4.599   7.584  0.00  0.00    +0.277 C 
ATOM     18  O   UNL     1      -2.730   3.184   7.383  0.00  0.00    -0.491 OA
ENDBRANCH   1  18
BRANCH   6  19
ATOM     19  O   UNL     1      -2.694   0.478   6.853  0.00  0.00    -0.491 OA
ATOM     20  C   UNL     1      -2.652  -0.908   6.505  0.00  0.00    +0.277 C 
ENDBRANCH   6  19
BRANCH   8  21
ATOM     21  C   UNL     1      -0.856   1.853  -0.039  0.00  0.00    +0.205 C 
BRANCH  21  22
ATOM     22  N   UNL     1      -1.125   2.861  -1.066  0.00  0.00    -0.211 N 
ATOM     23  C   UNL     1      -0.200   3.712  -1.556  0.00  0.00    +0.248 C 
ATOM     24  O   UNL     1       0.968   3.788  -1.237  0.00  0.00    -0.273 OA
ATOM     25  C   UNL     1      -0.924   4.550  -2.583  0.00  0.00    +0.113 C 
ATOM     26  C   UNL     1      -0.304   4.354  -3.962  0.00  0.00    +0.035 C 
ATOM     27  C   UNL     1      -1.069   5.188  -4.993  0.00  0.00    +0.003 C 
ATOM     28  C   UNL     1      -1.012   6.665  -4.595  0.00  0.00    +0.000 C 
ATOM     29  C   UNL     1      -1.659   6.849  -3.221  0.00  0.00    +0.003 C 
ATOM     30  C   UNL     1      -0.897   6.021  -2.184  0.00  0.00    +0.035 C 
ATOM     31  N   UNL     1      -2.299   4.035  -2.558  0.00  0.00    -0.285 N 
ATOM     32  C   UNL     1      -2.320   3.050  -1.641  0.00  0.00    +0.310 C 
ATOM     33  O   UNL     1      -3.312   2.403  -1.365  0.00  0.00    -0.252 OA
ATOM     34  H   UNL     1      -3.062   4.471  -3.221  0.00  0.00    +0.151 HD
ENDBRANCH  21  22
ENDBRANCH   8  21
TORSDOF 5
