REMARK  Name = ZINC15180315
REMARK  7 active torsions:
REMARK  status: ('A' for Active; 'I' for Inactive)
REMARK    1  A    between atoms: C_1  and  C_2
REMARK    2  A    between atoms: C_2  and  C_4
REMARK    3  A    between atoms: C_2  and  O_15
REMARK    4  A    between atoms: N_6  and  C_7
REMARK    5  A    between atoms: O_15  and  C_16
REMARK    6  A    between atoms: C_16  and  C_18
REMARK    7  A    between atoms: C_22  and  N_24
REMARK                            x       y       z     vdW  Elec       q    Type
REMARK                         _______ _______ _______ _____ _____    ______ ____
ROOT
ATOM      1  C   UNL     1       4.502   5.728   1.011  0.00  0.00    +0.062 C 
ATOM      2  C   UNL     1       3.630   6.000  -0.217  0.00  0.00    +0.259 C 
ENDROOT
BRANCH   2   3
ATOM      3  C   UNL     1       2.338   5.235  -0.094  0.00  0.00    +0.258 C 
ATOM      4  O   UNL     1       1.280   5.828  -0.081  0.00  0.00    -0.271 OA
ATOM      5  N   UNL     1       2.357   3.890   0.000  0.00  0.00    -0.281 N 
ATOM      6  H   UNL     1       3.204   3.420   0.055  0.00  0.00    +0.155 HD
BRANCH   5   7
ATOM      7  C   UNL     1       1.155   3.173   0.019  0.00  0.00    +0.053 A 
ATOM      8  C   UNL     1       0.035   3.709   0.639  0.00  0.00    +0.044 A 
ATOM      9  C   UNL     1      -1.151   2.998   0.655  0.00  0.00    +0.043 A 
ATOM     10  C   UNL     1      -1.222   1.755   0.051  0.00  0.00    +0.021 A 
ATOM     11  C   UNL     1      -0.106   1.216  -0.562  0.00  0.00    +0.023 A 
ATOM     12  C   UNL     1       1.082   1.922  -0.582  0.00  0.00    +0.062 A 
ATOM     13 CL   UNL     1       2.481   1.247  -1.357  0.00  0.00    -0.082 Cl
ATOM     14 CL   UNL     1      -2.553   3.668   1.430  0.00  0.00    -0.083 Cl
ENDBRANCH   5   7
ENDBRANCH   2   3
BRANCH   2  15
ATOM     15  O   UNL     1       3.345   7.421  -0.302  0.00  0.00    -0.449 OA
BRANCH  15  16
ATOM     16  C   UNL     1       4.211   8.178  -1.004  0.00  0.00    +0.340 C 
ATOM     17  O   UNL     1       5.178   7.664  -1.530  0.00  0.00    -0.245 OA
BRANCH  16  18
ATOM     18  C   UNL     1       3.985   9.631  -1.134  0.00  0.00    +0.061 A 
ATOM     19  C   UNL     1       2.870  10.223  -0.535  0.00  0.00    +0.016 A 
ATOM     20  C   UNL     1       2.663  11.582  -0.654  0.00  0.00    +0.022 A 
ATOM     21  C   UNL     1       3.551  12.361  -1.374  0.00  0.00    +0.062 A 
ATOM     22  C   UNL     1       4.661  11.780  -1.979  0.00  0.00    +0.044 A 
ATOM     23  C   UNL     1       4.880  10.417  -1.861  0.00  0.00    +0.039 A 
ATOM     24 CL   UNL     1       3.279  14.069  -1.523  0.00  0.00    -0.082 Cl
BRANCH  22  25
ATOM     25  N   UNL     1       5.556  12.572  -2.705  0.00  0.00    -0.357 N 
ATOM     26  H   UNL     1       6.330  12.167  -3.126  0.00  0.00    +0.142 HD
ATOM     27  H   UNL     1       5.402  13.526  -2.787  0.00  0.00    +0.142 HD
ENDBRANCH  22  25
ENDBRANCH  16  18
ENDBRANCH  15  16
ENDBRANCH   2  15
TORSDOF 6
