REMARK  Name = ZINC40982800
REMARK  10 active torsions:
REMARK  status: ('A' for Active; 'I' for Inactive)
REMARK    1  A    between atoms: C_1  and  C_2
REMARK    2  A    between atoms: C_2  and  C_3
REMARK    3  A    between atoms: C_3  and  S_4
REMARK    4  A    between atoms: S_4  and  C_5
REMARK    5  A    between atoms: C_10  and  C_26
REMARK    6  A    between atoms: C_12  and  C_16
REMARK    7  A    between atoms: C_13  and  C_15
REMARK    8  A    between atoms: C_16  and  O_18
REMARK    9  A    between atoms: O_18  and  C_19
REMARK   10  A    between atoms: C_19  and  C_20
REMARK                            x       y       z     vdW  Elec       q    Type
REMARK                         _______ _______ _______ _____ _____    ______ ____
ROOT
ATOM      1  C   UNL     1       1.261  -2.833   2.945  0.00  0.00    +0.210 A 
ATOM      2  N   UNL     1       1.796  -1.938   3.789  0.00  0.00    -0.187 NA
ATOM      3  C   UNL     1       2.548  -2.555   4.660  0.00  0.00    +0.220 A 
ATOM      4  N   UNL     1       2.513  -3.881   4.381  0.00  0.00    -0.217 N 
ATOM      5  N   UNL     1       1.672  -4.037   3.280  0.00  0.00    -0.141 NA
ATOM      6  C   UNL     1       3.247  -4.886   5.145  0.00  0.00    +0.215 C 
ATOM      7  C   UNL     1       3.772  -4.268   6.413  0.00  0.00    +0.085 C 
ATOM      8  C   UNL     1       3.777  -2.944   6.635  0.00  0.00    +0.020 C 
ATOM      9  N   UNL     1       3.290  -2.047   5.717  0.00  0.00    -0.287 N 
ATOM     10  C   UNL     1       4.337  -2.425   7.934  0.00  0.00    +0.061 C 
ATOM     11  H   UNL     1       3.458  -1.096   5.804  0.00  0.00    +0.155 HD
ENDROOT
BRANCH   6  12
ATOM     12  C   UNL     1       4.400  -5.399   4.321  0.00  0.00    +0.136 A 
ATOM     13  C   UNL     1       4.587  -6.675   3.939  0.00  0.00    +0.048 A 
ATOM     14  C   UNL     1       5.785  -6.707   3.188  0.00  0.00    +0.057 A 
ATOM     15  C   UNL     1       6.259  -5.447   3.157  0.00  0.00    +0.170 A 
ATOM     16  O   UNL     1       5.413  -4.659   3.840  0.00  0.00    -0.451 OA
ATOM     17 BR   UNL     1       7.843  -4.882   2.292  0.00  0.00    -0.008 Br
ENDBRANCH   6  12
BRANCH   7  18
ATOM     18  C   UNL     1       4.282  -5.121   7.417  0.00  0.00    +0.339 C 
ATOM     19  O   UNL     1       3.521  -5.779   8.102  0.00  0.00    -0.245 OA
BRANCH  18  20
ATOM     20  O   UNL     1       5.614  -5.206   7.617  0.00  0.00    -0.457 OA
BRANCH  20  21
ATOM     21  C   UNL     1       6.060  -6.088   8.650  0.00  0.00    +0.268 C 
BRANCH  21  22
ATOM     22  C   UNL     1       7.565  -6.052   8.726  0.00  0.00    -0.010 A 
ATOM     23  C   UNL     1       8.317  -6.927   7.965  0.00  0.00    +0.007 A 
ATOM     24  C   UNL     1       9.697  -6.894   8.035  0.00  0.00    +0.000 A 
ATOM     25  C   UNL     1      10.325  -5.986   8.866  0.00  0.00    +0.000 A 
ATOM     26  C   UNL     1       9.573  -5.110   9.626  0.00  0.00    +0.000 A 
ATOM     27  C   UNL     1       8.193  -5.140   9.553  0.00  0.00    +0.007 A 
ENDBRANCH  21  22
ENDBRANCH  20  21
ENDBRANCH  18  20
ENDBRANCH   7  18
BRANCH   1  28
ATOM     28  S   UNL     1       0.176  -2.457   1.608  0.00  0.00    -0.084 S 
BRANCH  28  29
ATOM     29  C   UNL     1       0.003  -0.653   1.677  0.00  0.00    +0.077 C 
BRANCH  29  31
ATOM     30  C   UNL     1      -1.073   1.336   0.613  0.00  0.00    +0.004 C 
ATOM     31  C   UNL     1      -0.926  -0.186   0.555  0.00  0.00    +0.008 C 
ENDBRANCH  29  31
ENDBRANCH  28  29
ENDBRANCH   1  28
TORSDOF 8
