REMARK  Name = ZINC41584865
REMARK  8 active torsions:
REMARK  status: ('A' for Active; 'I' for Inactive)
REMARK    1  A    between atoms: C_1  and  C_2
REMARK    2  A    between atoms: C_4  and  O_39
REMARK    3  A    between atoms: C_5  and  C_25
REMARK    4  A    between atoms: C_11  and  C_12
REMARK    5  A    between atoms: C_15  and  C_18
REMARK    6  A    between atoms: C_25  and  N_26
REMARK    7  A    between atoms: N_29  and  C_32
REMARK    8  A    between atoms: C_32  and  C_33
REMARK                            x       y       z     vdW  Elec       q    Type
REMARK                         _______ _______ _______ _____ _____    ______ ____
ROOT
ATOM      1  C   UNL     1       0.367   1.463  -0.008  0.00  0.00    +0.045 C 
ATOM      2  C   UNL     1       0.058  -0.012  -0.001  0.00  0.00    -0.033 A 
ATOM      3  C   UNL     1      -0.163  -0.670  -1.178  0.00  0.00    +0.050 A 
ATOM      4  C   UNL     1      -0.448  -2.033  -1.175  0.00  0.00    +0.122 A 
ATOM      5  C   UNL     1      -0.510  -2.737   0.017  0.00  0.00    +0.020 A 
ATOM      6  C   UNL     1      -0.287  -2.083   1.222  0.00  0.00    +0.145 A 
ATOM      7  C   UNL     1       0.004  -0.709   1.206  0.00  0.00    +0.071 A 
ATOM      8  C   UNL     1       0.194  -0.308   2.612  0.00  0.00    +0.232 C 
ATOM      9  O   UNL     1       0.458   0.801   3.042  0.00  0.00    -0.283 OA
ATOM     10  C   UNL     1      -0.007  -1.547   3.379  0.00  0.00    +0.176 C 
ATOM     11  C   UNL     1       0.068  -1.676   4.728  0.00  0.00    +0.058 C 
ATOM     12  O   UNL     1      -0.291  -2.533   2.496  0.00  0.00    -0.451 OA
ENDROOT
BRANCH  11  13
ATOM     13  C   UNL     1      -0.019  -3.005   5.345  0.00  0.00    -0.021 A 
ATOM     14  C   UNL     1      -0.116  -3.128   6.737  0.00  0.00    +0.008 A 
ATOM     15  C   UNL     1      -0.197  -4.366   7.308  0.00  0.00    +0.009 A 
ATOM     16  C   UNL     1      -0.183  -5.508   6.506  0.00  0.00    -0.018 A 
ATOM     17  C   UNL     1      -0.086  -5.389   5.118  0.00  0.00    +0.009 A 
ATOM     18  C   UNL     1      -0.010  -4.153   4.542  0.00  0.00    +0.008 A 
BRANCH  16  19
ATOM     19  C   UNL     1      -0.271  -6.851   7.128  0.00  0.00    -0.018 A 
ATOM     20  C   UNL     1      -0.373  -6.975   8.513  0.00  0.00    +0.008 A 
ATOM     21  C   UNL     1      -0.455  -8.227   9.087  0.00  0.00    +0.001 A 
ATOM     22  C   UNL     1      -0.435  -9.358   8.291  0.00  0.00    +0.000 A 
ATOM     23  C   UNL     1      -0.334  -9.242   6.916  0.00  0.00    +0.001 A 
ATOM     24  C   UNL     1      -0.257  -7.995   6.330  0.00  0.00    +0.008 A 
ENDBRANCH  16  19
ENDBRANCH  11  13
BRANCH   4  25
ATOM     25  O   UNL     1      -0.667  -2.677  -2.349  0.00  0.00    -0.506 OA
ATOM     26  H   UNL     1       0.132  -3.044  -2.751  0.00  0.00    +0.292 HD
ENDBRANCH   4  25
BRANCH   5  27
ATOM     27  C   UNL     1      -0.820  -4.211   0.006  0.00  0.00    -0.035 C 
BRANCH  27  28
ATOM     28  N   UNL     1       0.432  -4.974  -0.095  0.00  0.00    +0.384 N 
ATOM     29  C   UNL     1       1.070  -4.699  -1.389  0.00  0.00    -0.063 C 
ATOM     30  C   UNL     1       2.383  -5.478  -1.486  0.00  0.00    +0.066 C 
ATOM     31  N   UNL     1       2.107  -6.916  -1.352  0.00  0.00    -0.302 NA
ATOM     32  C   UNL     1       1.446  -7.203  -0.071  0.00  0.00    +0.066 C 
ATOM     33  C   UNL     1       0.141  -6.409   0.015  0.00  0.00    -0.063 C 
ATOM     34  H   UNL     1       1.053  -4.699   0.651  0.00  0.00    -0.081 HD
BRANCH  31  35
ATOM     35  C   UNL     1       3.339  -7.704  -1.497  0.00  0.00    +0.119 C 
BRANCH  35  36
ATOM     36  C   UNL     1       2.990  -9.166  -1.599  0.00  0.00    -0.033 A 
ATOM     37  C   UNL     1       2.900  -9.937  -0.456  0.00  0.00    +0.005 A 
ATOM     38  C   UNL     1       2.580 -11.279  -0.550  0.00  0.00    +0.000 A 
ATOM     39  C   UNL     1       2.350 -11.849  -1.788  0.00  0.00    +0.000 A 
ATOM     40  C   UNL     1       2.439 -11.078  -2.932  0.00  0.00    +0.000 A 
ATOM     41  C   UNL     1       2.755  -9.736  -2.837  0.00  0.00    +0.005 A 
ENDBRANCH  35  36
ENDBRANCH  31  35
ENDBRANCH  27  28
ENDBRANCH   5  27
TORSDOF 7
