REMARK  Name = ZINC38677091
REMARK  14 active torsions:
REMARK  status: ('A' for Active; 'I' for Inactive)
REMARK    1  A    between atoms: C_1  and  C_2
REMARK    2  A    between atoms: C_2  and  C_3
REMARK    3  A    between atoms: C_6  and  C_9
REMARK    4  A    between atoms: C_14  and  O_23
REMARK    5  A    between atoms: C_18  and  N_22
REMARK    6  A    between atoms: C_19  and  C_20
REMARK    7  A    between atoms: O_23  and  C_24
REMARK    8  A    between atoms: C_24  and  C_26
REMARK    9  A    between atoms: C_28  and  O_36
REMARK   10  A    between atoms: C_29  and  O_34
REMARK   11  A    between atoms: C_30  and  O_32
REMARK   12  A    between atoms: O_32  and  C_33
REMARK   13  A    between atoms: O_34  and  C_35
REMARK   14  A    between atoms: O_36  and  C_37
REMARK                            x       y       z     vdW  Elec       q    Type
REMARK                         _______ _______ _______ _____ _____    ______ ____
ROOT
ATOM      1  C   UNL     1       2.650  -1.890  -4.727  0.00  0.00    +0.098 C 
ATOM      2  C   UNL     1       3.320  -3.210  -4.448  0.00  0.00    +0.008 A 
ATOM      3  C   UNL     1       2.546  -4.347  -4.297  0.00  0.00    +0.012 A 
ATOM      4  C   UNL     1       3.143  -5.566  -4.041  0.00  0.00    +0.047 A 
ATOM      5  C   UNL     1       4.524  -5.653  -3.935  0.00  0.00    +0.135 A 
ATOM      6  C   UNL     1       5.302  -4.516  -4.085  0.00  0.00    +0.093 A 
ATOM      7  C   UNL     1       4.700  -3.291  -4.343  0.00  0.00    +0.138 A 
ATOM      8  O   UNL     1       5.475  -2.188  -4.489  0.00  0.00    -0.441 OA
ATOM      9  C   UNL     1       4.983  -1.100  -5.104  0.00  0.00    +0.199 C 
ATOM     10  C   UNL     1       3.655  -0.901  -5.248  0.00  0.00    +0.098 C 
ENDROOT
BRANCH   1  14
ATOM     11  C   UNL     1       0.926  -0.390  -1.118  0.00  0.00    -0.048 A 
ATOM     12  C   UNL     1       0.122  -0.651  -2.212  0.00  0.00    +0.004 A 
ATOM     13  C   UNL     1       0.680  -1.136  -3.380  0.00  0.00    +0.005 A 
ATOM     14  C   UNL     1       2.042  -1.360  -3.454  0.00  0.00    -0.035 A 
ATOM     15  C   UNL     1       2.846  -1.099  -2.360  0.00  0.00    +0.005 A 
ATOM     16  C   UNL     1       2.289  -0.610  -1.194  0.00  0.00    +0.004 A 
BRANCH  11  18
ATOM     17  C   UNL     1       0.303   1.668   0.116  0.00  0.00    +0.009 C 
ATOM     18  C   UNL     1       0.318   0.139   0.155  0.00  0.00    +0.032 C 
ENDBRANCH  11  18
ENDBRANCH   1  14
BRANCH   9  19
ATOM     19  N   UNL     1       5.855  -0.164  -5.601  0.00  0.00    -0.328 N 
ATOM     20  H   UNL     1       6.812  -0.294  -5.505  0.00  0.00    +0.145 HD
ATOM     21  H   UNL     1       5.516   0.626  -6.048  0.00  0.00    +0.145 HD
ENDBRANCH   9  19
BRANCH  10  22
ATOM     22  C   UNL     1       3.196   0.280  -5.915  0.00  0.00    +0.101 C 
ATOM     23  N   UNL     1       2.831   1.217  -6.444  0.00  0.00    -0.191 NA
ENDBRANCH  10  22
BRANCH   5  24
ATOM     24  O   UNL     1       5.113  -6.852  -3.683  0.00  0.00    -0.422 OA
BRANCH  24  25
ATOM     25  C   UNL     1       5.081  -7.788  -4.651  0.00  0.00    +0.345 C 
ATOM     26  O   UNL     1       4.631  -7.515  -5.746  0.00  0.00    -0.245 OA
BRANCH  25  27
ATOM     27  C   UNL     1       5.593  -9.145  -4.382  0.00  0.00    +0.067 A 
ATOM     28  C   UNL     1       6.106  -9.463  -3.121  0.00  0.00    +0.064 A 
ATOM     29  C   UNL     1       6.584 -10.735  -2.872  0.00  0.00    +0.166 A 
ATOM     30  C   UNL     1       6.556 -11.700  -3.875  0.00  0.00    +0.204 A 
ATOM     31  C   UNL     1       6.045 -11.386  -5.132  0.00  0.00    +0.166 A 
ATOM     32  C   UNL     1       5.561 -10.117  -5.386  0.00  0.00    +0.064 A 
BRANCH  31  33
ATOM     33  O   UNL     1       6.019 -12.332  -6.110  0.00  0.00    -0.491 OA
ATOM     34  C   UNL     1       5.482 -11.941  -7.375  0.00  0.00    +0.277 C 
ENDBRANCH  31  33
BRANCH  30  35
ATOM     35  O   UNL     1       7.027 -12.950  -3.627  0.00  0.00    -0.488 OA
ATOM     36  C   UNL     1       6.092 -13.909  -3.127  0.00  0.00    +0.277 C 
ENDBRANCH  30  35
BRANCH  29  37
ATOM     37  O   UNL     1       7.084 -11.044  -1.645  0.00  0.00    -0.491 OA
ATOM     38  C   UNL     1       7.083 -10.006  -0.664  0.00  0.00    +0.277 C 
ENDBRANCH  29  37
ENDBRANCH  25  27
ENDBRANCH  24  25
ENDBRANCH   5  24
TORSDOF 10
