REMARK  Name = ZINC39914322
REMARK  10 active torsions:
REMARK  status: ('A' for Active; 'I' for Inactive)
REMARK    1  A    between atoms: C_1  and  C_2
REMARK    2  A    between atoms: C_2  and  C_3
REMARK    3  A    between atoms: C_3  and  C_4
REMARK    4  A    between atoms: C_4  and  N_5
REMARK    5  A    between atoms: C_6  and  C_25
REMARK    6  A    between atoms: C_9  and  C_16
REMARK    7  A    between atoms: C_19  and  C_23
REMARK    8  A    between atoms: C_21  and  O_22
REMARK    9  A    between atoms: C_29  and  O_31
REMARK   10  A    between atoms: O_31  and  C_32
REMARK                            x       y       z     vdW  Elec       q    Type
REMARK                         _______ _______ _______ _____ _____    ______ ____
ROOT
ATOM      1  N   UNL     1       1.784  -2.917  -2.955  0.00  0.00    -0.285 N 
ATOM      2  C   UNL     1       0.917  -2.904  -4.140  0.00  0.00    +0.141 C 
ATOM      3  C   UNL     1       1.829  -3.072  -5.325  0.00  0.00    +0.035 A 
ATOM      4  C   UNL     1       1.949  -3.172  -6.715  0.00  0.00    +0.102 A 
ATOM      5  N   UNL     1       3.230  -3.320  -6.990  0.00  0.00    -0.173 NA
ATOM      6  N   UNL     1       3.930  -3.322  -5.912  0.00  0.00    -0.272 N 
ATOM      7  H   UNL     1       4.895  -3.417  -5.874  0.00  0.00    +0.189 HD
ATOM      8  C   UNL     1       3.114  -3.171  -4.827  0.00  0.00    +0.126 A 
ATOM      9  C   UNL     1       3.057  -3.066  -3.365  0.00  0.00    +0.265 C 
ATOM     10  O   UNL     1       4.023  -3.111  -2.627  0.00  0.00    -0.268 OA
ENDROOT
BRANCH   4  11
ATOM     11  C   UNL     1       0.840  -3.122  -7.699  0.00  0.00    +0.045 A 
ATOM     12  C   UNL     1      -0.473  -2.956  -7.265  0.00  0.00    +0.034 A 
ATOM     13  C   UNL     1      -1.503  -2.910  -8.185  0.00  0.00    +0.045 A 
ATOM     14  C   UNL     1      -1.234  -3.029  -9.538  0.00  0.00    -0.029 A 
ATOM     15  C   UNL     1       0.066  -3.194  -9.978  0.00  0.00    +0.050 A 
ATOM     16  C   UNL     1       1.108  -3.236  -9.066  0.00  0.00    +0.126 A 
ATOM     17  C   UNL     1      -2.363  -2.978 -10.535  0.00  0.00    +0.045 C 
ATOM     18 CL   UNL     1      -3.139  -2.702  -7.643  0.00  0.00    -0.083 Cl
BRANCH  16  19
ATOM     19  O   UNL     1       2.386  -3.393  -9.498  0.00  0.00    -0.506 OA
ATOM     20  H   UNL     1       2.668  -4.316  -9.568  0.00  0.00    +0.292 HD
ENDBRANCH  16  19
ENDBRANCH   4  11
BRANCH   2  21
ATOM     21  C   UNL     1      -0.067  -4.043  -4.075  0.00  0.00    -0.019 A 
ATOM     22  C   UNL     1       0.339  -5.280  -3.608  0.00  0.00    +0.006 A 
ATOM     23  C   UNL     1      -0.562  -6.328  -3.547  0.00  0.00    +0.004 A 
ATOM     24  C   UNL     1      -1.869  -6.141  -3.953  0.00  0.00    +0.046 A 
ATOM     25  C   UNL     1      -2.278  -4.902  -4.422  0.00  0.00    +0.129 A 
ATOM     26  C   UNL     1      -1.374  -3.850  -4.477  0.00  0.00    +0.052 A 
BRANCH  25  27
ATOM     27  O   UNL     1      -3.563  -4.716  -4.823  0.00  0.00    -0.456 OA
BRANCH  27  28
ATOM     28  C   UNL     1      -4.417  -5.769  -4.737  0.00  0.00    +0.128 A 
ATOM     29  C   UNL     1      -5.153  -5.974  -3.578  0.00  0.00    +0.046 A 
ATOM     30  C   UNL     1      -6.021  -7.046  -3.493  0.00  0.00    +0.004 A 
ATOM     31  C   UNL     1      -6.155  -7.915  -4.561  0.00  0.00    +0.000 A 
ATOM     32  C   UNL     1      -5.422  -7.713  -5.716  0.00  0.00    +0.004 A 
ATOM     33  C   UNL     1      -4.558  -6.639  -5.809  0.00  0.00    +0.046 A 
ENDBRANCH  27  28
ENDBRANCH  25  27
ENDBRANCH   2  21
BRANCH   1  34
ATOM     34  C   UNL     1       1.341  -2.783  -1.565  0.00  0.00    +0.109 C 
BRANCH  34  35
ATOM     35  C   UNL     1       1.325  -1.304  -1.174  0.00  0.00    +0.019 C 
BRANCH  35  37
ATOM     36  C   UNL     1       0.845   0.314   0.668  0.00  0.00    +0.004 C 
ATOM     37  C   UNL     1       0.861  -1.165   0.277  0.00  0.00    -0.002 C 
ENDBRANCH  35  37
ENDBRANCH  34  35
ENDBRANCH   1  34
TORSDOF 8
