REMARK  Name = ZINC20884847
REMARK  12 active torsions:
REMARK  status: ('A' for Active; 'I' for Inactive)
REMARK    1  A    between atoms: C_1  and  C_2
REMARK    2  A    between atoms: C_2  and  C_3
REMARK    3  A    between atoms: C_2  and  C_4
REMARK    4  A    between atoms: C_2  and  C_5
REMARK    5  A    between atoms: C_8  and  C_11
REMARK    6  A    between atoms: C_16  and  C_26
REMARK    7  A    between atoms: C_28  and  O_36
REMARK    8  A    between atoms: C_29  and  O_34
REMARK    9  A    between atoms: C_30  and  O_32
REMARK   10  A    between atoms: O_32  and  C_33
REMARK   11  A    between atoms: O_34  and  C_35
REMARK   12  A    between atoms: O_36  and  C_37
REMARK                            x       y       z     vdW  Elec       q    Type
REMARK                         _______ _______ _______ _____ _____    ______ ____
ROOT
ATOM      1  C   UNL     1       1.151   9.014  -2.239  0.00  0.00    +0.032 C 
ATOM      2  C   UNL     1       2.147   8.582  -1.164  0.00  0.00    +0.059 C 
ATOM      3  C   UNL     1       1.403   8.194   0.104  0.00  0.00    +0.017 C 
ATOM      4  C   UNL     1       0.189   7.627   0.032  0.00  0.00    +0.036 C 
ATOM      5  C   UNL     1      -0.642   7.160   1.203  0.00  0.00    +0.136 C 
ATOM      6  N   UNL     1      -0.159   7.601   2.494  0.00  0.00    -0.331 N 
ATOM      7  C   UNL     1       1.075   7.176   2.985  0.00  0.00    +0.049 A 
ATOM      8  C   UNL     1       1.170   6.382   4.116  0.00  0.00    +0.025 A 
ATOM      9  C   UNL     1       2.414   5.947   4.540  0.00  0.00    +0.002 A 
ATOM     10  C   UNL     1       3.554   6.299   3.840  0.00  0.00    +0.002 A 
ATOM     11  C   UNL     1       3.464   7.106   2.718  0.00  0.00    +0.025 A 
ATOM     12  C   UNL     1       2.222   7.559   2.307  0.00  0.00    +0.052 A 
ATOM     13  N   UNL     1       2.072   8.457   1.256  0.00  0.00    -0.316 N 
ATOM     14  C   UNL     1      -0.429   7.420  -1.224  0.00  0.00    +0.163 C 
ATOM     15  O   UNL     1      -1.523   6.892  -1.260  0.00  0.00    -0.292 OA
ATOM     16  C   UNL     1       0.218   7.829  -2.514  0.00  0.00    +0.088 C 
ATOM     17  H   UNL     1      -0.768   8.282   3.107  0.00  0.00    +0.147 HD
ATOM     18  H   UNL     1       2.542   9.439   1.407  0.00  0.00    +0.152 HD
ENDROOT
BRANCH   1  22
ATOM     19  C   UNL     1       3.244  10.068  -5.811  0.00  0.00    -0.042 A 
ATOM     20  C   UNL     1       2.454  11.005  -5.170  0.00  0.00    +0.004 A 
ATOM     21  C   UNL     1       1.777  10.664  -4.014  0.00  0.00    +0.004 A 
ATOM     22  C   UNL     1       1.889   9.386  -3.499  0.00  0.00    -0.043 A 
ATOM     23  C   UNL     1       2.683   8.451  -4.136  0.00  0.00    +0.004 A 
ATOM     24  C   UNL     1       3.357   8.791  -5.295  0.00  0.00    +0.004 A 
BRANCH  19  26
ATOM     25  C   UNL     1       4.941  11.595  -6.779  0.00  0.00    +0.015 C 
ATOM     26  C   UNL     1       3.981  10.440  -7.071  0.00  0.00    -0.013 C 
ATOM     27  C   UNL     1       4.775   9.232  -7.572  0.00  0.00    +0.015 C 
ATOM     28  C   UNL     1       2.976  10.870  -8.142  0.00  0.00    +0.015 C 
ENDBRANCH  19  26
ENDBRANCH   1  22
BRANCH   5  29
ATOM     29  C   UNL     1      -0.677   5.653   1.194  0.00  0.00    -0.016 A 
ATOM     30  C   UNL     1       0.494   4.936   1.355  0.00  0.00    +0.055 A 
ATOM     31  C   UNL     1       0.467   3.550   1.347  0.00  0.00    +0.165 A 
ATOM     32  C   UNL     1      -0.740   2.881   1.177  0.00  0.00    +0.204 A 
ATOM     33  C   UNL     1      -1.914   3.606   1.011  0.00  0.00    +0.165 A 
ATOM     34  C   UNL     1      -1.879   4.992   1.026  0.00  0.00    +0.055 A 
BRANCH  33  35
ATOM     35  O   UNL     1      -3.097   2.957   0.839  0.00  0.00    -0.491 OA
ATOM     36  C   UNL     1      -4.247   3.762   0.577  0.00  0.00    +0.277 C 
ENDBRANCH  33  35
BRANCH  32  37
ATOM     37  O   UNL     1      -0.771   1.521   1.169  0.00  0.00    -0.488 OA
ATOM     38  C   UNL     1      -0.961   0.868   2.426  0.00  0.00    +0.277 C 
ENDBRANCH  32  37
BRANCH  31  39
ATOM     39  O   UNL     1       1.619   2.845   1.504  0.00  0.00    -0.491 OA
ATOM     40  C   UNL     1       2.822   3.598   1.673  0.00  0.00    +0.277 C 
ENDBRANCH  31  39
ENDBRANCH   5  29
TORSDOF 6
