REMARK  Name = ZINC12815117
REMARK  9 active torsions:
REMARK  status: ('A' for Active; 'I' for Inactive)
REMARK    1  A    between atoms: C_1  and  C_2
REMARK    2  A    between atoms: C_7  and  C_13
REMARK    3  A    between atoms: C_13  and  N_14
REMARK    4  A    between atoms: N_14  and  C_15
REMARK    5  A    between atoms: N_14  and  C_28
REMARK    6  A    between atoms: C_15  and  C_16
REMARK    7  A    between atoms: C_22  and  C_27
REMARK    8  A    between atoms: C_28  and  C_30
REMARK    9  A    between atoms: C_28  and  C_31
REMARK                            x       y       z     vdW  Elec       q    Type
REMARK                         _______ _______ _______ _____ _____    ______ ____
ROOT
ATOM      1  N   UNL     1      -0.823  -6.788  -0.075  0.00  0.00    -0.288 NA
ENDROOT
BRANCH   1   2
ATOM      2  C   UNL     1      -1.346  -5.884   0.958  0.00  0.00    +0.057 C 
ATOM      3  C   UNL     1      -0.661  -4.521   0.837  0.00  0.00    +0.024 C 
BRANCH   2   4
ATOM      4  C   UNL     1      -1.065  -6.474   2.342  0.00  0.00    +0.006 C 
ATOM      5  C   UNL     1      -2.245  -7.084   3.102  0.00  0.00    +0.005 C 
ATOM      6  C   UNL     1      -1.653  -5.747   3.553  0.00  0.00    +0.005 C 
ENDBRANCH   2   4
ENDBRANCH   1   2
BRANCH   1   7
ATOM      7  C   UNL     1       0.568  -7.165   0.210  0.00  0.00    +0.138 C 
BRANCH   7  14
ATOM      8  C   UNL     1       4.886  -1.236  -2.600  0.00  0.00    +0.045 C 
ATOM      9  C   UNL     1       3.983  -2.396  -2.268  0.00  0.00    -0.034 A 
ATOM     10  C   UNL     1       3.210  -2.991  -3.274  0.00  0.00    +0.008 A 
ATOM     11  C   UNL     1       2.396  -4.040  -2.965  0.00  0.00    +0.045 A 
ATOM     12  C   UNL     1       2.346  -4.509  -1.639  0.00  0.00    +0.118 A 
ATOM     13  N   UNL     1       1.552  -5.534  -1.335  0.00  0.00    -0.343 N 
ATOM     14  C   UNL     1       1.477  -6.004  -0.100  0.00  0.00    +0.037 A 
ATOM     15  C   UNL     1       2.230  -5.431   0.906  0.00  0.00    +0.093 A 
ATOM     16  C   UNL     1       3.067  -4.353   0.594  0.00  0.00    +0.258 A 
ATOM     17  O   UNL     1       3.747  -3.825   1.460  0.00  0.00    -0.267 OA
ATOM     18  N   UNL     1       3.112  -3.908  -0.680  0.00  0.00    -0.269 N 
ATOM     19  C   UNL     1       3.926  -2.863  -1.000  0.00  0.00    +0.099 A 
ATOM     20  H   UNL     1       1.017  -5.944  -2.033  0.00  0.00    +0.167 HD
ENDBRANCH   7  14
ENDBRANCH   1   7
BRANCH   1  21
ATOM     21  C   UNL     1      -1.674  -7.978  -0.213  0.00  0.00    +0.138 C 
BRANCH  21  22
ATOM     22  C   UNL     1      -2.986  -7.587  -0.842  0.00  0.00    +0.037 A 
ATOM     23  C   UNL     1      -3.209  -7.832  -2.183  0.00  0.00    +0.093 A 
ATOM     24  C   UNL     1      -4.436  -7.460  -2.745  0.00  0.00    +0.258 A 
ATOM     25  O   UNL     1      -4.663  -7.663  -3.927  0.00  0.00    -0.267 OA
ATOM     26  N   UNL     1      -5.364  -6.873  -1.959  0.00  0.00    -0.269 N 
ATOM     27  C   UNL     1      -6.562  -6.506  -2.490  0.00  0.00    +0.099 A 
ATOM     28  C   UNL     1      -7.507  -5.917  -1.723  0.00  0.00    -0.034 A 
ATOM     29  C   UNL     1      -7.261  -5.676  -0.364  0.00  0.00    +0.008 A 
ATOM     30  C   UNL     1      -6.065  -6.040   0.178  0.00  0.00    +0.045 A 
ATOM     31  C   UNL     1      -5.095  -6.653  -0.636  0.00  0.00    +0.118 A 
ATOM     32  N   UNL     1      -3.927  -7.014  -0.108  0.00  0.00    -0.343 N 
ATOM     33  C   UNL     1      -8.827  -5.517  -2.331  0.00  0.00    +0.045 C 
ATOM     34  H   UNL     1      -3.761  -6.851   0.834  0.00  0.00    +0.167 HD
ENDBRANCH  21  22
ENDBRANCH   1  21
TORSDOF 6
