REMARK  Name = ZINC30342708
REMARK  7 active torsions:
REMARK  status: ('A' for Active; 'I' for Inactive)
REMARK    1  A    between atoms: C_1  and  C_2
REMARK    2  A    between atoms: C_2  and  N_3
REMARK    3  A    between atoms: C_12  and  S_14
REMARK    4  A    between atoms: S_14  and  C_15
REMARK    5  A    between atoms: C_15  and  C_16
REMARK    6  A    between atoms: C_19  and  C_27
REMARK    7  A    between atoms: C_24  and  C_26
REMARK                            x       y       z     vdW  Elec       q    Type
REMARK                         _______ _______ _______ _____ _____    ______ ____
ROOT
ATOM      1  N   UNL     1      -4.127   4.138   2.557  0.00  0.00    -0.329 N 
ATOM      2  C   UNL     1      -2.864   4.639   2.321  0.00  0.00    +0.131 A 
ATOM      3  C   UNL     1      -1.710   3.884   2.647  0.00  0.00    +0.040 A 
ATOM      4  C   UNL     1      -1.794   2.606   3.211  0.00  0.00    +0.013 A 
ATOM      5  C   UNL     1      -0.649   1.926   3.509  0.00  0.00    +0.001 A 
ATOM      6  C   UNL     1       0.600   2.482   3.250  0.00  0.00    +0.002 A 
ATOM      7  C   UNL     1       0.716   3.722   2.696  0.00  0.00    +0.028 A 
ATOM      8  C   UNL     1      -0.440   4.451   2.382  0.00  0.00    +0.077 A 
ATOM      9  N   UNL     1      -0.380   5.675   1.837  0.00  0.00    -0.222 NA
ATOM     10  C   UNL     1      -1.487   6.335   1.553  0.00  0.00    +0.191 A 
ATOM     11  N   UNL     1      -2.700   5.839   1.786  0.00  0.00    -0.206 NA
ATOM     12  H   UNL     1      -4.247   3.139   3.004  0.00  0.00    +0.147 HD
ENDROOT
BRANCH   1  14
ATOM     13  C   UNL     1      -6.572   4.152   2.575  0.00  0.00    +0.024 C 
ATOM     14  C   UNL     1      -5.307   4.934   2.214  0.00  0.00    +0.099 C 
ENDBRANCH   1  14
BRANCH  10  15
ATOM     15  S   UNL     1      -1.353   7.939   0.838  0.00  0.00    -0.077 S 
BRANCH  15  16
ATOM     16  C   UNL     1       0.448   8.096   0.751  0.00  0.00    +0.173 C 
BRANCH  16  17
ATOM     17  C   UNL     1       0.808   9.431   0.153  0.00  0.00    +0.226 C 
ATOM     18  O   UNL     1      -0.049  10.113  -0.368  0.00  0.00    -0.275 OA
ATOM     19  N   UNL     1       2.082   9.868   0.197  0.00  0.00    -0.295 N 
ATOM     20  C   UNL     1       2.385  11.303   0.102  0.00  0.00    +0.073 C 
ATOM     21  C   UNL     1       3.400  11.518  -1.026  0.00  0.00    +0.022 C 
ATOM     22  C   UNL     1       4.623  10.632  -0.781  0.00  0.00    +0.004 C 
ATOM     23  C   UNL     1       4.200   9.161  -0.787  0.00  0.00    +0.022 C 
ATOM     24  C   UNL     1       3.194   8.920   0.348  0.00  0.00    +0.073 C 
ATOM     25  C   UNL     1       2.661   7.488   0.268  0.00  0.00    +0.028 C 
ATOM     26  C   UNL     1       1.103  12.079  -0.207  0.00  0.00    +0.028 C 
ENDBRANCH  16  17
ENDBRANCH  15  16
ENDBRANCH  10  15
TORSDOF 4
