REMARK  Name = ZINC36956891
REMARK  4 active torsions:
REMARK  status: ('A' for Active; 'I' for Inactive)
REMARK    1  A    between atoms: C_4  and  C_10
REMARK    2  A    between atoms: C_6  and  N_7
REMARK    3  A    between atoms: C_10  and  N_11
REMARK    4  A    between atoms: N_11  and  C_12
REMARK                            x       y       z     vdW  Elec       q    Type
REMARK                         _______ _______ _______ _____ _____    ______ ____
ROOT
ATOM      1  C   UNL     1       3.711  -0.710  -0.038  0.00  0.00    +0.138 C 
ENDROOT
BRANCH   1   5
ATOM      2  C   UNL     1      -0.017   1.378   0.010  0.00  0.00    +0.034 A 
ATOM      3  C   UNL     1       1.171   2.086   0.002  0.00  0.00    +0.022 A 
ATOM      4  C   UNL     1       2.378   1.410  -0.013  0.00  0.00    +0.046 A 
ATOM      5  C   UNL     1       2.396   0.027  -0.021  0.00  0.00    -0.010 A 
ATOM      6  C   UNL     1       1.208  -0.680  -0.013  0.00  0.00    +0.039 A 
ATOM      7  C   UNL     1       0.002  -0.004   0.002  0.00  0.00    +0.127 A 
ATOM      8 CL   UNL     1       3.870   2.298  -0.023  0.00  0.00    -0.083 Cl
BRANCH   7   9
ATOM      9  N   UNL     1      -1.270  -0.761   0.011  0.00  0.00    +0.056 N 
ATOM     10  O   UNL     1      -2.325  -0.171   0.024  0.00  0.00    -0.126 OA
ATOM     11  O   UNL     1      -1.254  -1.970   0.004  0.00  0.00    -0.126 OA
ENDBRANCH   7   9
ENDBRANCH   1   5
BRANCH   1  12
ATOM     12  N   UNL     1       4.298  -0.629  -1.377  0.00  0.00    -0.339 N 
ATOM     13  H   UNL     1       3.834  -0.151  -2.082  0.00  0.00    +0.146 HD
BRANCH  12  14
ATOM     14  C   UNL     1       5.527  -1.242  -1.640  0.00  0.00    +0.042 A 
ATOM     15  C   UNL     1       6.189  -1.932  -0.633  0.00  0.00    +0.025 A 
ATOM     16  C   UNL     1       7.403  -2.537  -0.895  0.00  0.00    +0.017 A 
ATOM     17  C   UNL     1       7.960  -2.455  -2.159  0.00  0.00    +0.019 A 
ATOM     18  C   UNL     1       7.303  -1.769  -3.164  0.00  0.00    +0.032 A 
ATOM     19  C   UNL     1       6.085  -1.166  -2.910  0.00  0.00    +0.040 A 
ATOM     20 BR   UNL     1       5.184  -0.234  -4.286  0.00  0.00    -0.048 Br
ATOM     21 BR   UNL     1       9.623  -3.284  -2.513  0.00  0.00    -0.050 Br
ENDBRANCH  12  14
ENDBRANCH   1  12
TORSDOF 4
