REMARK  Name = ZINC01447877
REMARK  7 active torsions:
REMARK  status: ('A' for Active; 'I' for Inactive)
REMARK    1  A    between atoms: C_1  and  O_2
REMARK    2  A    between atoms: O_2  and  C_3
REMARK    3  A    between atoms: C_6  and  C_11
REMARK    4  A    between atoms: C_8  and  O_9
REMARK    5  A    between atoms: O_9  and  C_10
REMARK    6  A    between atoms: C_14  and  C_17
REMARK    7  A    between atoms: C_22  and  O_23
REMARK                            x       y       z     vdW  Elec       q    Type
REMARK                         _______ _______ _______ _____ _____    ______ ____
ROOT
ATOM      1  C   UNL     1      -4.987  -2.627   0.035  0.00  0.00    +0.125 C 
ATOM      2  C   UNL     1      -5.619  -2.608  -1.371  0.00  0.00    +0.086 C 
ATOM      3  C   UNL     1      -6.906  -1.837  -1.182  0.00  0.00    +0.072 C 
ATOM      4  N   UNL     1      -7.016  -1.480   0.051  0.00  0.00    -0.190 NA
ATOM      5  N   UNL     1      -5.954  -1.886   0.861  0.00  0.00    -0.261 N 
ATOM      6  H   UNL     1      -5.866  -1.710   1.811  0.00  0.00    +0.169 HD
ENDROOT
BRANCH   3   7
ATOM      7  C   UNL     1      -7.884  -1.540  -2.244  0.00  0.00    +0.042 A 
ATOM      8  C   UNL     1      -7.659  -1.985  -3.549  0.00  0.00    +0.033 A 
ATOM      9  C   UNL     1      -8.578  -1.704  -4.540  0.00  0.00    +0.043 A 
ATOM     10  C   UNL     1      -9.723  -0.981  -4.245  0.00  0.00    +0.043 A 
ATOM     11  C   UNL     1      -9.955  -0.535  -2.957  0.00  0.00    +0.084 A 
ATOM     12  C   UNL     1      -9.045  -0.815  -1.950  0.00  0.00    +0.144 A 
ATOM     13 CL   UNL     1     -11.393   0.370  -2.599  0.00  0.00    -0.080 Cl
ATOM     14 CL   UNL     1      -8.299  -2.257  -6.161  0.00  0.00    -0.083 Cl
BRANCH  12  15
ATOM     15  O   UNL     1      -9.276  -0.383  -0.682  0.00  0.00    -0.505 OA
ATOM     16  H   UNL     1      -8.918   0.496  -0.495  0.00  0.00    +0.292 HD
ENDBRANCH  12  15
ENDBRANCH   3   7
BRANCH   1  20
ATOM     17  C   UNL     1      -1.201  -0.638   0.010  0.00  0.00    +0.162 A 
ATOM     18  C   UNL     1      -2.374   0.099   0.019  0.00  0.00    +0.050 A 
ATOM     19  C   UNL     1      -3.596  -0.546   0.027  0.00  0.00    +0.009 A 
ATOM     20  C   UNL     1      -3.652  -1.928   0.026  0.00  0.00    -0.022 A 
ATOM     21  C   UNL     1      -2.485  -2.669   0.017  0.00  0.00    +0.055 A 
ATOM     22  C   UNL     1      -1.257  -2.028   0.003  0.00  0.00    +0.162 A 
BRANCH  17  24
ATOM     23  C   UNL     1      -0.017   1.425   0.010  0.00  0.00    +0.277 C 
ATOM     24  O   UNL     1       0.002  -0.004   0.002  0.00  0.00    -0.491 OA
ENDBRANCH  17  24
BRANCH  22  25
ATOM     25  O   UNL     1      -0.108  -2.756  -0.012  0.00  0.00    -0.491 OA
ATOM     26  C   UNL     1      -0.242  -4.179  -0.018  0.00  0.00    +0.277 C 
ENDBRANCH  22  25
ENDBRANCH   1  20
TORSDOF 5
