REMARK  Name = ZINC62575970
REMARK  6 active torsions:
REMARK  status: ('A' for Active; 'I' for Inactive)
REMARK    1  A    between atoms: C_1  and  C_2
REMARK    2  A    between atoms: C_2  and  C_3
REMARK    3  A    between atoms: C_2  and  C_4
REMARK    4  A    between atoms: C_7  and  S_10
REMARK    5  A    between atoms: S_10  and  N_13
REMARK    6  A    between atoms: N_16  and  C_19
REMARK                            x       y       z     vdW  Elec       q    Type
REMARK                         _______ _______ _______ _____ _____    ______ ____
ROOT
ATOM      1  N   UNL     1      -6.602  -0.969  -0.722  0.00  0.00    -0.174 NA
ATOM      2  C   UNL     1      -7.218   0.141   0.020  0.00  0.00    +0.128 C 
ATOM      3  C   UNL     1      -6.798   1.462  -0.637  0.00  0.00    +0.122 C 
ATOM      4  N   UNL     1      -7.032   1.361  -2.085  0.00  0.00    -0.327 N 
ATOM      5  C   UNL     1      -6.416   0.252  -2.826  0.00  0.00    +0.122 C 
ATOM      6  C   UNL     1      -6.831  -1.066  -2.170  0.00  0.00    +0.128 C 
ENDROOT
BRANCH   4   7
ATOM      7  C   UNL     1      -7.827   2.304  -2.745  0.00  0.00    +0.030 A 
ATOM      8  C   UNL     1      -8.498   3.281  -2.020  0.00  0.00    +0.025 A 
ATOM      9  C   UNL     1      -9.282   4.212  -2.668  0.00  0.00    +0.025 A 
ATOM     10  C   UNL     1      -9.408   4.180  -4.056  0.00  0.00    +0.037 A 
ATOM     11  C   UNL     1      -8.733   3.200  -4.772  0.00  0.00    -0.016 A 
ATOM     12  C   UNL     1      -7.945   2.272  -4.129  0.00  0.00    +0.029 A 
ATOM     13  C   UNL     1      -9.067   3.430  -6.228  0.00  0.00    +0.133 C 
ATOM     14  C   UNL     1      -9.987   4.632  -6.209  0.00  0.00    +0.222 C 
ATOM     15  O   UNL     1     -10.498   5.163  -7.173  0.00  0.00    -0.275 OA
ATOM     16  N   UNL     1     -10.131   5.001  -4.925  0.00  0.00    -0.285 N 
ATOM     17  H   UNL     1     -10.675   5.750  -4.636  0.00  0.00    +0.155 HD
ENDBRANCH   4   7
BRANCH   1  18
ATOM     18  S   UNL     1      -5.661  -2.085   0.059  0.00  0.00    +0.061 S 
ATOM     19  O   UNL     1      -5.683  -3.263  -0.736  0.00  0.00    -0.153 OA
ATOM     20  O   UNL     1      -6.068  -2.078   1.421  0.00  0.00    -0.153 OA
BRANCH  18  24
ATOM     21  C   UNL     1      -1.405  -0.546  -0.025  0.00  0.00    -0.045 A 
ATOM     22  C   UNL     1      -2.240  -0.211   1.024  0.00  0.00    +0.006 A 
ATOM     23  C   UNL     1      -3.540  -0.681   1.050  0.00  0.00    +0.029 A 
ATOM     24  C   UNL     1      -4.005  -1.485   0.026  0.00  0.00    +0.105 A 
ATOM     25  C   UNL     1      -3.169  -1.820  -1.023  0.00  0.00    +0.029 A 
ATOM     26  C   UNL     1      -1.871  -1.346  -1.051  0.00  0.00    +0.006 A 
BRANCH  21  28
ATOM     27  C   UNL     1       0.002   1.496  -0.056  0.00  0.00    +0.012 C 
ATOM     28  C   UNL     1       0.012  -0.034  -0.053  0.00  0.00    +0.013 C 
ATOM     29  C   UNL     1       0.760  -0.536   1.184  0.00  0.00    +0.012 C 
ENDBRANCH  21  28
ENDBRANCH  18  24
ENDBRANCH   1  18
TORSDOF 4
