REMARK  Name = ZINC06813340
REMARK  5 active torsions:
REMARK  status: ('A' for Active; 'I' for Inactive)
REMARK    1  A    between atoms: C_1  and  C_2
REMARK    2  A    between atoms: C_9  and  S_12
REMARK    3  A    between atoms: S_12  and  C_13
REMARK    4  A    between atoms: C_13  and  C_14
REMARK    5  A    between atoms: N_16  and  C_17
REMARK                            x       y       z     vdW  Elec       q    Type
REMARK                         _______ _______ _______ _____ _____    ______ ____
ROOT
ATOM      1  C   UNL     1      -1.326   1.929  -0.142  0.00  0.00    +0.173 C 
ENDROOT
BRANCH   1   2
ATOM      2  C   UNL     1      -0.003   1.208  -0.158  0.00  0.00    +0.227 C 
ATOM      3  O   UNL     1       0.031   0.006  -0.318  0.00  0.00    -0.275 OA
ATOM      4  N   UNL     1       1.143   1.898   0.001  0.00  0.00    -0.285 N 
ATOM      5  H   UNL     1       1.123   2.867   0.053  0.00  0.00    +0.155 HD
BRANCH   4   6
ATOM      6  C   UNL     1       2.363   1.219   0.092  0.00  0.00    +0.036 A 
ATOM      7  C   UNL     1       2.420  -0.030   0.696  0.00  0.00    +0.043 A 
ATOM      8  C   UNL     1       3.626  -0.702   0.780  0.00  0.00    +0.044 A 
ATOM      9  C   UNL     1       4.777  -0.126   0.271  0.00  0.00    +0.040 A 
ATOM     10  C   UNL     1       4.724   1.121  -0.326  0.00  0.00    +0.044 A 
ATOM     11  C   UNL     1       3.520   1.795  -0.417  0.00  0.00    +0.043 A 
ATOM     12 CL   UNL     1       6.170   1.841  -0.963  0.00  0.00    -0.083 Cl
ATOM     13 CL   UNL     1       3.697  -2.266   1.530  0.00  0.00    -0.083 Cl
ENDBRANCH   4   6
ENDBRANCH   1   2
BRANCH   1  14
ATOM     14  S   UNL     1      -2.666   0.737  -0.386  0.00  0.00    -0.079 S 
BRANCH  14  23
ATOM     15  C   UNL     1      -7.637   6.558   0.093  0.00  0.00    +0.044 C 
ATOM     16  C   UNL     1      -7.100   5.159  -0.063  0.00  0.00    -0.048 A 
ATOM     17  C   UNL     1      -7.978   4.103  -0.260  0.00  0.00    +0.005 A 
ATOM     18  C   UNL     1      -7.501   2.816  -0.404  0.00  0.00    +0.028 A 
ATOM     19  C   UNL     1      -6.136   2.576  -0.353  0.00  0.00    +0.067 A 
ATOM     20  C   UNL     1      -5.244   3.641  -0.153  0.00  0.00    +0.090 A 
ATOM     21  C   UNL     1      -5.742   4.939  -0.009  0.00  0.00    +0.033 A 
ATOM     22  N   UNL     1      -3.990   3.116  -0.141  0.00  0.00    -0.222 NA
ATOM     23  C   UNL     1      -4.054   1.821  -0.326  0.00  0.00    +0.168 A 
ATOM     24  N   UNL     1      -5.358   1.435  -0.459  0.00  0.00    -0.333 N 
ATOM     25  H   UNL     1      -5.688   0.502  -0.606  0.00  0.00    +0.168 HD
ENDBRANCH  14  23
ENDBRANCH   1  14
TORSDOF 4
