REMARK  Name = ZINC58888722
REMARK  10 active torsions:
REMARK  status: ('A' for Active; 'I' for Inactive)
REMARK    1  A    between atoms: C_1  and  C_2
REMARK    2  A    between atoms: C_3  and  C_19
REMARK    3  A    between atoms: N_10  and  C_11
REMARK    4  A    between atoms: C_11  and  C_12
REMARK    5  A    between atoms: N_20  and  N_21
REMARK    6  A    between atoms: C_22  and  C_24
REMARK    7  A    between atoms: C_24  and  C_25
REMARK    8  A    between atoms: C_25  and  C_26
REMARK    9  A    between atoms: C_26  and  C_28
REMARK   10  A    between atoms: C_26  and  O_34
REMARK                            x       y       z     vdW  Elec       q    Type
REMARK                         _______ _______ _______ _____ _____    ______ ____
ROOT
ATOM      1  C   UNL     1      -0.018   1.503   0.010  0.00  0.00    +0.064 C 
ATOM      2  C   UNL     1       0.002  -0.004   0.002  0.00  0.00    +0.026 A 
ATOM      3  C   UNL     1       0.008  -0.781  -1.115  0.00  0.00    +0.023 A 
ATOM      4  C   UNL     1       0.030  -2.180  -0.653  0.00  0.00    +0.009 A 
ATOM      5  C   UNL     1       0.044  -3.413  -1.303  0.00  0.00    +0.010 A 
ATOM      6  C   UNL     1       0.063  -4.574  -0.563  0.00  0.00    +0.001 A 
ATOM      7  C   UNL     1       0.068  -4.521   0.824  0.00  0.00    +0.002 A 
ATOM      8  C   UNL     1       0.054  -3.310   1.480  0.00  0.00    +0.026 A 
ATOM      9  C   UNL     1       0.035  -2.125   0.750  0.00  0.00    +0.050 A 
ATOM     10  N   UNL     1       0.023  -0.795   1.112  0.00  0.00    -0.339 N 
ENDROOT
BRANCH   3  11
ATOM     11  C   UNL     1      -0.005  -0.316  -2.511  0.00  0.00    +0.140 C 
ATOM     12  N   UNL     1       0.003  -1.177  -3.483  0.00  0.00    -0.188 NA
BRANCH  12  13
ATOM     13  N   UNL     1      -0.009  -0.734  -4.812  0.00  0.00    -0.207 N 
ATOM     14  C   UNL     1      -0.001  -1.628  -5.821  0.00  0.00    +0.232 C 
ATOM     15  O   UNL     1       0.017  -2.816  -5.578  0.00  0.00    -0.274 OA
ATOM     16  H   UNL     1      -0.024   0.216  -5.006  0.00  0.00    +0.177 HD
BRANCH  14  17
ATOM     17  C   UNL     1      -0.015  -1.151  -7.250  0.00  0.00    +0.100 C 
BRANCH  17  18
ATOM     18  C   UNL     1      -0.002  -2.358  -8.190  0.00  0.00    +0.045 C 
BRANCH  18  19
ATOM     19  C   UNL     1      -0.015  -1.873  -9.642  0.00  0.00    +0.145 C 
BRANCH  19  20
ATOM     20  C   UNL     1      -0.126  -3.059 -10.566  0.00  0.00    -0.019 A 
ATOM     21  C   UNL     1       0.994  -3.814 -10.859  0.00  0.00    +0.006 A 
ATOM     22  C   UNL     1       0.891  -4.902 -11.706  0.00  0.00    +0.000 A 
ATOM     23  C   UNL     1      -0.331  -5.234 -12.260  0.00  0.00    +0.000 A 
ATOM     24  C   UNL     1      -1.451  -4.479 -11.966  0.00  0.00    +0.000 A 
ATOM     25  C   UNL     1      -1.349  -3.394 -11.116  0.00  0.00    +0.006 A 
ENDBRANCH  19  20
BRANCH  19  26
ATOM     26  O   UNL     1       1.195  -1.165  -9.919  0.00  0.00    -0.387 OA
ATOM     27  H   UNL     1       1.996  -1.695  -9.802  0.00  0.00    +0.210 HD
ENDBRANCH  19  26
ENDBRANCH  18  19
ENDBRANCH  17  18
ENDBRANCH  14  17
ENDBRANCH  12  13
ENDBRANCH   3  11
BRANCH  10  28
ATOM     28  C   UNL     1       0.029  -0.301   2.491  0.00  0.00    +0.157 C 
BRANCH  28  29
ATOM     29  C   UNL     1      -1.390  -0.153   2.978  0.00  0.00    -0.028 A 
ATOM     30  C   UNL     1      -2.062   1.041   2.792  0.00  0.00    +0.006 A 
ATOM     31  C   UNL     1      -3.364   1.177   3.238  0.00  0.00    +0.015 A 
ATOM     32  C   UNL     1      -3.993   0.119   3.869  0.00  0.00    +0.018 A 
ATOM     33  C   UNL     1      -3.320  -1.075   4.054  0.00  0.00    +0.015 A 
ATOM     34  C   UNL     1      -2.020  -1.212   3.603  0.00  0.00    +0.006 A 
ATOM     35 BR   UNL     1      -5.773   0.305   4.479  0.00  0.00    -0.050 Br
ENDBRANCH  28  29
ENDBRANCH  10  28
TORSDOF 9
