REMARK  Name = ZINC30822914
REMARK  4 active torsions:
REMARK  status: ('A' for Active; 'I' for Inactive)
REMARK    1  A    between atoms: C_1  and  C_2
REMARK    2  A    between atoms: N_8  and  C_9
REMARK    3  A    between atoms: C_9  and  C_10
REMARK    4  A    between atoms: C_10  and  C_11
REMARK                            x       y       z     vdW  Elec       q    Type
REMARK                         _______ _______ _______ _____ _____    ______ ____
ROOT
ATOM      1  C   UNL     1      -0.018   1.503   0.010  0.00  0.00    +0.064 C 
ATOM      2  C   UNL     1       0.002  -0.004   0.002  0.00  0.00    +0.033 A 
ATOM      3  C   UNL     1       0.006  -0.682  -1.190  0.00  0.00    +0.085 A 
ATOM      4  C   UNL     1       0.026  -2.152  -1.178  0.00  0.00    +0.075 A 
ATOM      5  C   UNL     1       0.041  -2.795   0.041  0.00  0.00    +0.098 A 
ATOM      6  C   UNL     1       0.035  -2.026   1.211  0.00  0.00    +0.254 A 
ATOM      7  O   UNL     1       0.049  -2.587   2.295  0.00  0.00    -0.268 OA
ATOM      8  N   UNL     1       0.022  -0.684   1.167  0.00  0.00    -0.311 N 
ATOM      9  N   UNL     1       0.026  -2.555  -2.491  0.00  0.00    -0.288 N 
ATOM     10  H   UNL     1       0.037  -3.478  -2.790  0.00  0.00    +0.188 HD
ATOM     11  N   UNL     1       0.007  -1.438  -3.330  0.00  0.00    -0.194 N 
ATOM     12  C   UNL     1      -0.006  -0.300  -2.608  0.00  0.00    +0.283 A 
ATOM     13  O   UNL     1      -0.024   0.833  -3.050  0.00  0.00    -0.265 OA
ATOM     14  C   UNL     1       0.002  -1.493  -4.714  0.00  0.00    +0.196 A 
ATOM     15  N   UNL     1      -0.010  -0.504  -5.577  0.00  0.00    -0.221 NA
ATOM     16  C   UNL     1      -0.013  -0.707  -6.912  0.00  0.00    +0.081 A 
ATOM     17  C   UNL     1      -0.025   0.262  -7.942  0.00  0.00    +0.029 A 
ATOM     18  C   UNL     1      -0.028  -0.116  -9.259  0.00  0.00    +0.002 A 
ATOM     19  C   UNL     1      -0.019  -1.453  -9.630  0.00  0.00    +0.001 A 
ATOM     20  C   UNL     1      -0.007  -2.427  -8.649  0.00  0.00    +0.017 A 
ATOM     21  C   UNL     1      -0.004  -2.058  -7.327  0.00  0.00    +0.041 A 
ATOM     22  S   UNL     1       0.016  -2.929  -5.779  0.00  0.00    -0.048 S 
ENDROOT
BRANCH   8  23
ATOM     23  C   UNL     1       0.024   0.067   2.425  0.00  0.00    +0.130 C 
BRANCH  23  24
ATOM     24  C   UNL     1      -1.418   0.308   2.877  0.00  0.00    +0.064 C 
BRANCH  24  25
ATOM     25  C   UNL     1      -1.417   1.080   4.171  0.00  0.00    -0.009 A 
ATOM     26  C   UNL     1      -1.440   2.421   4.365  0.00  0.00    +0.011 A 
ATOM     27  C   UNL     1      -1.434   2.912   5.657  0.00  0.00    +0.008 A 
ATOM     28  C   UNL     1      -1.406   2.037   6.692  0.00  0.00    +0.045 A 
ATOM     29  S   UNL     1      -1.393   0.465   5.847  0.00  0.00    -0.102 S 
ENDBRANCH  24  25
ENDBRANCH  23  24
ENDBRANCH   8  23
TORSDOF 3
