REMARK  Name = ZINC12619226
REMARK  7 active torsions:
REMARK  status: ('A' for Active; 'I' for Inactive)
REMARK    1  A    between atoms: C_4  and  C_7
REMARK    2  A    between atoms: C_7  and  C_8
REMARK    3  A    between atoms: C_13  and  N_14
REMARK    4  A    between atoms: C_13  and  N_65
REMARK    5  A    between atoms: C_18  and  C_20
REMARK    6  A    between atoms: C_24  and  S_26
REMARK    7  A    between atoms: S_26  and  N_29
REMARK                            x       y       z     vdW  Elec       q    Type
REMARK                         _______ _______ _______ _____ _____    ______ ____
ROOT
ATOM      1  N   UNL     1       4.540   4.471  -0.019  0.00  0.00    -0.240 N 
ATOM      2  C   UNL     1       3.828   5.618  -0.007  0.00  0.00    +0.265 A 
ATOM      3  S   UNL     1       4.466   7.206  -0.006  0.00  0.00    +0.011 S 
ATOM      4  O   UNL     1       2.526   5.284  -0.000  0.00  0.00    -0.412 OA
ATOM      5  C   UNL     1       2.421   3.937  -0.000  0.00  0.00    +0.247 A 
ATOM      6  N   UNL     1       3.614   3.417  -0.015  0.00  0.00    -0.131 NA
ENDROOT
BRANCH   5   7
ATOM      7  C   UNL     1       1.153   3.176   0.008  0.00  0.00    +0.040 A 
ATOM      8  C   UNL     1       1.173   1.780   0.000  0.00  0.00    +0.013 A 
ATOM      9  C   UNL     1      -0.013   1.076   0.008  0.00  0.00    +0.003 A 
ATOM     10  C   UNL     1      -1.221   1.750   0.017  0.00  0.00    +0.028 A 
ATOM     11  C   UNL     1      -1.248   3.133   0.031  0.00  0.00    +0.106 A 
ATOM     12  C   UNL     1      -0.069   3.849   0.023  0.00  0.00    +0.041 A 
BRANCH  11  13
ATOM     13  S   UNL     1      -2.792   3.981   0.050  0.00  0.00    +0.061 S 
ATOM     14  O   UNL     1      -3.743   3.083   0.605  0.00  0.00    -0.153 OA
ATOM     15  O   UNL     1      -2.543   5.266   0.605  0.00  0.00    -0.153 OA
BRANCH  13  16
ATOM     16  N   UNL     1      -3.236   4.225  -1.527  0.00  0.00    -0.172 NA
ATOM     17  C   UNL     1      -2.837   5.445  -2.247  0.00  0.00    +0.137 C 
ATOM     18  C   UNL     1      -2.204   5.027  -3.584  0.00  0.00    +0.177 C 
ATOM     19  O   UNL     1      -3.098   4.149  -4.272  0.00  0.00    -0.377 OA
ATOM     20  C   UNL     1      -3.360   2.924  -3.584  0.00  0.00    +0.177 C 
ATOM     21  C   UNL     1      -4.047   3.231  -2.248  0.00  0.00    +0.137 C 
ENDBRANCH  13  16
ENDBRANCH  11  13
ENDBRANCH   5   7
BRANCH   1  22
ATOM     22  C   UNL     1       6.000   4.350  -0.035  0.00  0.00    +0.073 C 
BRANCH  22  28
ATOM     23  C   UNL     1       7.917   3.296  -3.709  0.00  0.00    -0.010 C 
ATOM     24  C   UNL     1       8.380   4.540  -2.947  0.00  0.00    -0.015 C 
ATOM     25  C   UNL     1       7.936   4.433  -1.486  0.00  0.00    -0.076 C 
ATOM     26  C   UNL     1       6.009   3.102  -2.110  0.00  0.00    -0.076 C 
ATOM     27  C   UNL     1       6.396   3.170  -3.589  0.00  0.00    -0.015 C 
ATOM     28  N   UNL     1       6.461   4.340  -1.439  0.00  0.00    +0.393 N 
ATOM     29  H   UNL     1       6.060   5.149  -1.928  0.00  0.00    -0.079 HD
BRANCH  23  30
ATOM     30  C   UNL     1       8.306   3.424  -5.183  0.00  0.00    +0.038 C 
BRANCH  30  34
ATOM     31  C   UNL     1       7.328  -0.193  -7.235  0.00  0.00    +0.000 A 
ATOM     32  C   UNL     1       6.399   0.828  -7.151  0.00  0.00    +0.000 A 
ATOM     33  C   UNL     1       6.716   1.998  -6.488  0.00  0.00    +0.003 A 
ATOM     34  C   UNL     1       7.961   2.148  -5.907  0.00  0.00    -0.047 A 
ATOM     35  C   UNL     1       8.892   1.129  -5.994  0.00  0.00    +0.003 A 
ATOM     36  C   UNL     1       8.573  -0.043  -6.654  0.00  0.00    +0.000 A 
ENDBRANCH  30  34
ENDBRANCH  23  30
ENDBRANCH  22  28
ENDBRANCH   1  22
TORSDOF 7
