REMARK  Name = ZINC01114397
REMARK  7 active torsions:
REMARK  status: ('A' for Active; 'I' for Inactive)
REMARK    1  A    between atoms: C_1  and  C_2
REMARK    2  A    between atoms: C_9  and  N_14
REMARK    3  A    between atoms: C_10  and  C_11
REMARK    4  A    between atoms: C_15  and  C_17
REMARK    5  A    between atoms: C_17  and  C_19
REMARK    6  A    between atoms: C_17  and  O_20
REMARK    7  A    between atoms: O_20  and  C_21
REMARK                            x       y       z     vdW  Elec       q    Type
REMARK                         _______ _______ _______ _____ _____    ______ ____
ROOT
ATOM      1  C   UNL     1      -6.285   0.609  -4.478  0.00  0.00    +0.008 C 
ATOM      2  C   UNL     1      -5.449   1.113  -3.300  0.00  0.00    -0.009 C 
ATOM      3  C   UNL     1      -3.962   0.890  -3.593  0.00  0.00    +0.008 C 
ATOM      4  C   UNL     1      -3.112   1.607  -2.543  0.00  0.00    +0.037 C 
ATOM      5  C   UNL     1      -3.585   1.186  -1.157  0.00  0.00    -0.023 A 
ATOM      6  C   UNL     1      -4.800   0.623  -0.978  0.00  0.00    -0.004 A 
ATOM      7  S   UNL     1      -4.902   0.310   0.761  0.00  0.00    -0.077 S 
ATOM      8  C   UNL     1      -3.352   0.914   1.246  0.00  0.00    +0.084 A 
ATOM      9  C   UNL     1      -2.795   1.349   0.051  0.00  0.00    +0.068 A 
ATOM     10  C   UNL     1      -5.825   0.333  -2.031  0.00  0.00    +0.046 C 
ENDROOT
BRANCH   9  11
ATOM     11  C   UNL     1      -1.457   1.947   0.010  0.00  0.00    +0.244 C 
ATOM     12  O   UNL     1      -1.323   3.149   0.139  0.00  0.00    -0.270 OA
ATOM     13  N   UNL     1      -0.375   1.163  -0.172  0.00  0.00    -0.325 N 
ATOM     14  H   UNL     1      -0.482   0.205  -0.275  0.00  0.00    +0.145 HD
ATOM     15  H   UNL     1       0.510   1.559  -0.203  0.00  0.00    +0.145 HD
ENDBRANCH   9  11
BRANCH   8  16
ATOM     16  N   UNL     1      -2.802   0.955   2.518  0.00  0.00    -0.276 N 
ATOM     17  C   UNL     1      -3.500   0.480   3.569  0.00  0.00    +0.258 C 
ATOM     18  O   UNL     1      -4.608   0.018   3.402  0.00  0.00    -0.271 OA
ATOM     19  H   UNL     1      -1.915   1.325   2.651  0.00  0.00    +0.155 HD
BRANCH  17  20
ATOM     20  C   UNL     1      -2.902   0.524   4.952  0.00  0.00    +0.256 C 
ATOM     21  C   UNL     1      -2.718   1.981   5.381  0.00  0.00    +0.062 C 
BRANCH  20  22
ATOM     22  O   UNL     1      -3.776  -0.137   5.869  0.00  0.00    -0.478 OA
BRANCH  22  23
ATOM     23  C   UNL     1      -3.214  -0.649   6.996  0.00  0.00    +0.140 A 
ATOM     24  C   UNL     1      -1.873  -0.421   7.269  0.00  0.00    +0.048 A 
ATOM     25  C   UNL     1      -1.304  -0.943   8.415  0.00  0.00    +0.023 A 
ATOM     26  C   UNL     1      -2.070  -1.692   9.290  0.00  0.00    +0.043 A 
ATOM     27  C   UNL     1      -3.408  -1.921   9.021  0.00  0.00    +0.043 A 
ATOM     28  C   UNL     1      -3.983  -1.395   7.878  0.00  0.00    +0.084 A 
ATOM     29 CL   UNL     1      -5.663  -1.676   7.544  0.00  0.00    -0.080 Cl
ATOM     30 CL   UNL     1      -1.352  -2.346  10.729  0.00  0.00    -0.083 Cl
ENDBRANCH  22  23
ENDBRANCH  20  22
ENDBRANCH  17  20
ENDBRANCH   8  16
TORSDOF 5
