REMARK  Name = ZINC21248347
REMARK  10 active torsions:
REMARK  status: ('A' for Active; 'I' for Inactive)
REMARK    1  A    between atoms: C_1  and  C_2
REMARK    2  A    between atoms: C_2  and  O_3
REMARK    3  A    between atoms: O_3  and  C_4
REMARK    4  A    between atoms: C_7  and  C_10
REMARK    5  A    between atoms: C_15  and  C_21
REMARK    6  A    between atoms: C_23  and  O_31
REMARK    7  A    between atoms: C_24  and  O_28
REMARK    8  A    between atoms: O_28  and  C_29
REMARK    9  A    between atoms: C_29  and  C_30
REMARK   10  A    between atoms: O_31  and  C_32
REMARK                            x       y       z     vdW  Elec       q    Type
REMARK                         _______ _______ _______ _____ _____    ______ ____
ROOT
ATOM      1  C   UNL     1       2.617  -4.642   5.637  0.00  0.00    +0.032 C 
ATOM      2  C   UNL     1       2.247  -3.436   6.503  0.00  0.00    +0.059 C 
ATOM      3  C   UNL     1       2.553  -2.163   5.755  0.00  0.00    +0.018 C 
ATOM      4  C   UNL     1       2.476  -2.116   4.408  0.00  0.00    +0.020 C 
ATOM      5  C   UNL     1       2.776  -0.826   3.682  0.00  0.00    +0.063 C 
ATOM      6  C   UNL     1       3.886  -0.074   4.418  0.00  0.00    +0.109 C 
ATOM      7  C   UNL     1       3.557  -0.024   5.888  0.00  0.00    +0.218 C 
ATOM      8  O   UNL     1       3.879   0.941   6.547  0.00  0.00    -0.275 OA
ATOM      9  N   UNL     1       2.908  -1.047   6.470  0.00  0.00    -0.289 N 
ATOM     10  C   UNL     1       2.123  -3.248   3.656  0.00  0.00    +0.162 C 
ATOM     11  O   UNL     1       2.055  -3.165   2.446  0.00  0.00    -0.292 OA
ATOM     12  C   UNL     1       1.828  -4.564   4.326  0.00  0.00    +0.088 C 
ATOM     13  H   UNL     1       2.661  -0.978   7.540  0.00  0.00    +0.155 HD
ENDROOT
BRANCH   5  14
ATOM     14  C   UNL     1       1.534   0.027   3.639  0.00  0.00    -0.035 A 
ATOM     15  C   UNL     1       0.990   0.393   2.422  0.00  0.00    +0.053 A 
ATOM     16  C   UNL     1      -0.148   1.182   2.380  0.00  0.00    +0.163 A 
ATOM     17  C   UNL     1      -0.748   1.595   3.566  0.00  0.00    +0.176 A 
ATOM     18  C   UNL     1      -0.201   1.220   4.783  0.00  0.00    +0.063 A 
ATOM     19  C   UNL     1       0.939   0.437   4.817  0.00  0.00    +0.023 A 
ATOM     20 BR   UNL     1      -1.012   1.780   6.397  0.00  0.00    -0.046 Br
BRANCH  16  21
ATOM     21  O   UNL     1      -0.682   1.547   1.184  0.00  0.00    -0.491 OA
ATOM     22  C   UNL     1      -0.013   1.086   0.008  0.00  0.00    +0.277 C 
ENDBRANCH  16  21
BRANCH  17  23
ATOM     23  O   UNL     1      -1.869   2.366   3.531  0.00  0.00    -0.487 OA
BRANCH  23  24
ATOM     24  C   UNL     1      -3.124   1.684   3.514  0.00  0.00    +0.226 C 
ATOM     25  C   UNL     1      -4.260   2.709   3.475  0.00  0.00    +0.048 C 
ENDBRANCH  23  24
ENDBRANCH  17  23
ENDBRANCH   5  14
BRANCH   1  29
ATOM     26  C   UNL     1       1.619  -8.250   7.699  0.00  0.00    +0.121 A 
ATOM     27  C   UNL     1       2.932  -8.002   7.329  0.00  0.00    +0.046 A 
ATOM     28  C   UNL     1       3.253  -6.835   6.662  0.00  0.00    +0.007 A 
ATOM     29  C   UNL     1       2.265  -5.914   6.364  0.00  0.00    -0.043 A 
ATOM     30  C   UNL     1       0.956  -6.156   6.737  0.00  0.00    +0.007 A 
ATOM     31  C   UNL     1       0.629  -7.324   7.399  0.00  0.00    +0.046 A 
BRANCH  26  32
ATOM     32  O   UNL     1       1.301  -9.397   8.355  0.00  0.00    -0.492 OA
BRANCH  32  34
ATOM     33  C   UNL     1      -0.234 -10.922   9.430  0.00  0.00    +0.048 C 
ATOM     34  C   UNL     1      -0.072  -9.585   8.705  0.00  0.00    +0.225 C 
ENDBRANCH  32  34
ENDBRANCH  26  32
ENDBRANCH   1  29
TORSDOF 7
