REMARK  Name = ZINC39938924
REMARK  7 active torsions:
REMARK  status: ('A' for Active; 'I' for Inactive)
REMARK    1  A    between atoms: C_1  and  C_2
REMARK    2  A    between atoms: C_2  and  C_4
REMARK    3  A    between atoms: C_2  and  S_21
REMARK    4  A    between atoms: N_9  and  S_12
REMARK    5  A    between atoms: S_12  and  C_15
REMARK    6  A    between atoms: S_21  and  C_22
REMARK    7  A    between atoms: C_26  and  C_28
REMARK                            x       y       z     vdW  Elec       q    Type
REMARK                         _______ _______ _______ _____ _____    ______ ____
ROOT
ATOM      1  C   UNL     1      -0.019   1.526   0.010  0.00  0.00    +0.029 C 
ATOM      2  C   UNL     1       0.002  -0.004   0.002  0.00  0.00    +0.134 C 
ENDROOT
BRANCH   2   3
ATOM      3  C   UNL     1       0.707  -0.490  -1.238  0.00  0.00    +0.228 C 
ATOM      4  O   UNL     1       1.864  -0.849  -1.176  0.00  0.00    -0.274 OA
ATOM      5  N   UNL     1       0.053  -0.526  -2.415  0.00  0.00    -0.298 N 
ATOM      6  C   UNL     1      -1.347  -0.089  -2.506  0.00  0.00    +0.125 C 
ATOM      7  C   UNL     1      -1.452   0.999  -3.583  0.00  0.00    +0.128 C 
ATOM      8  N   UNL     1      -0.779   0.522  -4.799  0.00  0.00    -0.174 NA
ATOM      9  C   UNL     1       0.621   0.084  -4.708  0.00  0.00    +0.128 C 
ATOM     10  C   UNL     1       0.728  -0.998  -3.633  0.00  0.00    +0.125 C 
BRANCH   8  11
ATOM     11  S   UNL     1      -1.583   0.478  -6.246  0.00  0.00    +0.061 S 
ATOM     12  O   UNL     1      -0.927  -0.496  -7.046  0.00  0.00    -0.153 OA
ATOM     13  O   UNL     1      -2.969   0.403  -5.938  0.00  0.00    -0.153 OA
BRANCH  11  14
ATOM     14  C   UNL     1      -1.325   2.033  -7.033  0.00  0.00    +0.105 A 
ATOM     15  C   UNL     1      -2.202   3.077  -6.805  0.00  0.00    +0.028 A 
ATOM     16  C   UNL     1      -2.000   4.297  -7.423  0.00  0.00    +0.002 A 
ATOM     17  C   UNL     1      -0.920   4.473  -8.268  0.00  0.00    +0.000 A 
ATOM     18  C   UNL     1      -0.043   3.429  -8.495  0.00  0.00    +0.002 A 
ATOM     19  C   UNL     1      -0.243   2.210  -7.874  0.00  0.00    +0.028 A 
ENDBRANCH  11  14
ENDBRANCH   8  11
ENDBRANCH   2   3
BRANCH   2  20
ATOM     20  S   UNL     1       0.879  -0.605   1.472  0.00  0.00    -0.084 S 
BRANCH  20  21
ATOM     21  C   UNL     1      -0.166  -0.072   2.855  0.00  0.00    +0.340 C 
ATOM     22  N   UNL     1      -1.521  -0.631   2.721  0.00  0.00    -0.219 N 
ATOM     23  N   UNL     1      -2.376   0.476   2.619  0.00  0.00    -0.145 NA
ATOM     24  C   UNL     1      -1.686   1.584   2.678  0.00  0.00    +0.238 C 
ATOM     25  O   UNL     1      -0.356   1.350   2.820  0.00  0.00    -0.443 OA
ATOM     26  H   UNL     1      -1.771  -1.568   2.706  0.00  0.00    +0.173 HD
BRANCH  24  27
ATOM     27  C   UNL     1      -2.252   2.865   2.604  0.00  0.00    +0.043 C 
ATOM     28  C   UNL     1      -3.603   3.183   2.466  0.00  0.00    +0.008 A 
ATOM     29  C   UNL     1      -4.764   2.388   2.362  0.00  0.00    +0.010 A 
ATOM     30  C   UNL     1      -5.979   2.982   2.233  0.00  0.00    +0.001 A 
ATOM     31  C   UNL     1      -6.113   4.372   2.202  0.00  0.00    +0.002 A 
ATOM     32  C   UNL     1      -5.041   5.196   2.297  0.00  0.00    +0.026 A 
ATOM     33  C   UNL     1      -3.739   4.648   2.433  0.00  0.00    +0.043 A 
ATOM     34  N   UNL     1      -2.558   5.224   2.542  0.00  0.00    -0.380 N 
ATOM     35  C   UNL     1      -1.525   4.190   2.664  0.00  0.00    +0.154 C 
ATOM     36  H   UNL     1      -2.397   6.181   2.545  0.00  0.00    +0.160 HD
ENDBRANCH  24  27
ENDBRANCH  20  21
ENDBRANCH   2  20
TORSDOF 6
