REMARK  Name = ZINC40149031
REMARK  7 active torsions:
REMARK  status: ('A' for Active; 'I' for Inactive)
REMARK    1  A    between atoms: C_1  and  C_2
REMARK    2  A    between atoms: C_2  and  C_3
REMARK    3  A    between atoms: C_6  and  C_9
REMARK    4  A    between atoms: C_9  and  C_11
REMARK    5  A    between atoms: C_9  and  N_12
REMARK    6  A    between atoms: C_13  and  C_15
REMARK    7  A    between atoms: N_23  and  C_24
REMARK                            x       y       z     vdW  Elec       q    Type
REMARK                         _______ _______ _______ _____ _____    ______ ____
ROOT
ATOM      1  C   UNL     1       5.888  -0.338  -6.233  0.00  0.00    +0.163 C 
ATOM      2  C   UNL     1       6.972  -1.095  -5.437  0.00  0.00    +0.033 C 
ATOM      3  C   UNL     1       7.661  -1.960  -6.524  0.00  0.00    +0.021 C 
ATOM      4  C   UNL     1       7.607  -1.018  -7.753  0.00  0.00    +0.110 C 
ATOM      5  N   UNL     1       6.306  -0.326  -7.643  0.00  0.00    -0.274 N 
ATOM      6  C   UNL     1       5.617   0.224  -8.662  0.00  0.00    +0.303 C 
ATOM      7  O   UNL     1       4.550   0.769  -8.451  0.00  0.00    -0.253 OA
ATOM      8  N   UNL     1       6.109   0.169  -9.915  0.00  0.00    -0.296 N 
ATOM      9  H   UNL     1       6.959  -0.266 -10.084  0.00  0.00    +0.151 HD
ENDROOT
BRANCH   8  10
ATOM     10  C   UNL     1       5.359   0.766 -11.023  0.00  0.00    +0.074 C 
ATOM     11  C   UNL     1       4.328  -0.238 -11.542  0.00  0.00    +0.022 C 
ATOM     12  C   UNL     1       3.545   0.386 -12.699  0.00  0.00    +0.002 C 
ATOM     13  C   UNL     1       4.510   0.754 -13.827  0.00  0.00    +0.000 C 
ATOM     14  C   UNL     1       5.541   1.759 -13.309  0.00  0.00    +0.002 C 
ATOM     15  C   UNL     1       6.324   1.135 -12.152  0.00  0.00    +0.022 C 
ENDBRANCH   8  10
BRANCH   1  17
ATOM     16  N   UNL     1       3.993  -1.180  -4.884  0.00  0.00    -0.307 N 
ATOM     17  C   UNL     1       4.564  -1.046  -6.098  0.00  0.00    +0.234 C 
ATOM     18  O   UNL     1       4.013  -1.495  -7.080  0.00  0.00    -0.274 OA
ATOM     19  H   UNL     1       4.434  -0.821  -4.098  0.00  0.00    +0.149 HD
BRANCH  16  20
ATOM     20  C   UNL     1       2.707  -1.868  -4.752  0.00  0.00    +0.100 C 
ATOM     21  C   UNL     1       2.943  -3.376  -4.645  0.00  0.00    +0.033 C 
BRANCH  20  25
ATOM     22  C   UNL     1       0.707  -0.490  -1.238  0.00  0.00    -0.048 A 
ATOM     23  C   UNL     1      -0.011  -0.719  -2.397  0.00  0.00    +0.004 A 
ATOM     24  C   UNL     1       0.636  -1.164  -3.534  0.00  0.00    +0.006 A 
ATOM     25  C   UNL     1       2.002  -1.381  -3.513  0.00  0.00    -0.027 A 
ATOM     26  C   UNL     1       2.720  -1.152  -2.354  0.00  0.00    +0.006 A 
ATOM     27  C   UNL     1       2.073  -0.702  -1.218  0.00  0.00    +0.004 A 
BRANCH  22  29
ATOM     28  C   UNL     1      -0.019   1.526   0.010  0.00  0.00    +0.009 C 
ATOM     29  C   UNL     1       0.002  -0.004   0.002  0.00  0.00    +0.032 C 
ENDBRANCH  22  29
ENDBRANCH  20  25
ENDBRANCH  16  20
ENDBRANCH   1  17
TORSDOF 5
