REMARK  Name = ZINC01474986
REMARK  7 active torsions:
REMARK  status: ('A' for Active; 'I' for Inactive)
REMARK    1  A    between atoms: C_1  and  O_2
REMARK    2  A    between atoms: O_2  and  C_3
REMARK    3  A    between atoms: C_5  and  C_11
REMARK    4  A    between atoms: C_8  and  O_9
REMARK    5  A    between atoms: N_12  and  N_13
REMARK    6  A    between atoms: C_14  and  C_16
REMARK    7  A    between atoms: C_16  and  C_17
REMARK                            x       y       z     vdW  Elec       q    Type
REMARK                         _______ _______ _______ _____ _____    ______ ____
ROOT
ATOM      1  C   UNL     1      -4.026   4.941  -3.176  0.00  0.00    +0.138 C 
ATOM      2  N   UNL     1      -3.023   4.150  -2.948  0.00  0.00    -0.188 NA
ENDROOT
BRANCH   1   5
ATOM      3  C   UNL     1      -5.864   6.393  -6.112  0.00  0.00    +0.163 A 
ATOM      4  C   UNL     1      -5.503   6.099  -4.810  0.00  0.00    +0.059 A 
ATOM      5  C   UNL     1      -4.420   5.252  -4.562  0.00  0.00    -0.001 A 
ATOM      6  C   UNL     1      -3.713   4.697  -5.632  0.00  0.00    +0.028 A 
ATOM      7  C   UNL     1      -4.083   4.989  -6.929  0.00  0.00    +0.063 A 
ATOM      8  C   UNL     1      -5.156   5.835  -7.173  0.00  0.00    +0.173 A 
ATOM      9 BR   UNL     1      -3.126   4.237  -8.376  0.00  0.00    -0.046 Br
BRANCH   3  11
ATOM     10  C   UNL     1      -7.595   7.757  -5.219  0.00  0.00    +0.277 C 
ATOM     11  O   UNL     1      -6.914   7.222  -6.355  0.00  0.00    -0.491 OA
ENDBRANCH   3  11
BRANCH   8  12
ATOM     12  O   UNL     1      -5.516   6.121  -8.453  0.00  0.00    -0.503 OA
ATOM     13  H   UNL     1      -6.167   5.510  -8.824  0.00  0.00    +0.292 HD
ENDBRANCH   8  12
ENDBRANCH   1   5
BRANCH   2  14
ATOM     14  N   UNL     1      -2.649   3.854  -1.631  0.00  0.00    -0.207 N 
ATOM     15  C   UNL     1      -1.607   3.032  -1.394  0.00  0.00    +0.237 C 
ATOM     16  O   UNL     1      -0.993   2.549  -2.322  0.00  0.00    -0.274 OA
ATOM     17  H   UNL     1      -3.140   4.240  -0.889  0.00  0.00    +0.177 HD
BRANCH  15  18
ATOM     18  C   UNL     1      -1.206   2.714   0.023  0.00  0.00    +0.139 C 
BRANCH  18  19
ATOM     19  C   UNL     1      -0.022   1.781   0.012  0.00  0.00    -0.001 A 
ATOM     20  C   UNL     1       1.300   2.079   0.001  0.00  0.00    +0.011 A 
ATOM     21  C   UNL     1       2.220   1.048  -0.013  0.00  0.00    +0.008 A 
ATOM     22  C   UNL     1       1.773  -0.232  -0.016  0.00  0.00    +0.045 A 
ATOM     23  S   UNL     1       0.002  -0.004   0.002  0.00  0.00    -0.101 S 
ENDBRANCH  18  19
ENDBRANCH  15  18
ENDBRANCH   2  14
TORSDOF 6
