REMARK  Name = ZINC40756162
REMARK  8 active torsions:
REMARK  status: ('A' for Active; 'I' for Inactive)
REMARK    1  A    between atoms: C_1  and  N_2
REMARK    2  A    between atoms: C_5  and  N_8
REMARK    3  A    between atoms: N_8  and  C_9
REMARK    4  A    between atoms: C_11  and  N_25
REMARK    5  A    between atoms: C_12  and  N_16
REMARK    6  A    between atoms: N_16  and  C_17
REMARK    7  A    between atoms: C_17  and  C_18
REMARK    8  A    between atoms: C_18  and  C_19
REMARK                            x       y       z     vdW  Elec       q    Type
REMARK                         _______ _______ _______ _____ _____    ______ ____
ROOT
ATOM      1  N   UNL     1       1.230  -4.033  -0.015  0.00  0.00    -0.314 N 
ATOM      2  C   UNL     1       0.602  -3.599  -1.266  0.00  0.00    +0.131 C 
ATOM      3  C   UNL     1       2.375  -4.819  -0.049  0.00  0.00    +0.147 A 
ATOM      4  C   UNL     1       2.280  -6.206  -0.179  0.00  0.00    +0.105 A 
ATOM      5  C   UNL     1       3.461  -6.948  -0.208  0.00  0.00    +0.145 A 
ATOM      6  N   UNL     1       4.626  -6.310  -0.111  0.00  0.00    -0.219 NA
ATOM      7  C   UNL     1       4.672  -4.999   0.010  0.00  0.00    +0.225 A 
ATOM      8  N   UNL     1       3.580  -4.261   0.036  0.00  0.00    -0.219 NA
ENDROOT
BRANCH   1  13
ATOM      9  C   UNL     1      -2.094  -1.753   3.931  0.00  0.00    -0.096 C 
ATOM     10  N   UNL     1      -1.422  -2.212   2.708  0.00  0.00    +0.378 N 
ATOM     11  C   UNL     1      -0.046  -1.703   2.687  0.00  0.00    -0.077 C 
ATOM     12  C   UNL     1       0.633  -2.110   1.377  0.00  0.00    +0.004 C 
ATOM     13  C   UNL     1       0.650  -3.638   1.271  0.00  0.00    +0.071 C 
ATOM     14  C   UNL     1      -0.785  -4.162   1.368  0.00  0.00    +0.004 C 
ATOM     15  C   UNL     1      -1.411  -3.679   2.678  0.00  0.00    -0.077 C 
ATOM     16  H   UNL     1      -1.920  -1.864   1.901  0.00  0.00    -0.082 HD
ENDBRANCH   1  13
BRANCH   4  17
ATOM     17  N   UNL     1       1.028  -6.837  -0.277  0.00  0.00    -0.353 N 
ATOM     18  H   UNL     1       0.220  -6.304  -0.335  0.00  0.00    +0.143 HD
ATOM     19  H   UNL     1       0.973  -7.805  -0.287  0.00  0.00    +0.143 HD
ENDBRANCH   4  17
BRANCH   5  20
ATOM     20  N   UNL     1       3.422  -8.332  -0.335  0.00  0.00    -0.327 N 
ATOM     21  H   UNL     1       2.570  -8.789  -0.404  0.00  0.00    +0.148 HD
BRANCH  20  22
ATOM     22  C   UNL     1       4.670  -9.100  -0.364  0.00  0.00    +0.107 C 
BRANCH  22  23
ATOM     23  C   UNL     1       4.349 -10.588  -0.510  0.00  0.00    +0.049 C 
BRANCH  23  24
ATOM     24  C   UNL     1       5.632 -11.378  -0.540  0.00  0.00    -0.072 C 
ATOM     25  C   UNL     1       6.056 -11.888   0.572  0.00  0.00    -0.028 C 
ATOM     26  C   UNL     1       7.319 -12.688   0.701  0.00  0.00    +0.027 C 
ATOM     27  C   UNL     1       7.784 -13.167  -0.677  0.00  0.00    +0.004 C 
ATOM     28  C   UNL     1       7.785 -11.967  -1.632  0.00  0.00    +0.005 C 
ATOM     29  C   UNL     1       6.334 -11.530  -1.857  0.00  0.00    +0.030 C 
ENDBRANCH  23  24
ENDBRANCH  22  23
ENDBRANCH  20  22
ENDBRANCH   5  20
TORSDOF 6
