REMARK  Name = ZINC35275176
REMARK  9 active torsions:
REMARK  status: ('A' for Active; 'I' for Inactive)
REMARK    1  A    between atoms: C_1  and  C_2
REMARK    2  A    between atoms: C_2  and  C_3
REMARK    3  A    between atoms: C_3  and  C_5
REMARK    4  A    between atoms: C_3  and  C_6
REMARK    5  A    between atoms: C_6  and  C_8
REMARK    6  A    between atoms: C_6  and  N_23
REMARK    7  A    between atoms: C_14  and  C_16
REMARK    8  A    between atoms: C_24  and  C_26
REMARK    9  A    between atoms: C_26  and  C_28
REMARK                            x       y       z     vdW  Elec       q    Type
REMARK                         _______ _______ _______ _____ _____    ______ ____
ROOT
ATOM      1  C   UNL     1       2.190  -0.051  -1.072  0.00  0.00    +0.162 C 
ENDROOT
BRANCH   1   2
ATOM      2  C   UNL     1       2.902  -0.848  -2.134  0.00  0.00    +0.239 C 
ATOM      3  O   UNL     1       3.655  -0.293  -2.906  0.00  0.00    -0.273 OA
ATOM      4  N   UNL     1       2.703  -2.178  -2.226  0.00  0.00    -0.262 N 
ATOM      5  C   UNL     1       3.438  -2.929  -3.135  0.00  0.00    +0.188 A 
ATOM      6  N   UNL     1       4.369  -2.531  -3.981  0.00  0.00    -0.125 NA
ATOM      7  N   UNL     1       4.958  -3.338  -4.755  0.00  0.00    -0.140 NA
ATOM      8  C   UNL     1       4.627  -4.623  -4.714  0.00  0.00    +0.134 A 
ATOM      9  S   UNL     1       3.376  -4.586  -3.438  0.00  0.00    -0.030 S 
ATOM     10  H   UNL     1       2.047  -2.610  -1.658  0.00  0.00    +0.157 HD
BRANCH   8  11
ATOM     11  C   UNL     1       5.150  -5.763  -5.497  0.00  0.00    +0.010 A 
ATOM     12  C   UNL     1       4.644  -7.047  -5.288  0.00  0.00    +0.011 A 
ATOM     13  C   UNL     1       5.135  -8.106  -6.022  0.00  0.00    +0.002 A 
ATOM     14  C   UNL     1       6.128  -7.899  -6.964  0.00  0.00    +0.015 A 
ATOM     15  C   UNL     1       6.634  -6.628  -7.176  0.00  0.00    +0.019 A 
ATOM     16  C   UNL     1       6.147  -5.558  -6.451  0.00  0.00    +0.026 A 
ATOM     17 BR   UNL     1       7.991  -6.355  -8.464  0.00  0.00    -0.050 Br
ENDBRANCH   8  11
ENDBRANCH   1   2
BRANCH   1  18
ATOM     18  N   UNL     1       2.561   1.361  -1.190  0.00  0.00    -0.302 N 
ATOM     19  C   UNL     1       2.626   2.135  -0.088  0.00  0.00    +0.236 C 
ATOM     20  O   UNL     1       2.470   1.643   1.009  0.00  0.00    -0.274 OA
ATOM     21  H   UNL     1       2.760   1.739  -2.061  0.00  0.00    +0.150 HD
BRANCH  19  22
ATOM     22  C   UNL     1       2.892   3.613  -0.220  0.00  0.00    +0.196 C 
ATOM     23 CL   UNL     1       4.592   3.963   0.268  0.00  0.00    -0.107 Cl
BRANCH  22  24
ATOM     24  C   UNL     1       1.946   4.375   0.671  0.00  0.00    -0.021 A 
ATOM     25  C   UNL     1       2.027   4.236   2.045  0.00  0.00    +0.005 A 
ATOM     26  C   UNL     1       1.160   4.935   2.862  0.00  0.00    +0.000 A 
ATOM     27  C   UNL     1       0.211   5.774   2.308  0.00  0.00    +0.000 A 
ATOM     28  C   UNL     1       0.130   5.913   0.934  0.00  0.00    +0.000 A 
ATOM     29  C   UNL     1       1.001   5.217   0.117  0.00  0.00    +0.005 A 
ENDBRANCH  22  24
ENDBRANCH  19  22
ENDBRANCH   1  18
BRANCH   1  30
ATOM     30  C   UNL     1       0.677  -0.198  -1.253  0.00  0.00    +0.015 C 
ATOM     31  C   UNL     1      -0.043   0.471  -0.081  0.00  0.00    +0.010 C 
BRANCH  30  33
ATOM     32  C   UNL     1       0.806  -0.325  -3.745  0.00  0.00    +0.004 C 
ATOM     33  C   UNL     1       0.253   0.472  -2.562  0.00  0.00    +0.002 C 
ENDBRANCH  30  33
ENDBRANCH   1  30
TORSDOF 7
