REMARK  Name = ZINC39884032
REMARK  9 active torsions:
REMARK  status: ('A' for Active; 'I' for Inactive)
REMARK    1  A    between atoms: C_1  and  C_2
REMARK    2  A    between atoms: C_2  and  C_3
REMARK    3  A    between atoms: C_2  and  O_4
REMARK    4  A    between atoms: O_4  and  C_5
REMARK    5  A    between atoms: C_5  and  C_7
REMARK    6  A    between atoms: C_7  and  N_8
REMARK    7  A    between atoms: C_26  and  C_36
REMARK    8  A    between atoms: C_39  and  O_42
REMARK    9  A    between atoms: O_42  and  C_43
REMARK                            x       y       z     vdW  Elec       q    Type
REMARK                         _______ _______ _______ _____ _____    ______ ____
ROOT
ATOM      1  N   UNL     1       4.188  -1.256  -1.937  0.00  0.00    -0.231 N 
ATOM      2  C   UNL     1       5.102  -0.234  -2.076  0.00  0.00    +0.226 C 
ATOM      3  O   UNL     1       4.885   0.951  -2.212  0.00  0.00    -0.275 OA
ATOM      4  C   UNL     1       6.422  -0.930  -2.019  0.00  0.00    +0.091 C 
ATOM      5  C   UNL     1       7.706  -0.292  -1.426  0.00  0.00    +0.007 C 
ATOM      6  C   UNL     1       7.679  -0.746   0.094  0.00  0.00    +0.010 C 
ATOM      7  C   UNL     1       7.256  -2.274  -0.187  0.00  0.00    +0.015 C 
ATOM      8  C   UNL     1       5.989  -1.901  -0.843  0.00  0.00    +0.092 C 
ATOM      9  C   UNL     1       4.760  -2.410  -1.425  0.00  0.00    +0.226 C 
ATOM     10  O   UNL     1       4.344  -3.549  -1.455  0.00  0.00    -0.275 OA
ATOM     11  C   UNL     1       8.459  -2.620  -1.058  0.00  0.00    +0.061 C 
ATOM     12  C   UNL     1       8.661  -1.359  -1.968  0.00  0.00    +0.019 C 
ATOM     13  C   UNL     1       9.984  -1.219  -2.579  0.00  0.00    +0.063 C 
ATOM     14  C   UNL     1      10.252  -2.471  -3.382  0.00  0.00    +0.032 A 
ATOM     15  C   UNL     1       9.596  -3.652  -3.379  0.00  0.00    +0.087 A 
ATOM     16  N   UNL     1      10.078  -4.580  -4.271  0.00  0.00    -0.311 N 
ATOM     17  H   UNL     1       9.648  -5.446  -4.349  0.00  0.00    +0.170 HD
ATOM     18  C   UNL     1      11.146  -4.288  -5.038  0.00  0.00    +0.289 A 
ATOM     19  O   UNL     1      11.698  -4.993  -5.865  0.00  0.00    -0.260 OA
ATOM     20  S   UNL     1      11.536  -2.717  -4.579  0.00  0.00    -0.030 S 
ATOM     21  S   UNL     1       8.241  -4.005  -2.206  0.00  0.00    -0.103 S 
ENDROOT
BRANCH  13  22
ATOM     22  C   UNL     1      10.004  -0.015  -3.484  0.00  0.00    -0.039 A 
ATOM     23  C   UNL     1       9.132   0.058  -4.555  0.00  0.00    +0.008 A 
ATOM     24  C   UNL     1       9.149   1.161  -5.387  0.00  0.00    +0.046 A 
ATOM     25  C   UNL     1      10.041   2.196  -5.147  0.00  0.00    +0.120 A 
ATOM     26  C   UNL     1      10.914   2.121  -4.072  0.00  0.00    +0.046 A 
ATOM     27  C   UNL     1      10.890   1.018  -3.240  0.00  0.00    +0.008 A 
BRANCH  25  28
ATOM     28  O   UNL     1      10.059   3.282  -5.964  0.00  0.00    -0.495 OA
ATOM     29  C   UNL     1      11.004   4.309  -5.657  0.00  0.00    +0.277 C 
ENDBRANCH  25  28
ENDBRANCH  13  22
BRANCH   1  30
ATOM     30  C   UNL     1       2.771  -1.135  -2.286  0.00  0.00    +0.236 C 
BRANCH  30  31
ATOM     31  C   UNL     1       1.998  -0.651  -1.087  0.00  0.00    +0.325 C 
ATOM     32  O   UNL     1       2.572  -0.429  -0.047  0.00  0.00    -0.249 OA
BRANCH  31  33
ATOM     33  O   UNL     1       0.671  -0.465  -1.174  0.00  0.00    -0.461 OA
BRANCH  33  35
ATOM     34  C   UNL     1      -0.019   1.526   0.010  0.00  0.00    +0.052 C 
ATOM     35  C   UNL     1       0.002  -0.004   0.002  0.00  0.00    +0.170 C 
ATOM     36  C   UNL     1      -1.433  -0.534   0.013  0.00  0.00    +0.052 C 
ENDBRANCH  33  35
ENDBRANCH  31  33
ENDBRANCH  30  31
ENDBRANCH   1  30
TORSDOF 6
