REMARK  Name = ZINC06179515
REMARK  9 active torsions:
REMARK  status: ('A' for Active; 'I' for Inactive)
REMARK    1  A    between atoms: C_1  and  C_2
REMARK    2  A    between atoms: C_2  and  C_35
REMARK    3  A    between atoms: N_9  and  C_34
REMARK    4  A    between atoms: C_11  and  P_12
REMARK    5  A    between atoms: P_12  and  C_14
REMARK    6  A    between atoms: P_12  and  O_20
REMARK    7  A    between atoms: O_20  and  C_21
REMARK    8  A    between atoms: C_24  and  C_27
REMARK    9  A    between atoms: N_28  and  N_29
REMARK                            x       y       z     vdW  Elec       q    Type
REMARK                         _______ _______ _______ _____ _____    ______ ____
ROOT
ATOM      1  P   UNL     1       4.799  -0.290   0.831  0.00  0.00    +0.149 P 
ATOM      2  S   UNL     1       3.430  -0.938  -0.255  0.00  0.00    -0.015 S 
ENDROOT
BRANCH   1  13
ATOM      3  C   UNL     1       6.718   0.700  -3.256  0.00  0.00    +0.022 C 
ATOM      4  C   UNL     1       7.563  -0.118  -2.277  0.00  0.00    +0.030 C 
ATOM      5  C   UNL     1       7.968  -1.434  -2.900  0.00  0.00    -0.015 A 
ATOM      6  C   UNL     1       8.720  -1.739  -4.014  0.00  0.00    +0.006 A 
ATOM      7  C   UNL     1       8.937  -3.061  -4.361  0.00  0.00    +0.000 A 
ATOM      8  C   UNL     1       8.399  -4.073  -3.587  0.00  0.00    +0.002 A 
ATOM      9  C   UNL     1       7.647  -3.771  -2.471  0.00  0.00    +0.024 A 
ATOM     10  C   UNL     1       7.423  -2.441  -2.115  0.00  0.00    +0.038 A 
ATOM     11  N   UNL     1       6.712  -1.899  -1.046  0.00  0.00    -0.305 N 
ATOM     12  C   UNL     1       6.739  -0.513  -1.069  0.00  0.00    +0.025 C 
ATOM     13  C   UNL     1       6.164   0.303  -0.205  0.00  0.00    +0.071 C 
ATOM     14  C   UNL     1       6.020  -2.694  -0.028  0.00  0.00    +0.135 C 
ATOM     15  C   UNL     1       8.799   0.673  -1.845  0.00  0.00    +0.022 C 
ENDBRANCH   1  13
BRANCH   1  16
ATOM     16  C   UNL     1       4.170   1.078   1.844  0.00  0.00    +0.021 A 
ATOM     17  C   UNL     1       2.846   1.093   2.240  0.00  0.00    +0.012 A 
ATOM     18  C   UNL     1       2.368   2.135   3.013  0.00  0.00    +0.001 A 
ATOM     19  C   UNL     1       3.214   3.162   3.389  0.00  0.00    +0.000 A 
ATOM     20  C   UNL     1       4.538   3.146   2.993  0.00  0.00    +0.001 A 
ATOM     21  C   UNL     1       5.016   2.105   2.220  0.00  0.00    +0.012 A 
ENDBRANCH   1  16
BRANCH   1  22
ATOM     22  O   UNL     1       5.326  -1.470   1.791  0.00  0.00    -0.460 OA
BRANCH  22  23
ATOM     23  C   UNL     1       4.373  -1.983   2.611  0.00  0.00    +0.126 A 
ATOM     24  C   UNL     1       4.177  -1.436   3.873  0.00  0.00    +0.046 A 
ATOM     25  C   UNL     1       3.207  -1.951   4.705  0.00  0.00    +0.013 A 
ATOM     26  C   UNL     1       2.428  -3.031   4.283  0.00  0.00    -0.005 A 
ATOM     27  C   UNL     1       2.632  -3.582   3.015  0.00  0.00    +0.013 A 
ATOM     28  C   UNL     1       3.600  -3.058   2.187  0.00  0.00    +0.046 A 
BRANCH  26  29
ATOM     29  C   UNL     1       1.394  -3.589   5.173  0.00  0.00    +0.141 C 
ATOM     30  N   UNL     1       1.206  -3.076   6.351  0.00  0.00    -0.172 NA
BRANCH  30  31
ATOM     31  N   UNL     1       0.223  -3.607   7.197  0.00  0.00    -0.207 N 
ATOM     32  C   UNL     1      -1.055  -3.944   6.863  0.00  0.00    +0.248 A 
ATOM     33  N   UNL     1      -1.629  -4.400   7.943  0.00  0.00    -0.136 NA
ATOM     34  N   UNL     1      -0.802  -4.364   8.927  0.00  0.00    -0.136 NA
ATOM     35  C   UNL     1       0.345  -3.886   8.525  0.00  0.00    +0.248 A 
ENDBRANCH  30  31
ENDBRANCH  26  29
ENDBRANCH  22  23
ENDBRANCH   1  22
TORSDOF 6
