REMARK  Name = ZINC24408467
REMARK  1 active torsions:
REMARK  status: ('A' for Active; 'I' for Inactive)
REMARK    1  A    between atoms: C_8  and  C_9
REMARK                            x       y       z     vdW  Elec       q    Type
REMARK                         _______ _______ _______ _____ _____    ______ ____
ROOT
ATOM      1  C   UNL     1      -0.019   1.541   0.011  0.00  0.00    +0.011 C 
ATOM      2  C   UNL     1       1.488   1.882  -0.002  0.00  0.00    +0.040 C 
ATOM      3  C   UNL     1       2.165   0.680   0.613  0.00  0.00    +0.011 A 
ATOM      4  C   UNL     1       1.331  -0.382   0.617  0.00  0.00    +0.041 A 
ATOM      5  N   UNL     1       2.003  -1.412   1.179  0.00  0.00    -0.280 N 
ATOM      6  H   UNL     1       1.644  -2.303   1.311  0.00  0.00    +0.189 HD
ATOM      7  N   UNL     1       3.187  -1.041   1.514  0.00  0.00    -0.163 NA
ATOM      8  C   UNL     1       3.368   0.228   1.202  0.00  0.00    +0.165 A 
ATOM      9  C   UNL     1       0.002  -0.004   0.002  0.00  0.00    +0.055 C 
ENDROOT
BRANCH   8  10
ATOM     10  C   UNL     1       4.555   0.998   1.418  0.00  0.00    +0.121 C 
ATOM     11  N   UNL     1       5.497   1.610   1.589  0.00  0.00    -0.189 NA
ENDBRANCH   8  10
TORSDOF 1
