REMARK  Name = ZINC32908203
REMARK  10 active torsions:
REMARK  status: ('A' for Active; 'I' for Inactive)
REMARK    1  A    between atoms: C_1  and  C_2
REMARK    2  A    between atoms: C_4  and  C_33
REMARK    3  A    between atoms: C_6  and  C_30
REMARK    4  A    between atoms: C_10  and  C_11
REMARK    5  A    between atoms: N_13  and  C_14
REMARK    6  A    between atoms: C_14  and  C_15
REMARK    7  A    between atoms: C_15  and  C_17
REMARK    8  A    between atoms: C_15  and  N_25
REMARK    9  A    between atoms: C_22  and  O_23
REMARK   10  A    between atoms: O_23  and  C_24
REMARK                            x       y       z     vdW  Elec       q    Type
REMARK                         _______ _______ _______ _____ _____    ______ ____
ROOT
ATOM      1  C   UNL     1       4.552   5.016  -2.681  0.00  0.00    +0.251 C 
ATOM      2  O   UNL     1       3.910   4.793  -3.691  0.00  0.00    -0.270 OA
ATOM      3  N   UNL     1       4.189   4.449  -1.513  0.00  0.00    -0.312 N 
ATOM      4  H   UNL     1       4.769   4.652  -0.601  0.00  0.00    +0.149 HD
ENDROOT
BRANCH   1  14
ATOM      5  C   UNL     1       5.598   6.409  -5.165  0.00  0.00    +0.046 C 
ATOM      6  C   UNL     1       6.241   6.556  -3.810  0.00  0.00    -0.020 A 
ATOM      7  C   UNL     1       7.374   7.370  -3.653  0.00  0.00    +0.032 A 
ATOM      8  C   UNL     1       8.070   8.135  -4.621  0.00  0.00    +0.050 A 
ATOM      9  N   UNL     1       9.125   8.830  -4.256  0.00  0.00    -0.236 NA
ATOM     10  C   UNL     1       9.568   8.844  -3.010  0.00  0.00    +0.134 A 
ATOM     11  N   UNL     1       8.967   8.155  -2.060  0.00  0.00    -0.225 NA
ATOM     12  C   UNL     1       7.904   7.432  -2.338  0.00  0.00    +0.113 A 
ATOM     13  S   UNL     1       6.815   6.383  -1.409  0.00  0.00    -0.064 S 
ATOM     14  C   UNL     1       5.722   5.904  -2.736  0.00  0.00    +0.079 A 
ATOM     15  C   UNL     1       7.607   8.152  -6.055  0.00  0.00    +0.066 C 
BRANCH  10  16
ATOM     16  C   UNL     1      10.784   9.666  -2.669  0.00  0.00    +0.057 C 
ATOM     17  C   UNL     1      11.381   9.497  -1.270  0.00  0.00    +0.012 C 
ATOM     18  C   UNL     1      10.619  10.775  -1.627  0.00  0.00    +0.012 C 
ENDBRANCH  10  16
ENDBRANCH   1  14
BRANCH   3  19
ATOM     19  C   UNL     1       3.023   3.565  -1.459  0.00  0.00    +0.094 C 
BRANCH  19  20
ATOM     20  C   UNL     1       2.905   2.962  -0.058  0.00  0.00    -0.017 C 
BRANCH  20  21
ATOM     21  C   UNL     1       1.774   1.965  -0.034  0.00  0.00    -0.018 A 
ATOM     22  C   UNL     1       2.025   0.629  -0.281  0.00  0.00    +0.005 A 
ATOM     23  C   UNL     1       0.989  -0.285  -0.259  0.00  0.00    +0.000 A 
ATOM     24  C   UNL     1      -0.302   0.135   0.004  0.00  0.00    +0.004 A 
ATOM     25  C   UNL     1      -0.557   1.468   0.258  0.00  0.00    +0.046 A 
ATOM     26  C   UNL     1       0.481   2.388   0.237  0.00  0.00    +0.122 A 
BRANCH  26  27
ATOM     27  O   UNL     1       0.232   3.702   0.481  0.00  0.00    -0.495 OA
ATOM     28  C   UNL     1      -1.123   4.066   0.751  0.00  0.00    +0.277 C 
ENDBRANCH  26  27
ENDBRANCH  20  21
BRANCH  20  29
ATOM     29  N   UNL     1       4.161   2.285   0.291  0.00  0.00    +0.385 N 
ATOM     30  C   UNL     1       3.967   1.361   1.437  0.00  0.00    -0.078 C 
ATOM     31  C   UNL     1       5.172   0.394   1.320  0.00  0.00    -0.020 C 
ATOM     32  C   UNL     1       5.323   0.213  -0.207  0.00  0.00    -0.020 C 
ATOM     33  C   UNL     1       4.640   1.446  -0.828  0.00  0.00    -0.078 C 
ATOM     34  H   UNL     1       4.877   3.087   0.529  0.00  0.00    -0.081 HD
ENDBRANCH  20  29
ENDBRANCH  19  20
ENDBRANCH   3  19
TORSDOF 7
