REMARK  Name = ZINC13064657
REMARK  14 active torsions:
REMARK  status: ('A' for Active; 'I' for Inactive)
REMARK    1  A    between atoms: C_1  and  C_2
REMARK    2  A    between atoms: C_2  and  C_3
REMARK    3  A    between atoms: C_3  and  C_5
REMARK    4  A    between atoms: C_3  and  N_72
REMARK    5  A    between atoms: N_9  and  C_10
REMARK    6  A    between atoms: C_10  and  C_11
REMARK    7  A    between atoms: C_14  and  O_17
REMARK    8  A    between atoms: O_17  and  C_18
REMARK    9  A    between atoms: C_19  and  C_20
REMARK   10  A    between atoms: C_19  and  N_72
REMARK   11  A    between atoms: C_26  and  C_27
REMARK   12  A    between atoms: C_26  and  N_72
REMARK   13  A    between atoms: C_31  and  C_40
REMARK   14  A    between atoms: C_32  and  C_39
REMARK                            x       y       z     vdW  Elec       q    Type
REMARK                         _______ _______ _______ _____ _____    ______ ____
ROOT
ATOM      1  N   UNL     1      -5.631   3.574  -1.154  0.00  0.00    +0.392 N 
ATOM      2  H   UNL     1      -5.380   2.624  -1.454  0.00  0.00    -0.080 HD
ENDROOT
BRANCH   1   3
ATOM      3  C   UNL     1      -6.860   3.992  -1.862  0.00  0.00    +0.003 C 
BRANCH   3   4
ATOM      4  C   UNL     1      -6.816   3.444  -3.265  0.00  0.00    +0.138 A 
ATOM      5  N   UNL     1      -5.795   3.475  -4.086  0.00  0.00    -0.115 NA
ATOM      6  N   UNL     1      -6.151   2.908  -5.186  0.00  0.00    -0.023 NA
ATOM      7  N   UNL     1      -7.373   2.515  -5.089  0.00  0.00    -0.044 NA
ATOM      8  N   UNL     1      -7.817   2.823  -3.917  0.00  0.00    -0.226 N 
BRANCH   8   9
ATOM      9  C   UNL     1      -9.158   2.551  -3.395  0.00  0.00    +0.182 C 
BRANCH   9  10
ATOM     10  C   UNL     1     -10.068   3.709  -3.718  0.00  0.00    -0.026 A 
ATOM     11  C   UNL     1     -10.191   4.759  -2.827  0.00  0.00    +0.009 A 
ATOM     12  C   UNL     1     -11.020   5.824  -3.124  0.00  0.00    +0.046 A 
ATOM     13  C   UNL     1     -11.737   5.833  -4.311  0.00  0.00    +0.120 A 
ATOM     14  C   UNL     1     -11.615   4.776  -5.201  0.00  0.00    +0.046 A 
ATOM     15  C   UNL     1     -10.781   3.716  -4.902  0.00  0.00    +0.009 A 
BRANCH  13  16
ATOM     16  O   UNL     1     -12.556   6.877  -4.603  0.00  0.00    -0.495 OA
ATOM     17  C   UNL     1     -12.632   7.931  -3.641  0.00  0.00    +0.277 C 
ENDBRANCH  13  16
ENDBRANCH   9  10
ENDBRANCH   8   9
ENDBRANCH   3   4
BRANCH   3  19
ATOM     18  C   UNL     1      -7.130   6.065  -0.494  0.00  0.00    +0.002 C 
ATOM     19  C   UNL     1      -6.954   5.518  -1.912  0.00  0.00    -0.011 C 
ENDBRANCH   3  19
ENDBRANCH   1   3
BRANCH   1  20
ATOM     20  C   UNL     1      -4.521   4.491  -1.484  0.00  0.00    -0.040 C 
BRANCH  20  21
ATOM     21  C   UNL     1      -3.218   3.814  -1.146  0.00  0.00    -0.046 A 
ATOM     22  C   UNL     1      -2.609   4.034   0.081  0.00  0.00    +0.005 A 
ATOM     23  C   UNL     1      -1.414   3.386   0.350  0.00  0.00    +0.020 A 
ATOM     24  C   UNL     1      -0.867   2.555  -0.610  0.00  0.00    +0.111 A 
ATOM     25  N   UNL     1      -1.471   2.373  -1.768  0.00  0.00    -0.263 NA
ATOM     26  C   UNL     1      -2.612   2.969  -2.056  0.00  0.00    +0.112 A 
ENDBRANCH  20  21
ENDBRANCH   1  20
BRANCH   1  27
ATOM     27  C   UNL     1      -5.866   3.569   0.306  0.00  0.00    -0.036 C 
BRANCH  27  28
ATOM     28  C   UNL     1      -6.612   2.312   0.670  0.00  0.00    +0.001 A 
ATOM     29  C   UNL     1      -5.926   1.201   1.035  0.00  0.00    +0.017 A 
ATOM     30  C   UNL     1      -6.681  -0.006   1.379  0.00  0.00    -0.001 A 
ATOM     31  C   UNL     1      -6.028  -1.187   1.747  0.00  0.00    +0.013 A 
ATOM     32  C   UNL     1      -6.760  -2.296   2.061  0.00  0.00    -0.047 A 
ATOM     33  C   UNL     1      -8.148  -2.262   2.020  0.00  0.00    -0.046 A 
ATOM     34  C   UNL     1      -8.812  -1.109   1.660  0.00  0.00    +0.030 A 
ATOM     35  C   UNL     1      -8.087   0.031   1.330  0.00  0.00    +0.049 A 
ATOM     36  N   UNL     1      -8.725   1.196   0.962  0.00  0.00    -0.322 N 
ATOM     37  H   UNL     1      -9.694   1.222   0.932  0.00  0.00    +0.169 HD
ATOM     38  C   UNL     1      -8.023   2.298   0.643  0.00  0.00    +0.251 A 
ATOM     39  O   UNL     1      -8.621   3.311   0.322  0.00  0.00    -0.268 OA
ATOM     40  C   UNL     1      -8.935  -3.497   2.371  0.00  0.00    +0.044 C 
ATOM     41  C   UNL     1      -6.057  -3.569   2.457  0.00  0.00    +0.044 C 
ENDBRANCH  27  28
ENDBRANCH   1  27
TORSDOF 10
