REMARK  Name = ZINC08297532
REMARK  6 active torsions:
REMARK  status: ('A' for Active; 'I' for Inactive)
REMARK    1  A    between atoms: C_4  and  C_13
REMARK    2  A    between atoms: C_5  and  C_7
REMARK    3  A    between atoms: C_7  and  N_68
REMARK    4  A    between atoms: N_27  and  S_29
REMARK    5  A    between atoms: S_29  and  C_32
REMARK    6  A    between atoms: C_37  and  C_38
REMARK                            x       y       z     vdW  Elec       q    Type
REMARK                         _______ _______ _______ _____ _____    ______ ____
ROOT
ATOM      1  C   UNL     1       1.472  -0.391   0.089  0.00  0.00    +0.047 A 
ATOM      2  C   UNL     1       2.708   0.220   0.233  0.00  0.00    +0.015 A 
ATOM      3  C   UNL     1       2.756   1.606   0.393  0.00  0.00    +0.022 A 
ATOM      4  C   UNL     1       1.611   2.341   0.426  0.00  0.00    +0.026 A 
ATOM      5  N   UNL     1       0.400   1.739   0.387  0.00  0.00    -0.311 N 
ATOM      6  C   UNL     1       0.309   0.409   0.137  0.00  0.00    +0.259 A 
ATOM      7  O   UNL     1      -0.785  -0.099  -0.047  0.00  0.00    -0.267 OA
ATOM      8  C   UNL     1      -0.851   2.449   0.659  0.00  0.00    +0.130 C 
ATOM      9  C   UNL     1      -0.726   3.945   0.435  0.00  0.00    +0.025 C 
ATOM     10  C   UNL     1       0.532   4.471   1.127  0.00  0.00    +0.017 C 
ATOM     11  C   UNL     1       1.755   3.846   0.450  0.00  0.00    +0.052 C 
ATOM     12  C   UNL     1       1.804   4.334  -1.008  0.00  0.00    +0.119 C 
ATOM     13  N   UNL     1       0.555   3.908  -1.657  0.00  0.00    -0.176 NA
ATOM     14  C   UNL     1      -0.722   4.299  -1.046  0.00  0.00    +0.114 C 
ENDROOT
BRANCH   1  18
ATOM     15  C   UNL     1       1.185  -4.593  -0.484  0.00  0.00    +0.000 A 
ATOM     16  C   UNL     1       1.591  -3.781  -1.528  0.00  0.00    +0.001 A 
ATOM     17  C   UNL     1       1.682  -2.416  -1.349  0.00  0.00    +0.009 A 
ATOM     18  C   UNL     1       1.372  -1.856  -0.110  0.00  0.00    -0.011 A 
ATOM     19  C   UNL     1       0.963  -2.679   0.938  0.00  0.00    -0.056 A 
ATOM     20  C   UNL     1       0.872  -4.043   0.746  0.00  0.00    +0.002 A 
BRANCH  19  21
ATOM     21  C   UNL     1       0.621  -2.081   2.278  0.00  0.00    -0.042 C 
BRANCH  21  27
ATOM     22  C   UNL     1       2.652  -2.837   3.359  0.00  0.00    -0.050 C 
ATOM     23  C   UNL     1       3.954  -2.361   4.011  0.00  0.00    +0.141 C 
ATOM     24  O   UNL     1       3.644  -1.512   5.119  0.00  0.00    -0.383 OA
ATOM     25  C   UNL     1       2.868  -0.364   4.766  0.00  0.00    +0.141 C 
ATOM     26  C   UNL     1       1.556  -0.819   4.122  0.00  0.00    -0.050 C 
ATOM     27  N   UNL     1       1.871  -1.653   2.943  0.00  0.00    +0.385 N 
ATOM     28  H   UNL     1       2.428  -1.100   2.282  0.00  0.00    -0.081 HD
ENDBRANCH  21  27
ENDBRANCH  19  21
ENDBRANCH   1  18
BRANCH  13  29
ATOM     29  S   UNL     1       0.588   3.007  -3.046  0.00  0.00    +0.062 S 
ATOM     30  O   UNL     1       1.776   2.229  -2.998  0.00  0.00    -0.153 OA
ATOM     31  O   UNL     1      -0.701   2.423  -3.182  0.00  0.00    -0.153 OA
BRANCH  29  32
ATOM     32  C   UNL     1       0.776   4.131  -4.391  0.00  0.00    +0.123 A 
ATOM     33  C   UNL     1       1.933   4.122  -5.142  0.00  0.00    +0.030 A 
ATOM     34  C   UNL     1       2.080   5.000  -6.201  0.00  0.00    +0.002 A 
ATOM     35  C   UNL     1       1.074   5.899  -6.508  0.00  0.00    +0.001 A 
ATOM     36  C   UNL     1      -0.086   5.922  -5.762  0.00  0.00    +0.021 A 
ATOM     37  C   UNL     1      -0.243   5.035  -4.695  0.00  0.00    +0.078 A 
BRANCH  37  38
ATOM     38  C   UNL     1      -1.445   5.053  -3.916  0.00  0.00    +0.101 C 
ATOM     39  N   UNL     1      -2.398   5.067  -3.299  0.00  0.00    -0.191 NA
ENDBRANCH  37  38
ENDBRANCH  29  32
ENDBRANCH  13  29
TORSDOF 6
