REMARK  Name = ZINC20697922
REMARK  8 active torsions:
REMARK  status: ('A' for Active; 'I' for Inactive)
REMARK    1  A    between atoms: C_1  and  C_2
REMARK    2  A    between atoms: C_2  and  C_3
REMARK    3  A    between atoms: C_2  and  C_4
REMARK    4  A    between atoms: C_7  and  C_10
REMARK    5  A    between atoms: C_21  and  S_26
REMARK    6  A    between atoms: S_26  and  N_29
REMARK    7  A    between atoms: N_29  and  C_30
REMARK    8  A    between atoms: N_29  and  C_31
REMARK                            x       y       z     vdW  Elec       q    Type
REMARK                         _______ _______ _______ _____ _____    ______ ____
ROOT
ATOM      1  C   UNL     1       1.238   2.179   0.002  0.00  0.00    +0.105 C 
ATOM      2  C   UNL     1       2.235   1.362   0.804  0.00  0.00    +0.029 C 
ATOM      3  C   UNL     1       3.682   1.863   0.796  0.00  0.00    +0.033 C 
ATOM      4  C   UNL     1       4.444   0.553   1.008  0.00  0.00    -0.030 C 
ATOM      5  C   UNL     1       3.726  -0.468   0.555  0.00  0.00    -0.023 C 
ATOM      6  C   UNL     1       2.462   0.059  -0.019  0.00  0.00    +0.049 C 
ATOM      7  C   UNL     1       1.205  -0.719   0.004  0.00  0.00    -0.018 A 
ATOM      8  C   UNL     1       1.188  -2.097   0.018  0.00  0.00    +0.034 A 
ATOM      9  C   UNL     1      -0.014  -2.780   0.016  0.00  0.00    +0.106 A 
ATOM     10  C   UNL     1      -1.207  -2.080   0.001  0.00  0.00    +0.030 A 
ATOM     11  C   UNL     1      -1.200  -0.701  -0.005  0.00  0.00    +0.025 A 
ATOM     12  C   UNL     1       0.002  -0.004   0.002  0.00  0.00    +0.031 A 
ATOM     13  N   UNL     1      -0.017   1.396   0.010  0.00  0.00    -0.336 N 
ATOM     14  H   UNL     1      -0.988   1.913   0.022  0.00  0.00    +0.147 HD
ENDROOT
BRANCH   1  18
ATOM     15  C   UNL     1       0.616   5.979   1.851  0.00  0.00    -0.045 A 
ATOM     16  C   UNL     1       1.403   5.882   0.719  0.00  0.00    +0.004 A 
ATOM     17  C   UNL     1       1.604   4.652   0.120  0.00  0.00    +0.006 A 
ATOM     18  C   UNL     1       1.018   3.520   0.654  0.00  0.00    -0.027 A 
ATOM     19  C   UNL     1       0.227   3.618   1.784  0.00  0.00    +0.006 A 
ATOM     20  C   UNL     1       0.029   4.847   2.384  0.00  0.00    +0.004 A 
BRANCH  15  22
ATOM     21  C   UNL     1      -1.098   7.646   2.511  0.00  0.00    +0.012 C 
ATOM     22  C   UNL     1       0.397   7.320   2.504  0.00  0.00    +0.013 C 
ATOM     23  C   UNL     1       0.916   7.278   3.942  0.00  0.00    +0.012 C 
ENDBRANCH  15  22
ENDBRANCH   1  18
BRANCH   9  24
ATOM     24  S   UNL     1      -0.027  -4.542   0.033  0.00  0.00    +0.060 S 
ATOM     25  O   UNL     1      -1.271  -4.945  -0.522  0.00  0.00    -0.153 OA
ATOM     26  O   UNL     1       1.220  -4.962  -0.504  0.00  0.00    -0.153 OA
BRANCH  24  27
ATOM     27  N   UNL     1      -0.041  -5.016   1.620  0.00  0.00    -0.183 NA
ATOM     28  C   UNL     1      -1.317  -5.216   2.313  0.00  0.00    +0.131 C 
ATOM     29  C   UNL     1       1.221  -5.234   2.331  0.00  0.00    +0.131 C 
ENDBRANCH  24  27
ENDBRANCH   9  24
TORSDOF 4
