REMARK  Name = ZINC21887940
REMARK  9 active torsions:
REMARK  status: ('A' for Active; 'I' for Inactive)
REMARK    1  A    between atoms: C_1  and  C_2
REMARK    2  A    between atoms: C_2  and  C_3
REMARK    3  A    between atoms: C_2  and  C_4
REMARK    4  A    between atoms: C_4  and  C_6
REMARK    5  A    between atoms: C_4  and  N_17
REMARK    6  A    between atoms: N_8  and  C_9
REMARK    7  A    between atoms: C_9  and  C_10
REMARK    8  A    between atoms: N_17  and  S_18
REMARK    9  A    between atoms: S_18  and  C_21
REMARK                            x       y       z     vdW  Elec       q    Type
REMARK                         _______ _______ _______ _____ _____    ______ ____
ROOT
ATOM      1  N   UNL     1       4.334  -1.104  -1.489  0.00  0.00    -0.178 NA
ATOM      2  H   UNL     1       3.510  -1.829  -1.573  0.00  0.00    +0.149 HD
ENDROOT
BRANCH   1   3
ATOM      3  S   UNL     1       5.182  -1.004  -0.070  0.00  0.00    +0.059 S 
ATOM      4  O   UNL     1       6.550  -0.857  -0.424  0.00  0.00    -0.153 OA
ATOM      5  O   UNL     1       4.718  -2.063   0.756  0.00  0.00    -0.153 OA
BRANCH   3   6
ATOM      6  C   UNL     1       4.702   0.497   0.718  0.00  0.00    +0.106 A 
ATOM      7  C   UNL     1       5.457   1.645   0.552  0.00  0.00    +0.030 A 
ATOM      8  C   UNL     1       5.073   2.805   1.177  0.00  0.00    +0.025 A 
ATOM      9  C   UNL     1       3.925   2.856   1.988  0.00  0.00    +0.037 A 
ATOM     10  C   UNL     1       3.171   1.713   2.142  0.00  0.00    -0.024 A 
ATOM     11  C   UNL     1       3.574   0.538   1.504  0.00  0.00    +0.034 A 
ATOM     12  C   UNL     1       1.917   1.611   2.946  0.00  0.00    +0.037 C 
ATOM     13  C   UNL     1       1.034   2.820   2.931  0.00  0.00    +0.014 C 
ATOM     14  C   UNL     1       1.524   3.934   3.824  0.00  0.00    +0.096 C 
ATOM     15  C   UNL     1       2.713   4.620   3.252  0.00  0.00    +0.217 C 
ATOM     16  O   UNL     1       2.790   5.816   3.444  0.00  0.00    -0.275 OA
ATOM     17  N   UNL     1       3.681   4.079   2.569  0.00  0.00    -0.285 N 
ATOM     18  H   UNL     1       4.431   4.881   2.498  0.00  0.00    +0.155 HD
ENDBRANCH   3   6
ENDBRANCH   1   3
BRANCH   1  19
ATOM     19  C   UNL     1       4.532  -0.097  -2.534  0.00  0.00    +0.165 C 
BRANCH  19  20
ATOM     20  C   UNL     1       5.578  -0.580  -3.506  0.00  0.00    +0.232 C 
ATOM     21  O   UNL     1       5.921  -1.743  -3.498  0.00  0.00    -0.274 OA
ATOM     22  N   UNL     1       6.131   0.281  -4.383  0.00  0.00    -0.310 N 
ATOM     23  H   UNL     1       5.885   1.351  -4.333  0.00  0.00    +0.149 HD
BRANCH  22  24
ATOM     24  C   UNL     1       7.062  -0.210  -5.402  0.00  0.00    +0.139 C 
BRANCH  24  25
ATOM     25  C   UNL     1       7.534   0.944  -6.249  0.00  0.00    -0.030 A 
ATOM     26  C   UNL     1       6.838   1.292  -7.391  0.00  0.00    +0.008 A 
ATOM     27  C   UNL     1       7.267   2.353  -8.166  0.00  0.00    +0.038 A 
ATOM     28  C   UNL     1       8.400   3.061  -7.803  0.00  0.00    +0.123 A 
ATOM     29  C   UNL     1       9.100   2.707  -6.662  0.00  0.00    +0.038 A 
ATOM     30  C   UNL     1       8.666   1.649  -5.886  0.00  0.00    +0.008 A 
ATOM     31  F   UNL     1       8.823   4.095  -8.562  0.00  0.00    -0.205 F 
ENDBRANCH  24  25
ENDBRANCH  22  24
ENDBRANCH  19  20
BRANCH  19  33
ATOM     32  C   UNL     1       2.715  -1.191  -3.853  0.00  0.00    +0.009 C 
ATOM     33  C   UNL     1       3.215   0.135  -3.276  0.00  0.00    +0.010 C 
ATOM     34  C   UNL     1       2.173   0.693  -2.304  0.00  0.00    +0.009 C 
ENDBRANCH  19  33
ENDBRANCH   1  19
TORSDOF 7
