REMARK  Name = ZINC12387465
REMARK  9 active torsions:
REMARK  status: ('A' for Active; 'I' for Inactive)
REMARK    1  A    between atoms: C_1  and  C_2
REMARK    2  A    between atoms: C_2  and  C_3
REMARK    3  A    between atoms: C_3  and  N_4
REMARK    4  A    between atoms: C_6  and  C_10
REMARK    5  A    between atoms: C_7  and  C_9
REMARK    6  A    between atoms: C_10  and  N_57
REMARK    7  A    between atoms: C_11  and  C_12
REMARK    8  A    between atoms: C_11  and  N_57
REMARK    9  A    between atoms: C_16  and  N_17
REMARK                            x       y       z     vdW  Elec       q    Type
REMARK                         _______ _______ _______ _____ _____    ______ ____
ROOT
ATOM      1  C   UNL     1      -0.667   1.293   3.608  0.00  0.00    -0.026 A 
ATOM      2  C   UNL     1      -0.138   0.677   4.728  0.00  0.00    +0.006 A 
ATOM      3  C   UNL     1       0.785  -0.345   4.549  0.00  0.00    +0.018 A 
ATOM      4  C   UNL     1       1.145  -0.714   3.268  0.00  0.00    +0.084 A 
ATOM      5  C   UNL     1      -0.258   0.871   2.347  0.00  0.00    +0.100 A 
ATOM      6  N   UNL     1       0.642  -0.135   2.145  0.00  0.00    -0.349 N 
ATOM      7  H   UNL     1       0.922  -0.435   1.204  0.00  0.00    +0.167 HD
ENDROOT
BRANCH   5   8
ATOM      8  N   UNL     1      -0.782   1.481   1.214  0.00  0.00    -0.316 N 
ATOM      9  C   UNL     1       0.279   1.794   0.248  0.00  0.00    +0.106 C 
ATOM     10  C   UNL     1      -0.346   2.189  -1.092  0.00  0.00    +0.019 C 
ATOM     11  C   UNL     1      -0.015   1.122  -2.140  0.00  0.00    +0.002 C 
ATOM     12  C   UNL     1      -0.879  -0.114  -1.883  0.00  0.00    +0.000 C 
ATOM     13  C   UNL     1      -0.333  -0.881  -0.680  0.00  0.00    +0.002 C 
ATOM     14  C   UNL     1      -1.323  -0.791   0.482  0.00  0.00    +0.019 C 
ATOM     15  C   UNL     1      -1.828   0.649   0.606  0.00  0.00    +0.106 C 
ENDBRANCH   5   8
BRANCH   1  16
ATOM     16  C   UNL     1      -1.671   2.407   3.752  0.00  0.00    -0.043 C 
BRANCH  16  17
ATOM     17  N   UNL     1      -3.030   1.857   3.590  0.00  0.00    +0.385 N 
ATOM     18  H   UNL     1      -3.089   1.359   2.694  0.00  0.00    -0.085 HD
ATOM     19  H   UNL     1      -3.225   1.205   4.358  0.00  0.00    -0.085 HD
BRANCH  17  20
ATOM     20  C   UNL     1      -4.028   2.944   3.608  0.00  0.00    -0.043 C 
BRANCH  20  23
ATOM     21  N   UNL     1      -7.294   1.707   2.560  0.00  0.00    -0.271 N 
ATOM     22  C   UNL     1      -6.121   2.319   2.293  0.00  0.00    +0.110 A 
ATOM     23  C   UNL     1      -5.404   2.353   3.440  0.00  0.00    -0.024 A 
ATOM     24  C   UNL     1      -6.168   1.749   4.444  0.00  0.00    +0.061 A 
ATOM     25  N   UNL     1      -7.301   1.361   3.917  0.00  0.00    -0.176 NA
ATOM     26  C   UNL     1      -5.757   1.575   5.883  0.00  0.00    +0.068 C 
BRANCH  21  27
ATOM     27  C   UNL     1      -8.372   1.454   1.600  0.00  0.00    +0.143 C 
BRANCH  27  29
ATOM     28  C   UNL     1      -9.839  -0.302   0.597  0.00  0.00    +0.005 C 
ATOM     29  C   UNL     1      -8.714  -0.038   1.599  0.00  0.00    +0.020 C 
ENDBRANCH  27  29
ENDBRANCH  21  27
ENDBRANCH  20  23
ENDBRANCH  17  20
ENDBRANCH  16  17
ENDBRANCH   1  16
TORSDOF 7
