REMARK  Name = ZINC26608300
REMARK  10 active torsions:
REMARK  status: ('A' for Active; 'I' for Inactive)
REMARK    1  A    between atoms: C_1  and  C_2
REMARK    2  A    between atoms: N_4  and  C_34
REMARK    3  A    between atoms: C_9  and  C_17
REMARK    4  A    between atoms: C_11  and  C_15
REMARK    5  A    between atoms: C_12  and  N_14
REMARK    6  A    between atoms: C_20  and  O_25
REMARK    7  A    between atoms: C_21  and  O_23
REMARK    8  A    between atoms: O_23  and  C_24
REMARK    9  A    between atoms: O_25  and  C_26
REMARK   10  A    between atoms: C_26  and  C_27
REMARK                            x       y       z     vdW  Elec       q    Type
REMARK                         _______ _______ _______ _____ _____    ______ ____
ROOT
ATOM      1  C   UNL     1      -1.246   0.590  -2.906  0.00  0.00    +0.063 C 
ATOM      2  C   UNL     1       0.157   0.157  -2.567  0.00  0.00    +0.043 C 
ATOM      3  N   UNL     1       1.204   0.293  -3.315  0.00  0.00    -0.185 NA
ATOM      4  N   UNL     1       2.381  -0.203  -2.696  0.00  0.00    -0.185 N 
ATOM      5  C   UNL     1       2.101  -0.069  -1.264  0.00  0.00    +0.294 C 
ATOM      6  C   UNL     1       0.599  -0.511  -1.299  0.00  0.00    +0.109 C 
ATOM      7  C   UNL     1       0.002  -0.004   0.002  0.00  0.00    +0.078 C 
ATOM      8  C   UNL     1       0.903  -0.520   1.109  0.00  0.00    +0.094 C 
ATOM      9  C   UNL     1       2.158  -0.973   0.870  0.00  0.00    +0.194 C 
ATOM     10  O   UNL     1       2.734  -0.957  -0.364  0.00  0.00    -0.455 OA
ENDROOT
BRANCH   7  11
ATOM     11  C   UNL     1      -0.018   1.503   0.010  0.00  0.00    -0.035 A 
ATOM     12  C   UNL     1      -1.171   2.179  -0.344  0.00  0.00    +0.008 A 
ATOM     13  C   UNL     1      -1.195   3.561  -0.337  0.00  0.00    +0.050 A 
ATOM     14  C   UNL     1      -0.062   4.272   0.024  0.00  0.00    +0.162 A 
ATOM     15  C   UNL     1       1.099   3.591   0.380  0.00  0.00    +0.162 A 
ATOM     16  C   UNL     1       1.114   2.206   0.377  0.00  0.00    +0.053 A 
BRANCH  15  17
ATOM     17  O   UNL     1       2.213   4.285   0.735  0.00  0.00    -0.491 OA
ATOM     18  C   UNL     1       3.368   3.520   1.088  0.00  0.00    +0.277 C 
ENDBRANCH  15  17
BRANCH  14  19
ATOM     19  O   UNL     1      -0.083   5.632   0.030  0.00  0.00    -0.484 OA
BRANCH  19  20
ATOM     20  C   UNL     1      -1.309   6.263  -0.348  0.00  0.00    +0.266 C 
BRANCH  20  21
ATOM     21  C   UNL     1      -1.144   7.759  -0.282  0.00  0.00    +0.008 A 
ATOM     22  C   UNL     1       0.065   8.305   0.107  0.00  0.00    +0.008 A 
ATOM     23  C   UNL     1       0.217   9.678   0.163  0.00  0.00    +0.000 A 
ATOM     24  C   UNL     1      -0.842  10.506  -0.161  0.00  0.00    +0.001 A 
ATOM     25  C   UNL     1      -2.052   9.961  -0.545  0.00  0.00    +0.020 A 
ATOM     26  C   UNL     1      -2.204   8.587  -0.606  0.00  0.00    +0.047 A 
ATOM     27 CL   UNL     1      -3.725   7.902  -1.088  0.00  0.00    -0.083 Cl
ENDBRANCH  20  21
ENDBRANCH  19  20
ENDBRANCH  14  19
ENDBRANCH   7  11
BRANCH   4  28
ATOM     28  C   UNL     1       3.533  -0.700  -3.307  0.00  0.00    +0.055 A 
ATOM     29  C   UNL     1       4.598  -1.140  -2.530  0.00  0.00    +0.025 A 
ATOM     30  C   UNL     1       5.734  -1.637  -3.138  0.00  0.00    +0.002 A 
ATOM     31  C   UNL     1       5.817  -1.687  -4.517  0.00  0.00    +0.000 A 
ATOM     32  C   UNL     1       4.761  -1.245  -5.293  0.00  0.00    +0.002 A 
ATOM     33  C   UNL     1       3.620  -0.752  -4.692  0.00  0.00    +0.025 A 
ENDBRANCH   4  28
BRANCH   9  34
ATOM     34  N   UNL     1       2.884  -1.470   1.923  0.00  0.00    -0.329 N 
ATOM     35  H   UNL     1       3.905  -1.845   1.758  0.00  0.00    +0.145 HD
ATOM     36  H   UNL     1       2.445  -1.495   2.931  0.00  0.00    +0.145 HD
ENDBRANCH   9  34
BRANCH   8  37
ATOM     37  C   UNL     1       0.410  -0.528   2.454  0.00  0.00    +0.100 C 
ATOM     38  N   UNL     1       0.019  -0.535   3.520  0.00  0.00    -0.191 NA
ENDBRANCH   8  37
TORSDOF 8
