REMARK  Name = ZINC40432627
REMARK  6 active torsions:
REMARK  status: ('A' for Active; 'I' for Inactive)
REMARK    1  A    between atoms: C_1  and  C_2
REMARK    2  A    between atoms: C_2  and  C_3
REMARK    3  A    between atoms: C_2  and  C_4
REMARK    4  A    between atoms: C_2  and  C_5
REMARK    5  A    between atoms: C_11  and  N_13
REMARK    6  A    between atoms: C_14  and  C_16
REMARK                            x       y       z     vdW  Elec       q    Type
REMARK                         _______ _______ _______ _____ _____    ______ ____
ROOT
ATOM      1  N   UNL     1       2.163   1.387  -1.333  0.00  0.00    -0.308 N 
ATOM      2  C   UNL     1       3.323   1.978  -0.984  0.00  0.00    +0.246 C 
ATOM      3  O   UNL     1       4.295   1.299  -0.718  0.00  0.00    -0.270 OA
ATOM      4  H   UNL     1       1.387   1.930  -1.546  0.00  0.00    +0.149 HD
ENDROOT
BRANCH   2   5
ATOM      5  C   UNL     1       3.412   3.449  -0.924  0.00  0.00    +0.053 A 
ATOM      6  C   UNL     1       2.281   4.246  -1.227  0.00  0.00    +0.020 A 
ATOM      7  C   UNL     1       2.393   5.599  -1.164  0.00  0.00    +0.071 A 
ATOM      8  C   UNL     1       3.623   6.178  -0.801  0.00  0.00    +0.249 A 
ATOM      9  O   UNL     1       3.728   7.391  -0.743  0.00  0.00    -0.268 OA
ATOM     10  N   UNL     1       4.685   5.402  -0.517  0.00  0.00    -0.328 N 
ATOM     11  H   UNL     1       5.526   5.816  -0.267  0.00  0.00    +0.168 HD
ATOM     12  C   UNL     1       4.597   4.059  -0.567  0.00  0.00    +0.099 A 
ENDBRANCH   2   5
BRANCH   1  18
ATOM     13  C   UNL     1       0.643  -0.511  -1.071  0.00  0.00    +0.015 C 
ATOM     14  C   UNL     1       0.550  -2.037  -1.133  0.00  0.00    +0.006 C 
ATOM     15  C   UNL     1       0.926  -2.514  -2.538  0.00  0.00    +0.000 C 
ATOM     16  C   UNL     1       2.356  -2.077  -2.860  0.00  0.00    +0.002 C 
ATOM     17  C   UNL     1       2.449  -0.551  -2.797  0.00  0.00    +0.022 C 
ATOM     18  C   UNL     1       2.074  -0.074  -1.393  0.00  0.00    +0.077 C 
BRANCH  13  20
ATOM     19  C   UNL     1       0.197   1.494   0.351  0.00  0.00    +0.011 C 
ATOM     20  C   UNL     1       0.268  -0.034   0.333  0.00  0.00    -0.033 C 
ATOM     21  C   UNL     1       1.325  -0.507   1.332  0.00  0.00    +0.011 C 
ATOM     22  C   UNL     1      -1.095  -0.612   0.721  0.00  0.00    +0.011 C 
ENDBRANCH  13  20
ENDBRANCH   1  18
TORSDOF 3
