REMARK  Name = ZINC39979238
REMARK  3 active torsions:
REMARK  status: ('A' for Active; 'I' for Inactive)
REMARK    1  A    between atoms: C_9  and  S_14
REMARK    2  A    between atoms: S_14  and  C_15
REMARK    3  A    between atoms: C_15  and  N_17
REMARK                            x       y       z     vdW  Elec       q    Type
REMARK                         _______ _______ _______ _____ _____    ______ ____
ROOT
ATOM      1  C   UNL     1      -0.017   1.371   0.010  0.00  0.00    +0.000 A 
ATOM      2  C   UNL     1       1.179   2.068   0.002  0.00  0.00    +0.002 A 
ATOM      3  C   UNL     1       2.365   1.376  -0.017  0.00  0.00    +0.023 A 
ATOM      4  C   UNL     1       2.396  -0.029  -0.024  0.00  0.00    +0.037 A 
ATOM      5  C   UNL     1       1.202  -0.717  -0.011  0.00  0.00    -0.026 A 
ATOM      6  C   UNL     1       0.002  -0.004   0.002  0.00  0.00    +0.005 A 
ATOM      7  C   UNL     1       1.065  -2.205  -0.003  0.00  0.00    +0.038 C 
ATOM      8  C   UNL     1       2.104  -2.950   0.776  0.00  0.00    +0.028 C 
ATOM      9  C   UNL     1       3.426  -3.066   0.057  0.00  0.00    +0.139 C 
ATOM     10  C   UNL     1       4.164  -1.776   0.040  0.00  0.00    +0.231 C 
ATOM     11  O   UNL     1       5.372  -1.843   0.129  0.00  0.00    -0.274 OA
ATOM     12  N   UNL     1       3.656  -0.580  -0.060  0.00  0.00    -0.284 N 
ATOM     13  H   UNL     1       4.340   0.093  -0.196  0.00  0.00    +0.155 HD
ENDROOT
BRANCH   9  14
ATOM     14  S   UNL     1       4.444  -4.314   0.892  0.00  0.00    -0.090 S 
BRANCH  14  15
ATOM     15  C   UNL     1       5.875  -4.449  -0.128  0.00  0.00    +0.110 C 
ATOM     16  S   UNL     1       6.013  -3.491  -1.540  0.00  0.00    -0.028 S 
BRANCH  15  17
ATOM     17  N   UNL     1       6.861  -5.306   0.204  0.00  0.00    -0.319 N 
ATOM     18  C   UNL     1       6.711  -6.105   1.399  0.00  0.00    +0.106 C 
ATOM     19  C   UNL     1       7.289  -5.336   2.614  0.00  0.00    +0.019 C 
ATOM     20  C   UNL     1       8.757  -5.285   2.534  0.00  0.00    +0.002 C 
ATOM     21  C   UNL     1       9.295  -4.533   1.320  0.00  0.00    +0.002 C 
ATOM     22  C   UNL     1       9.357  -5.469   0.139  0.00  0.00    +0.019 C 
ATOM     23  C   UNL     1       8.046  -5.394  -0.672  0.00  0.00    +0.106 C 
ENDBRANCH  15  17
ENDBRANCH  14  15
ENDBRANCH   9  14
TORSDOF 3
