REMARK  Name = ZINC24280496
REMARK  8 active torsions:
REMARK  status: ('A' for Active; 'I' for Inactive)
REMARK    1  A    between atoms: C_1  and  C_2
REMARK    2  A    between atoms: C_2  and  C_3
REMARK    3  A    between atoms: C_2  and  C_4
REMARK    4  A    between atoms: C_4  and  C_5
REMARK    5  A    between atoms: C_5  and  C_29
REMARK    6  A    between atoms: N_8  and  C_12
REMARK    7  A    between atoms: C_12  and  N_13
REMARK    8  A    between atoms: C_18  and  C_20
REMARK                            x       y       z     vdW  Elec       q    Type
REMARK                         _______ _______ _______ _____ _____    ______ ____
ROOT
ATOM      1  C   UNL     1       1.594   4.223   5.072  0.00  0.00    +0.138 C 
ATOM      2  C   UNL     1       0.838   4.592   3.811  0.00  0.00    +0.252 C 
ATOM      3  O   UNL     1       0.919   5.628   3.186  0.00  0.00    -0.272 OA
ATOM      4  N   UNL     1       0.059   3.530   3.529  0.00  0.00    -0.210 N 
ATOM      5  C   UNL     1       0.211   2.552   4.430  0.00  0.00    +0.311 C 
ATOM      6  O   UNL     1      -0.389   1.496   4.390  0.00  0.00    -0.252 OA
ATOM      7  N   UNL     1       1.106   2.868   5.384  0.00  0.00    -0.281 N 
ATOM      8  H   UNL     1       1.492   2.333   6.264  0.00  0.00    +0.152 HD
ENDROOT
BRANCH   1   9
ATOM      9  C   UNL     1       3.079   4.209   4.816  0.00  0.00    -0.015 A 
ATOM     10  C   UNL     1       3.824   5.358   5.008  0.00  0.00    +0.006 A 
ATOM     11  C   UNL     1       5.187   5.344   4.778  0.00  0.00    +0.000 A 
ATOM     12  C   UNL     1       5.803   4.185   4.345  0.00  0.00    +0.000 A 
ATOM     13  C   UNL     1       5.058   3.038   4.148  0.00  0.00    +0.000 A 
ATOM     14  C   UNL     1       3.695   3.050   4.383  0.00  0.00    +0.006 A 
ENDBRANCH   1   9
BRANCH   1  15
ATOM     15  C   UNL     1       1.254   5.191   6.207  0.00  0.00    +0.043 C 
BRANCH  15  17
ATOM     16  C   UNL     1      -0.502   5.835   7.864  0.00  0.00    +0.007 C 
ATOM     17  C   UNL     1      -0.214   5.017   6.603  0.00  0.00    -0.014 C 
ATOM     18  C   UNL     1      -1.111   5.502   5.463  0.00  0.00    +0.007 C 
ENDBRANCH  15  17
ENDBRANCH   1  15
BRANCH   4  19
ATOM     19  C   UNL     1      -0.849   3.456   2.381  0.00  0.00    +0.205 C 
BRANCH  19  20
ATOM     20  N   UNL     1      -0.135   2.890   1.229  0.00  0.00    -0.277 NA
ATOM     21  C   UNL     1      -0.075   1.425   1.316  0.00  0.00    +0.086 C 
ATOM     22  C   UNL     1       0.796   0.881   0.181  0.00  0.00    +0.015 C 
ATOM     23  C   UNL     1       0.200   1.308  -1.164  0.00  0.00    +0.003 C 
ATOM     24  C   UNL     1       0.103   2.835  -1.208  0.00  0.00    +0.026 C 
ATOM     25  C   UNL     1      -0.748   3.323  -0.034  0.00  0.00    +0.114 C 
BRANCH  25  26
ATOM     26  C   UNL     1      -0.829   4.827  -0.062  0.00  0.00    +0.097 A 
ATOM     27  N   UNL     1      -1.832   5.576  -0.424  0.00  0.00    -0.242 NA
ATOM     28  C   UNL     1      -1.776   6.924  -0.402  0.00  0.00    +0.079 A 
ATOM     29  C   UNL     1      -2.768   7.863  -0.760  0.00  0.00    +0.029 A 
ATOM     30  C   UNL     1      -2.525   9.198  -0.671  0.00  0.00    +0.002 A 
ATOM     31  C   UNL     1      -1.304   9.689  -0.229  0.00  0.00    +0.001 A 
ATOM     32  C   UNL     1      -0.307   8.802   0.130  0.00  0.00    +0.017 A 
ATOM     33  C   UNL     1      -0.542   7.452   0.044  0.00  0.00    +0.039 A 
ATOM     34  S   UNL     1       0.390   5.980   0.386  0.00  0.00    -0.071 S 
ENDBRANCH  25  26
ENDBRANCH  19  20
ENDBRANCH   4  19
TORSDOF 6
