REMARK  Name = ZINC32685714
REMARK  11 active torsions:
REMARK  status: ('A' for Active; 'I' for Inactive)
REMARK    1  A    between atoms: C_1  and  N_2
REMARK    2  A    between atoms: N_2  and  C_3
REMARK    3  A    between atoms: C_5  and  C_10
REMARK    4  A    between atoms: C_10  and  N_11
REMARK    5  A    between atoms: C_12  and  C_14
REMARK    6  A    between atoms: C_14  and  C_16
REMARK    7  A    between atoms: C_14  and  N_20
REMARK    8  A    between atoms: C_16  and  C_17
REMARK    9  A    between atoms: C_17  and  S_18
REMARK   10  A    between atoms: S_18  and  C_19
REMARK   11  A    between atoms: C_21  and  C_23
REMARK                            x       y       z     vdW  Elec       q    Type
REMARK                         _______ _______ _______ _____ _____    ______ ____
ROOT
ATOM      1  C   UNL     1      -3.498  -3.364   2.245  0.00  0.00    +0.160 C 
ENDROOT
BRANCH   1   3
ATOM      2  N   UNL     1      -1.688  -2.816   0.650  0.00  0.00    -0.310 N 
ATOM      3  C   UNL     1      -2.053  -3.379   1.819  0.00  0.00    +0.234 C 
ATOM      4  O   UNL     1      -1.217  -3.899   2.528  0.00  0.00    -0.274 OA
ATOM      5  H   UNL     1      -2.357  -2.400   0.083  0.00  0.00    +0.149 HD
BRANCH   2   6
ATOM      6  C   UNL     1      -0.283  -2.831   0.236  0.00  0.00    +0.143 C 
BRANCH   6  11
ATOM      7  C   UNL     1      -1.597   0.448   0.424  0.00  0.00    +0.130 C 
ATOM      8  N   UNL     1      -0.273   0.003  -0.017  0.00  0.00    -0.323 N 
ATOM      9  C   UNL     1       0.916   0.354   0.764  0.00  0.00    +0.130 C 
ATOM     10  C   UNL     1      -0.144  -0.753  -1.176  0.00  0.00    +0.103 A 
ATOM     11  C   UNL     1      -0.145  -2.142  -1.097  0.00  0.00    +0.008 A 
ATOM     12  C   UNL     1      -0.016  -2.882  -2.259  0.00  0.00    +0.010 A 
ATOM     13  C   UNL     1       0.110  -2.205  -3.465  0.00  0.00    +0.018 A 
ATOM     14  C   UNL     1       0.102  -0.825  -3.470  0.00  0.00    +0.084 A 
ATOM     15  N   UNL     1      -0.028  -0.145  -2.347  0.00  0.00    -0.349 N 
ATOM     16  H   UNL     1      -0.034   0.824  -2.379  0.00  0.00    +0.167 HD
ENDBRANCH   6  11
ENDBRANCH   2   6
ENDBRANCH   1   3
BRANCH   1  17
ATOM     17  N   UNL     1      -3.633  -4.033   3.541  0.00  0.00    -0.300 N 
ATOM     18  C   UNL     1      -4.664  -3.728   4.353  0.00  0.00    +0.246 C 
ATOM     19  O   UNL     1      -5.482  -2.897   4.010  0.00  0.00    -0.270 OA
ATOM     20  H   UNL     1      -2.980  -4.696   3.814  0.00  0.00    +0.150 HD
BRANCH  18  21
ATOM     21  C   UNL     1      -4.800  -4.404   5.660  0.00  0.00    +0.051 A 
ATOM     22  C   UNL     1      -3.858  -5.355   6.059  0.00  0.00    +0.014 A 
ATOM     23  C   UNL     1      -3.991  -5.981   7.281  0.00  0.00    +0.001 A 
ATOM     24  C   UNL     1      -5.054  -5.670   8.111  0.00  0.00    +0.001 A 
ATOM     25  C   UNL     1      -5.991  -4.730   7.722  0.00  0.00    +0.016 A 
ATOM     26  C   UNL     1      -5.867  -4.090   6.505  0.00  0.00    +0.030 A 
ATOM     27 BR   UNL     1      -7.144  -2.799   5.978  0.00  0.00    -0.050 Br
ENDBRANCH  18  21
ENDBRANCH   1  17
BRANCH   1  28
ATOM     28  C   UNL     1      -4.345  -4.096   1.202  0.00  0.00    +0.042 C 
BRANCH  28  29
ATOM     29  C   UNL     1      -5.825  -3.973   1.569  0.00  0.00    +0.071 C 
BRANCH  29  30
ATOM     30  S   UNL     1      -6.829  -4.840   0.333  0.00  0.00    -0.164 S 
ATOM     31  C   UNL     1      -8.534  -4.602   0.906  0.00  0.00    +0.084 C 
ENDBRANCH  29  30
ENDBRANCH  28  29
ENDBRANCH   1  28
TORSDOF 8
