REMARK  Name = ZINC41150038
REMARK  6 active torsions:
REMARK  status: ('A' for Active; 'I' for Inactive)
REMARK    1  A    between atoms: C_4  and  C_7
REMARK    2  A    between atoms: C_7  and  C_8
REMARK    3  A    between atoms: C_22  and  N_24
REMARK    4  A    between atoms: N_24  and  C_25
REMARK    5  A    between atoms: C_25  and  C_26
REMARK    6  A    between atoms: C_26  and  O_27
REMARK                            x       y       z     vdW  Elec       q    Type
REMARK                         _______ _______ _______ _____ _____    ______ ____
ROOT
ATOM      1  C   UNL     1       4.166  -0.951   1.403  0.00  0.00    -0.004 C 
ATOM      2  C   UNL     1       4.450   0.379   2.105  0.00  0.00    +0.023 C 
ATOM      3  C   UNL     1       4.883   0.107   3.549  0.00  0.00    +0.108 C 
ATOM      4  N   UNL     1       6.021  -0.823   3.534  0.00  0.00    -0.301 N 
ATOM      5  C   UNL     1       5.885  -2.094   2.810  0.00  0.00    +0.108 C 
ATOM      6  C   UNL     1       5.441  -1.797   1.374  0.00  0.00    +0.023 C 
ATOM      7  C   UNL     1       7.197  -0.508   4.191  0.00  0.00    +0.198 A 
ATOM      8  N   UNL     1       8.153  -1.416   4.245  0.00  0.00    -0.327 N 
ATOM      9  C   UNL     1       9.308  -1.149   4.872  0.00  0.00    +0.052 A 
ATOM     10  C   UNL     1      10.344  -2.089   4.948  0.00  0.00    +0.026 A 
ATOM     11  C   UNL     1      11.499  -1.767   5.597  0.00  0.00    +0.002 A 
ATOM     12  C   UNL     1      11.666  -0.517   6.186  0.00  0.00    +0.001 A 
ATOM     13  C   UNL     1      10.678   0.421   6.130  0.00  0.00    +0.013 A 
ATOM     14  C   UNL     1       9.480   0.122   5.471  0.00  0.00    +0.038 A 
ATOM     15  C   UNL     1       8.419   1.058   5.381  0.00  0.00    +0.132 A 
ATOM     16  N   UNL     1       7.319   0.699   4.735  0.00  0.00    -0.201 NA
ATOM     17  H   UNL     1       8.019  -2.283   3.830  0.00  0.00    +0.169 HD
ENDROOT
BRANCH  15  18
ATOM     18  N   UNL     1       8.531   2.310   5.945  0.00  0.00    -0.326 N 
ATOM     19  H   UNL     1       9.343   2.561   6.412  0.00  0.00    +0.148 HD
BRANCH  18  20
ATOM     20  C   UNL     1       7.422   3.262   5.840  0.00  0.00    +0.130 C 
BRANCH  20  21
ATOM     21  C   UNL     1       7.801   4.566   6.546  0.00  0.00    +0.174 C 
BRANCH  21  22
ATOM     22  O   UNL     1       8.893   5.180   5.858  0.00  0.00    -0.393 OA
ATOM     23  H   UNL     1       9.187   6.013   6.250  0.00  0.00    +0.209 HD
ENDBRANCH  21  22
ENDBRANCH  20  21
ENDBRANCH  18  20
ENDBRANCH  15  18
BRANCH   1  24
ATOM     24  C   UNL     1       3.700  -0.682  -0.029  0.00  0.00    +0.038 C 
BRANCH  24  28
ATOM     25  C   UNL     1      -0.041   1.380   0.052  0.00  0.00    +0.000 A 
ATOM     26  C   UNL     1       1.143   2.094   0.048  0.00  0.00    +0.000 A 
ATOM     27  C   UNL     1       2.353   1.427   0.022  0.00  0.00    +0.003 A 
ATOM     28  C   UNL     1       2.380   0.045   0.000  0.00  0.00    -0.047 A 
ATOM     29  C   UNL     1       1.197  -0.669   0.004  0.00  0.00    +0.003 A 
ATOM     30  C   UNL     1      -0.013  -0.002   0.029  0.00  0.00    +0.000 A 
ENDBRANCH  24  28
ENDBRANCH   1  24
TORSDOF 6
