REMARK  Name = ZINC62252496
REMARK  9 active torsions:
REMARK  status: ('A' for Active; 'I' for Inactive)
REMARK    1  A    between atoms: C_1  and  C_2
REMARK    2  A    between atoms: C_5  and  C_7
REMARK    3  A    between atoms: C_8  and  C_13
REMARK    4  A    between atoms: C_13  and  N_14
REMARK    5  A    between atoms: N_14  and  C_15
REMARK    6  A    between atoms: C_15  and  C_16
REMARK    7  A    between atoms: C_19  and  S_22
REMARK    8  A    between atoms: S_22  and  N_25
REMARK    9  A    between atoms: N_25  and  C_26
REMARK                            x       y       z     vdW  Elec       q    Type
REMARK                         _______ _______ _______ _____ _____    ______ ____
ROOT
ATOM      1  N   UNL     1       4.170  -1.207  -0.595  0.00  0.00    +0.384 N 
ATOM      2  H   UNL     1       3.469  -0.815   0.016  0.00  0.00    -0.085 HD
ATOM      3  H   UNL     1       4.880  -1.664  -0.042  0.00  0.00    -0.085 HD
ENDROOT
BRANCH   1   4
ATOM      4  C   UNL     1       3.543  -2.186  -1.494  0.00  0.00    -0.042 C 
BRANCH   4   6
ATOM      5  C   UNL     1       1.667  -3.226  -0.023  0.00  0.00    +0.129 A 
ATOM      6  C   UNL     1       2.915  -3.287  -0.678  0.00  0.00    -0.016 A 
ATOM      7  C   UNL     1       3.445  -4.506  -0.446  0.00  0.00    +0.107 A 
ATOM      8  N   UNL     1       2.578  -5.199   0.324  0.00  0.00    -0.284 N 
ATOM      9  H   UNL     1       2.702  -6.107   0.644  0.00  0.00    +0.188 HD
ATOM     10  N   UNL     1       1.472  -4.380   0.583  0.00  0.00    -0.171 NA
BRANCH   5  15
ATOM     11  C   UNL     1      -0.018   1.503   0.010  0.00  0.00    +0.086 C 
ATOM     12  C   UNL     1       0.002  -0.004   0.002  0.00  0.00    +0.103 A 
ATOM     13  C   UNL     1      -1.081  -0.804   0.003  0.00  0.00    +0.045 A 
ATOM     14  C   UNL     1      -0.613  -2.134  -0.007  0.00  0.00    +0.052 A 
ATOM     15  C   UNL     1       0.745  -2.070  -0.013  0.00  0.00    +0.155 A 
ATOM     16  O   UNL     1       1.104  -0.772  -0.013  0.00  0.00    -0.458 OA
ENDBRANCH   5  15
ENDBRANCH   4   6
ENDBRANCH   1   4
BRANCH   1  17
ATOM     17  C   UNL     1       4.782  -0.135  -1.389  0.00  0.00    -0.046 C 
BRANCH  17  18
ATOM     18  C   UNL     1       5.425   0.869  -0.467  0.00  0.00    -0.064 A 
ATOM     19  C   UNL     1       4.693   1.944   0.003  0.00  0.00    +0.003 A 
ATOM     20  C   UNL     1       5.282   2.865   0.849  0.00  0.00    +0.029 A 
ATOM     21  C   UNL     1       6.603   2.711   1.225  0.00  0.00    +0.105 A 
ATOM     22  C   UNL     1       7.335   1.636   0.756  0.00  0.00    +0.029 A 
ATOM     23  C   UNL     1       6.745   0.713  -0.086  0.00  0.00    +0.003 A 
BRANCH  21  24
ATOM     24  S   UNL     1       7.355   3.885   2.303  0.00  0.00    +0.059 S 
ATOM     25  O   UNL     1       8.754   3.814   2.068  0.00  0.00    -0.153 OA
ATOM     26  O   UNL     1       6.619   5.093   2.164  0.00  0.00    -0.153 OA
BRANCH  24  27
ATOM     27  N   UNL     1       7.108   3.356   3.853  0.00  0.00    -0.187 NA
ATOM     28  H   UNL     1       6.558   3.875   4.460  0.00  0.00    +0.148 HD
BRANCH  27  29
ATOM     29  C   UNL     1       7.720   2.105   4.306  0.00  0.00    +0.077 C 
ATOM     30  C   UNL     1       6.941   1.262   5.317  0.00  0.00    +0.022 C 
ATOM     31  C   UNL     1       8.185   2.033   5.761  0.00  0.00    +0.022 C 
ENDBRANCH  27  29
ENDBRANCH  24  27
ENDBRANCH  21  24
ENDBRANCH  17  18
ENDBRANCH   1  17
TORSDOF 8
