REMARK  Name = ZINC39969085
REMARK  9 active torsions:
REMARK  status: ('A' for Active; 'I' for Inactive)
REMARK    1  A    between atoms: C_1  and  O_2
REMARK    2  A    between atoms: O_2  and  C_3
REMARK    3  A    between atoms: C_8  and  C_13
REMARK    4  A    between atoms: C_13  and  C_34
REMARK    5  A    between atoms: C_14  and  C_15
REMARK    6  A    between atoms: C_18  and  O_22
REMARK    7  A    between atoms: O_22  and  C_23
REMARK    8  A    between atoms: C_23  and  C_24
REMARK    9  A    between atoms: C_27  and  N_30
REMARK                            x       y       z     vdW  Elec       q    Type
REMARK                         _______ _______ _______ _____ _____    ______ ____
ROOT
ATOM      1  C   UNL     1       2.806  -6.350  -5.267  0.00  0.00    -0.021 A 
ATOM      2  C   UNL     1       1.678  -5.591  -5.600  0.00  0.00    +0.031 A 
ATOM      3  C   UNL     1       0.764  -6.080  -6.507  0.00  0.00    +0.085 A 
ATOM      4  C   UNL     1       0.960  -7.327  -7.092  0.00  0.00    +0.157 A 
ATOM      5  C   UNL     1       2.079  -8.085  -6.764  0.00  0.00    +0.085 A 
ATOM      6  C   UNL     1       3.002  -7.601  -5.862  0.00  0.00    +0.031 A 
ATOM      7 CL   UNL     1       2.317  -9.640  -7.498  0.00  0.00    -0.080 Cl
ATOM      8 CL   UNL     1      -0.636  -5.140  -6.920  0.00  0.00    -0.080 Cl
ENDROOT
BRANCH   1  10
ATOM      9  C   UNL     1       3.367  -5.125  -3.229  0.00  0.00    +0.072 C 
ATOM     10  C   UNL     1       3.785  -5.831  -4.300  0.00  0.00    +0.026 C 
BRANCH   9  16
ATOM     11  C   UNL     1       0.131  -2.790   0.700  0.00  0.00    +0.122 A 
ATOM     12  C   UNL     1       0.006  -1.738  -0.300  0.00  0.00    +0.048 A 
ATOM     13  C   UNL     1       0.404  -1.917  -1.574  0.00  0.00    +0.031 A 
ATOM     14  C   UNL     1       0.984  -3.204  -1.984  0.00  0.00    +0.061 A 
ATOM     15  N   UNL     1       1.439  -3.636  -3.125  0.00  0.00    -0.359 N 
ATOM     16  C   UNL     1       1.894  -5.017  -2.926  0.00  0.00    +0.216 C 
ATOM     17  N   UNL     1       1.645  -5.336  -1.516  0.00  0.00    -0.359 N 
ATOM     18  C   UNL     1       1.113  -4.279  -0.964  0.00  0.00    +0.064 A 
ATOM     19  C   UNL     1       0.661  -4.002   0.401  0.00  0.00    +0.073 A 
ATOM     20  H   UNL     1       1.471  -3.135  -3.956  0.00  0.00    +0.162 HD
ATOM     21  H   UNL     1       1.839  -6.178  -1.074  0.00  0.00    +0.162 HD
BRANCH  11  23
ATOM     22  C   UNL     1      -0.839  -1.257   2.233  0.00  0.00    +0.277 C 
ATOM     23  O   UNL     1      -0.288  -2.549   1.967  0.00  0.00    -0.495 OA
ENDBRANCH  11  23
ENDBRANCH   9  16
BRANCH   9  24
ATOM     24  C   UNL     1       4.322  -4.478  -2.381  0.00  0.00    +0.099 C 
ATOM     25  N   UNL     1       5.079  -3.965  -1.708  0.00  0.00    -0.191 NA
ENDBRANCH   9  24
ENDBRANCH   1  10
BRANCH   4  26
ATOM     26  O   UNL     1       0.056  -7.806  -7.985  0.00  0.00    -0.484 OA
BRANCH  26  27
ATOM     27  C   UNL     1       0.272  -7.487  -9.361  0.00  0.00    +0.264 C 
BRANCH  27  28
ATOM     28  C   UNL     1      -0.823  -8.098 -10.196  0.00  0.00    -0.010 A 
ATOM     29  C   UNL     1      -0.675  -9.376 -10.702  0.00  0.00    +0.009 A 
ATOM     30  C   UNL     1      -1.680  -9.937 -11.468  0.00  0.00    +0.033 A 
ATOM     31  C   UNL     1      -2.833  -9.220 -11.728  0.00  0.00    +0.126 A 
ATOM     32  C   UNL     1      -2.982  -7.943 -11.221  0.00  0.00    +0.033 A 
ATOM     33  C   UNL     1      -1.979  -7.384 -10.451  0.00  0.00    +0.009 A 
BRANCH  31  34
ATOM     34  N   UNL     1      -3.908  -9.821 -12.549  0.00  0.00    +0.056 N 
ATOM     35  O   UNL     1      -3.778 -10.938 -12.993  0.00  0.00    -0.126 OA
ATOM     36  O   UNL     1      -4.917  -9.194 -12.776  0.00  0.00    -0.126 OA
ENDBRANCH  31  34
ENDBRANCH  27  28
ENDBRANCH  26  27
ENDBRANCH   4  26
TORSDOF 8
