REMARK  Name = ZINC25299590
REMARK  7 active torsions:
REMARK  status: ('A' for Active; 'I' for Inactive)
REMARK    1  A    between atoms: C_1  and  C_2
REMARK    2  A    between atoms: C_2  and  C_4
REMARK    3  A    between atoms: C_2  and  N_30
REMARK    4  A    between atoms: N_6  and  C_7
REMARK    5  A    between atoms: C_10  and  N_13
REMARK    6  A    between atoms: C_14  and  C_16
REMARK    7  A    between atoms: N_21  and  C_23
REMARK                            x       y       z     vdW  Elec       q    Type
REMARK                         _______ _______ _______ _____ _____    ______ ____
ROOT
ATOM      1  C   UNL     1      -4.533   0.409  -2.967  0.00  0.00    +0.034 A 
ATOM      2  C   UNL     1      -3.589   0.537  -3.977  0.00  0.00    +0.025 A 
ATOM      3  C   UNL     1      -3.920   0.213  -5.277  0.00  0.00    +0.025 A 
ATOM      4  C   UNL     1      -5.201  -0.232  -5.577  0.00  0.00    +0.034 A 
ATOM      5  C   UNL     1      -6.147  -0.355  -4.568  0.00  0.00    +0.025 A 
ATOM      6  C   UNL     1      -5.814  -0.036  -3.267  0.00  0.00    +0.025 A 
ENDROOT
BRANCH   1   9
ATOM      7  C   UNL     1      -4.722   0.030  -0.624  0.00  0.00    +0.242 C 
ATOM      8  O   UNL     1      -5.551  -0.828  -0.842  0.00  0.00    -0.273 OA
ATOM      9  N   UNL     1      -4.195   0.733  -1.647  0.00  0.00    -0.284 N 
ATOM     10  H   UNL     1      -3.500   1.561  -1.444  0.00  0.00    +0.155 HD
BRANCH   7  12
ATOM     11  C   UNL     1      -4.591   1.766   1.142  0.00  0.00    +0.042 C 
ATOM     12  C   UNL     1      -4.280   0.310   0.789  0.00  0.00    +0.191 C 
BRANCH  12  13
ATOM     13  N   UNL     1      -4.994  -0.579   1.709  0.00  0.00    -0.240 N 
ATOM     14  C   UNL     1      -6.211  -0.378   2.242  0.00  0.00    +0.219 A 
ATOM     15  N   UNL     1      -6.495  -1.402   3.005  0.00  0.00    -0.223 NA
ATOM     16  C   UNL     1      -5.485  -2.271   2.989  0.00  0.00    +0.245 A 
ATOM     17  N   UNL     1      -4.540  -1.810   2.212  0.00  0.00    -0.158 NA
ENDBRANCH  12  13
ENDBRANCH   7  12
ENDBRANCH   1   9
BRANCH   4  18
ATOM     18  N   UNL     1      -5.539  -0.555  -6.897  0.00  0.00    -0.285 N 
ATOM     19  C   UNL     1      -4.622  -1.118  -7.709  0.00  0.00    +0.222 C 
ATOM     20  O   UNL     1      -3.482  -1.268  -7.324  0.00  0.00    -0.275 OA
ATOM     21  H   UNL     1      -6.553  -0.349  -7.272  0.00  0.00    +0.155 HD
BRANCH  19  22
ATOM     22  C   UNL     1      -5.014  -1.562  -9.095  0.00  0.00    +0.102 C 
ATOM     23  C   UNL     1      -5.992  -2.758  -9.037  0.00  0.00    +0.110 C 
ATOM     24  C   UNL     1      -5.584  -3.627 -10.207  0.00  0.00    +0.221 C 
ATOM     25  O   UNL     1      -6.263  -4.511 -10.685  0.00  0.00    -0.275 OA
ATOM     26  N   UNL     1      -4.361  -3.275 -10.640  0.00  0.00    -0.270 N 
ATOM     27  C   UNL     1      -3.808  -2.175  -9.840  0.00  0.00    +0.127 C 
BRANCH  26  28
ATOM     28  C   UNL     1      -3.700  -3.881 -11.714  0.00  0.00    +0.050 A 
ATOM     29  C   UNL     1      -2.871  -4.973 -11.496  0.00  0.00    +0.024 A 
ATOM     30  C   UNL     1      -2.223  -5.571 -12.559  0.00  0.00    +0.002 A 
ATOM     31  C   UNL     1      -2.391  -5.076 -13.839  0.00  0.00    +0.001 A 
ATOM     32  C   UNL     1      -3.211  -3.985 -14.061  0.00  0.00    +0.017 A 
ATOM     33  C   UNL     1      -3.866  -3.385 -13.002  0.00  0.00    +0.039 A 
ATOM     34 BR   UNL     1      -4.987  -1.893 -13.305  0.00  0.00    -0.048 Br
ENDBRANCH  26  28
ENDBRANCH  19  22
ENDBRANCH   4  18
TORSDOF 6
