REMARK  Name = ZINC25533301
REMARK  10 active torsions:
REMARK  status: ('A' for Active; 'I' for Inactive)
REMARK    1  A    between atoms: C_1  and  N_2
REMARK    2  A    between atoms: N_2  and  C_3
REMARK    3  A    between atoms: N_2  and  C_18
REMARK    4  A    between atoms: C_3  and  C_4
REMARK    5  A    between atoms: C_4  and  C_5
REMARK    6  A    between atoms: N_7  and  C_8
REMARK    7  A    between atoms: C_11  and  S_14
REMARK    8  A    between atoms: S_14  and  N_17
REMARK    9  A    between atoms: C_18  and  C_19
REMARK   10  A    between atoms: C_24  and  C_25
REMARK                            x       y       z     vdW  Elec       q    Type
REMARK                         _______ _______ _______ _____ _____    ______ ____
ROOT
ATOM      1  C   UNL     1       2.187  -0.149   1.100  0.00  0.00    +0.077 C 
ENDROOT
BRANCH   1   2
ATOM      2  C   UNL     1       2.907  -0.678   2.313  0.00  0.00    +0.215 C 
ATOM      3  O   UNL     1       2.297  -1.300   3.157  0.00  0.00    -0.276 OA
ATOM      4  N   UNL     1       4.229  -0.462   2.459  0.00  0.00    -0.286 N 
ATOM      5  H   UNL     1       4.797   0.035   1.658  0.00  0.00    +0.155 HD
BRANCH   4   6
ATOM      6  C   UNL     1       4.879  -0.869   3.629  0.00  0.00    +0.033 A 
ATOM      7  C   UNL     1       5.924  -0.112   4.144  0.00  0.00    +0.025 A 
ATOM      8  C   UNL     1       6.560  -0.513   5.303  0.00  0.00    +0.030 A 
ATOM      9  C   UNL     1       6.165  -1.673   5.944  0.00  0.00    +0.105 A 
ATOM     10  C   UNL     1       5.129  -2.431   5.431  0.00  0.00    +0.030 A 
ATOM     11  C   UNL     1       4.485  -2.033   4.276  0.00  0.00    +0.025 A 
BRANCH   9  12
ATOM     12  S   UNL     1       6.983  -2.184   7.418  0.00  0.00    +0.056 S 
ATOM     13  O   UNL     1       7.555  -1.017   7.991  0.00  0.00    -0.153 OA
ATOM     14  O   UNL     1       6.068  -3.010   8.125  0.00  0.00    -0.153 OA
BRANCH  12  15
ATOM     15  N   UNL     1       8.245  -3.156   6.965  0.00  0.00    -0.204 NA
ATOM     16  H   UNL     1       8.784  -3.498   7.861  0.00  0.00    +0.144 HD
ATOM     17  H   UNL     1       8.931  -2.589   6.319  0.00  0.00    +0.144 HD
ENDBRANCH  12  15
ENDBRANCH   9  12
ENDBRANCH   4   6
ENDBRANCH   1   2
BRANCH   1  18
ATOM     18  C   UNL     1       0.707  -0.530   1.179  0.00  0.00    -0.070 C 
BRANCH  18  20
ATOM     19  C   UNL     1      -0.013   1.456  -0.006  0.00  0.00    -0.096 C 
ATOM     20  N   UNL     1       0.004  -0.013  -0.004  0.00  0.00    +0.381 N 
ATOM     21  H   UNL     1       0.555  -0.346  -0.896  0.00  0.00    -0.082 HD
BRANCH  20  22
ATOM     22  C   UNL     1      -1.358  -0.556  -0.085  0.00  0.00    -0.043 C 
BRANCH  22  23
ATOM     23  C   UNL     1      -1.959  -0.206  -1.423  0.00  0.00    -0.052 A 
ATOM     24  C   UNL     1      -2.840   0.854  -1.529  0.00  0.00    +0.002 A 
ATOM     25  C   UNL     1      -3.387   1.177  -2.756  0.00  0.00    +0.000 A 
ATOM     26  C   UNL     1      -3.061   0.434  -3.876  0.00  0.00    +0.001 A 
ATOM     27  C   UNL     1      -2.185  -0.629  -3.768  0.00  0.00    +0.012 A 
ATOM     28  C   UNL     1      -1.633  -0.949  -2.542  0.00  0.00    +0.056 A 
BRANCH  28  29
ATOM     29  C   UNL     1      -0.678  -2.109  -2.425  0.00  0.00    +0.418 C 
ATOM     30  F   UNL     1      -0.506  -2.700  -3.681  0.00  0.00    -0.166 F 
ATOM     31  F   UNL     1       0.557  -1.650  -1.953  0.00  0.00    -0.166 F 
ATOM     32  F   UNL     1      -1.197  -3.052  -1.532  0.00  0.00    -0.166 F 
ENDBRANCH  28  29
ENDBRANCH  22  23
ENDBRANCH  20  22
ENDBRANCH  18  20
ENDBRANCH   1  18
TORSDOF 9
