REMARK  Name = ZINC59985135
REMARK  3 active torsions:
REMARK  status: ('A' for Active; 'I' for Inactive)
REMARK    1  A    between atoms: C_8  and  O_32
REMARK    2  A    between atoms: C_10  and  N_12
REMARK    3  A    between atoms: C_20  and  C_22
REMARK                            x       y       z     vdW  Elec       q    Type
REMARK                         _______ _______ _______ _____ _____    ______ ____
ROOT
ATOM      1  N   UNL     1       4.147  -1.058   1.302  0.00  0.00    -0.319 N 
ATOM      2  C   UNL     1       5.114  -0.160   1.715  0.00  0.00    +0.132 A 
ATOM      3  C   UNL     1       5.614  -0.202   3.048  0.00  0.00    +0.051 A 
ATOM      4  C   UNL     1       5.241  -1.107   4.136  0.00  0.00    -0.025 A 
ATOM      5  C   UNL     1       5.871  -0.937   5.316  0.00  0.00    -0.004 A 
ATOM      6  S   UNL     1       6.984   0.419   5.056  0.00  0.00    -0.073 S 
ATOM      7  C   UNL     1       6.599   0.758   3.358  0.00  0.00    +0.114 A 
ATOM      8  N   UNL     1       7.018   1.632   2.466  0.00  0.00    -0.220 NA
ATOM      9  C   UNL     1       6.515   1.626   1.238  0.00  0.00    +0.164 A 
ATOM     10  N   UNL     1       5.590   0.743   0.876  0.00  0.00    -0.212 NA
ATOM     11  C   UNL     1       5.670  -1.726   6.574  0.00  0.00    +0.043 C 
ATOM     12  C   UNL     1       4.367  -2.526   6.440  0.00  0.00    +0.005 C 
ATOM     13  C   UNL     1       4.361  -3.230   5.080  0.00  0.00    +0.005 C 
ATOM     14  C   UNL     1       4.190  -2.199   3.963  0.00  0.00    +0.037 C 
ATOM     15  H   UNL     1       3.745  -1.667   1.941  0.00  0.00    +0.148 HD
ENDROOT
BRANCH   1  24
ATOM     16  C   UNL     1       0.314   1.380  -0.771  0.00  0.00    +0.000 A 
ATOM     17  C   UNL     1       1.536   2.023  -0.722  0.00  0.00    +0.000 A 
ATOM     18  C   UNL     1       2.690   1.295  -0.509  0.00  0.00    +0.006 A 
ATOM     19  C   UNL     1       2.627  -0.079  -0.344  0.00  0.00    -0.022 A 
ATOM     20  C   UNL     1       1.405  -0.722  -0.393  0.00  0.00    -0.040 A 
ATOM     21  C   UNL     1       0.248   0.010  -0.606  0.00  0.00    +0.004 A 
ATOM     22  C   UNL     1       1.600  -2.209  -0.187  0.00  0.00    +0.069 C 
ATOM     23  C   UNL     1       3.102  -2.458  -0.443  0.00  0.00    +0.143 C 
ATOM     24  C   UNL     1       3.728  -1.089  -0.102  0.00  0.00    +0.131 C 
BRANCH  23  25
ATOM     25  O   UNL     1       3.602  -3.480   0.421  0.00  0.00    -0.389 OA
ATOM     26  H   UNL     1       3.177  -4.340   0.301  0.00  0.00    +0.210 HD
ENDBRANCH  23  25
ENDBRANCH   1  24
BRANCH   9  27
ATOM     27  C   UNL     1       7.000   2.619   0.249  0.00  0.00    +0.037 A 
ATOM     28  C   UNL     1       7.982   3.550   0.600  0.00  0.00    +0.014 A 
ATOM     29  C   UNL     1       8.401   4.455  -0.359  0.00  0.00    +0.020 A 
ATOM     30  C   UNL     1       7.841   4.410  -1.623  0.00  0.00    +0.111 A 
ATOM     31  N   UNL     1       6.916   3.519  -1.925  0.00  0.00    -0.263 NA
ATOM     32  C   UNL     1       6.489   2.635  -1.048  0.00  0.00    +0.122 A 
ENDBRANCH   9  27
TORSDOF 3
