REMARK  Name = ZINC01035417
REMARK  5 active torsions:
REMARK  status: ('A' for Active; 'I' for Inactive)
REMARK    1  A    between atoms: C_1  and  C_2
REMARK    2  A    between atoms: N_5  and  C_7
REMARK    3  A    between atoms: C_16  and  C_18
REMARK    4  A    between atoms: C_29  and  C_31
REMARK    5  A    between atoms: C_29  and  C_32
REMARK                            x       y       z     vdW  Elec       q    Type
REMARK                         _______ _______ _______ _____ _____    ______ ____
ROOT
ATOM      1  C   UNL     1      -0.018   1.503   0.010  0.00  0.00    +0.068 C 
ATOM      2  C   UNL     1       0.002  -0.004   0.002  0.00  0.00    +0.066 A 
ATOM      3  C   UNL     1       0.008  -0.810  -1.128  0.00  0.00    +0.027 A 
ATOM      4  C   UNL     1       0.026  -2.116  -0.712  0.00  0.00    +0.131 A 
ATOM      5  N   UNL     1       0.034  -2.116   0.637  0.00  0.00    -0.218 N 
ATOM      6  N   UNL     1       0.023  -0.778   1.062  0.00  0.00    -0.170 NA
ATOM      7  N   UNL     1       0.028  -3.166  -1.623  0.00  0.00    -0.302 N 
ATOM      8  C   UNL     1      -0.293  -2.899  -2.930  0.00  0.00    +0.017 C 
ATOM      9  C   UNL     1      -0.320  -1.643  -3.426  0.00  0.00    +0.024 C 
ATOM     10  C   UNL     1       0.000  -0.428  -2.581  0.00  0.00    +0.090 C 
ATOM     11  C   UNL     1      -0.644  -1.406  -4.774  0.00  0.00    +0.162 C 
ATOM     12  O   UNL     1      -0.668  -0.263  -5.187  0.00  0.00    -0.292 OA
ATOM     13  C   UNL     1      -0.961  -2.534  -5.716  0.00  0.00    +0.086 C 
ATOM     14  C   UNL     1      -0.219  -3.792  -5.250  0.00  0.00    -0.023 C 
ATOM     15  C   UNL     1      -0.629  -4.084  -3.806  0.00  0.00    +0.058 C 
ATOM     16  C   UNL     1      -0.598  -4.974  -6.144  0.00  0.00    +0.011 C 
ATOM     17  C   UNL     1       1.291  -3.555  -5.319  0.00  0.00    +0.011 C 
ATOM     18  H   UNL     1       0.251  -4.066  -1.340  0.00  0.00    +0.153 HD
ENDROOT
BRANCH  10  19
ATOM     19  C   UNL     1       1.355   0.108  -2.966  0.00  0.00    -0.017 A 
ATOM     20  C   UNL     1       2.476  -0.692  -2.841  0.00  0.00    +0.007 A 
ATOM     21  C   UNL     1       3.718  -0.201  -3.193  0.00  0.00    +0.020 A 
ATOM     22  C   UNL     1       3.842   1.091  -3.672  0.00  0.00    +0.042 A 
ATOM     23  C   UNL     1       2.721   1.892  -3.798  0.00  0.00    +0.040 A 
ATOM     24  C   UNL     1       1.476   1.398  -3.449  0.00  0.00    +0.046 A 
ATOM     25 CL   UNL     1       0.068   2.400  -3.612  0.00  0.00    -0.083 Cl
ATOM     26 CL   UNL     1       5.403   1.708  -4.115  0.00  0.00    -0.083 Cl
ENDBRANCH  10  19
BRANCH   5  27
ATOM     27  C   UNL     1       0.056  -3.248   1.464  0.00  0.00    +0.067 A 
ATOM     28  C   UNL     1      -0.615  -4.402   1.081  0.00  0.00    +0.028 A 
ATOM     29  C   UNL     1      -0.592  -5.515   1.898  0.00  0.00    +0.002 A 
ATOM     30  C   UNL     1       0.098  -5.481   3.096  0.00  0.00    +0.000 A 
ATOM     31  C   UNL     1       0.767  -4.333   3.480  0.00  0.00    +0.002 A 
ATOM     32  C   UNL     1       0.752  -3.219   2.664  0.00  0.00    +0.028 A 
ENDBRANCH   5  27
TORSDOF 2
