REMARK  Name = ZINC40316843
REMARK  10 active torsions:
REMARK  status: ('A' for Active; 'I' for Inactive)
REMARK    1  A    between atoms: C_6  and  C_7
REMARK    2  A    between atoms: C_7  and  N_8
REMARK    3  A    between atoms: N_8  and  C_9
REMARK    4  A    between atoms: N_8  and  C_16
REMARK    5  A    between atoms: C_9  and  C_10
REMARK    6  A    between atoms: C_16  and  C_17
REMARK    7  A    between atoms: C_17  and  C_19
REMARK    8  A    between atoms: C_17  and  O_28
REMARK    9  A    between atoms: C_19  and  O_20
REMARK   10  A    between atoms: O_20  and  C_21
REMARK                            x       y       z     vdW  Elec       q    Type
REMARK                         _______ _______ _______ _____ _____    ______ ____
ROOT
ATOM      1  N   UNL     1      -1.695  -1.085  -1.339  0.00  0.00    +0.386 N 
ATOM      2  H   UNL     1      -1.609  -0.162  -1.737  0.00  0.00    -0.081 HD
ENDROOT
BRANCH   1   3
ATOM      3  C   UNL     1      -1.032  -1.118  -0.029  0.00  0.00    -0.043 C 
BRANCH   3   9
ATOM      4  C   UNL     1       0.674   0.714  -0.026  0.00  0.00    +0.003 A 
ATOM      5  C   UNL     1       1.975   1.161  -0.157  0.00  0.00    +0.020 A 
ATOM      6  C   UNL     1       2.990   0.263  -0.434  0.00  0.00    +0.041 A 
ATOM      7  C   UNL     1       2.703  -1.082  -0.580  0.00  0.00    +0.020 A 
ATOM      8  C   UNL     1       1.401  -1.528  -0.449  0.00  0.00    +0.003 A 
ATOM      9  C   UNL     1       0.387  -0.630  -0.172  0.00  0.00    -0.064 A 
ATOM     10 CL   UNL     1       4.625   0.825  -0.599  0.00  0.00    -0.084 Cl
ENDBRANCH   3   9
ENDBRANCH   1   3
BRANCH   1  11
ATOM     11  C   UNL     1      -1.062  -2.065  -2.233  0.00  0.00    -0.046 C 
BRANCH  11  12
ATOM     12  C   UNL     1      -1.145  -3.457  -1.604  0.00  0.00    +0.102 C 
ATOM     13  C   UNL     1      -0.339  -4.464  -2.453  0.00  0.00    +0.032 C 
ATOM     14  C   UNL     1      -1.239  -5.729  -2.406  0.00  0.00    +0.030 C 
ATOM     15  C   UNL     1      -2.648  -5.087  -2.382  0.00  0.00    +0.160 C 
ATOM     16  O   UNL     1      -2.507  -3.900  -1.582  0.00  0.00    -0.378 OA
ENDBRANCH  11  12
ENDBRANCH   1  11
BRANCH   1  17
ATOM     17  C   UNL     1      -3.117  -1.418  -1.177  0.00  0.00    -0.043 C 
BRANCH  17  18
ATOM     18  C   UNL     1      -3.811  -1.369  -2.539  0.00  0.00    +0.135 C 
BRANCH  18  19
ATOM     19  O   UNL     1      -3.698  -0.053  -3.085  0.00  0.00    -0.390 OA
ATOM     20  H   UNL     1      -4.097   0.636  -2.536  0.00  0.00    +0.210 HD
ENDBRANCH  18  19
BRANCH  18  21
ATOM     21  C   UNL     1      -5.289  -1.726  -2.372  0.00  0.00    +0.258 C 
BRANCH  21  22
ATOM     22  O   UNL     1      -5.912  -1.794  -3.656  0.00  0.00    -0.489 OA
BRANCH  22  23
ATOM     23  C   UNL     1      -7.235  -2.103  -3.685  0.00  0.00    +0.121 A 
ATOM     24  C   UNL     1      -7.921  -2.330  -2.501  0.00  0.00    +0.047 A 
ATOM     25  C   UNL     1      -9.267  -2.643  -2.533  0.00  0.00    +0.019 A 
ATOM     26  C   UNL     1      -9.929  -2.731  -3.744  0.00  0.00    +0.018 A 
ATOM     27  C   UNL     1      -9.246  -2.506  -4.926  0.00  0.00    +0.019 A 
ATOM     28  C   UNL     1      -7.902  -2.186  -4.899  0.00  0.00    +0.047 A 
ATOM     29 BR   UNL     1     -11.770  -3.161  -3.784  0.00  0.00    -0.050 Br
ENDBRANCH  22  23
ENDBRANCH  21  22
ENDBRANCH  18  21
ENDBRANCH  17  18
ENDBRANCH   1  17
TORSDOF 10
