REMARK  Name = ZINC24809933
REMARK  9 active torsions:
REMARK  status: ('A' for Active; 'I' for Inactive)
REMARK    1  A    between atoms: C_1  and  C_2
REMARK    2  A    between atoms: C_2  and  O_3
REMARK    3  A    between atoms: O_3  and  C_4
REMARK    4  A    between atoms: C_7  and  S_10
REMARK    5  A    between atoms: S_10  and  N_13
REMARK    6  A    between atoms: C_16  and  C_19
REMARK    7  A    between atoms: N_21  and  C_22
REMARK    8  A    between atoms: C_22  and  C_23
REMARK    9  A    between atoms: N_25  and  C_26
REMARK                            x       y       z     vdW  Elec       q    Type
REMARK                         _______ _______ _______ _____ _____    ______ ____
ROOT
ATOM      1  N   UNL     1       7.633  -7.811  -1.918  0.00  0.00    -0.177 NA
ATOM      2  C   UNL     1       6.961  -8.513  -0.816  0.00  0.00    +0.110 C 
ATOM      3  C   UNL     1       5.511  -8.026  -0.733  0.00  0.00    +0.030 C 
ATOM      4  C   UNL     1       5.495  -6.501  -0.609  0.00  0.00    +0.077 C 
ATOM      5  C   UNL     1       6.143  -5.880  -1.849  0.00  0.00    +0.030 C 
ATOM      6  C   UNL     1       7.600  -6.342  -1.944  0.00  0.00    +0.110 C 
ENDROOT
BRANCH   4   7
ATOM      7  C   UNL     1       4.071  -6.021  -0.493  0.00  0.00    +0.217 C 
ATOM      8  O   UNL     1       3.159  -6.820  -0.508  0.00  0.00    -0.276 OA
ATOM      9  N   UNL     1       3.811  -4.704  -0.373  0.00  0.00    -0.306 N 
ATOM     10  H   UNL     1       4.639  -3.979  -0.359  0.00  0.00    +0.149 HD
BRANCH   9  11
ATOM     11  C   UNL     1       2.427  -4.238  -0.260  0.00  0.00    +0.200 C 
BRANCH  11  12
ATOM     12  C   UNL     1       2.411  -2.736  -0.138  0.00  0.00    +0.234 C 
ATOM     13  O   UNL     1       3.454  -2.116  -0.144  0.00  0.00    -0.274 OA
ATOM     14  N   UNL     1       1.239  -2.082  -0.021  0.00  0.00    -0.282 N 
ATOM     15  H   UNL     1       0.300  -2.647   0.076  0.00  0.00    +0.155 HD
BRANCH  14  16
ATOM     16  C   UNL     1       1.215  -0.680  -0.024  0.00  0.00    +0.072 A 
ATOM     17  C   UNL     1       2.237   0.031  -0.638  0.00  0.00    +0.029 A 
ATOM     18  C   UNL     1       2.213   1.412  -0.641  0.00  0.00    +0.043 A 
ATOM     19  C   UNL     1       1.170   2.090  -0.033  0.00  0.00    +0.161 A 
ATOM     20  C   UNL     1       0.147   1.384   0.581  0.00  0.00    +0.195 A 
ATOM     21  C   UNL     1       0.168  -0.001   0.586  0.00  0.00    +0.182 A 
ATOM     22  F   UNL     1      -0.829  -0.690   1.184  0.00  0.00    -0.200 F 
ATOM     23  F   UNL     1      -0.873   2.047   1.169  0.00  0.00    -0.199 F 
ATOM     24  F   UNL     1       1.150   3.441  -0.037  0.00  0.00    -0.202 F 
ENDBRANCH  14  16
ENDBRANCH  11  12
ENDBRANCH   9  11
ENDBRANCH   4   7
BRANCH   1  25
ATOM     25  S   UNL     1       8.413  -8.659  -3.107  0.00  0.00    +0.061 S 
ATOM     26  O   UNL     1       9.385  -7.782  -3.661  0.00  0.00    -0.153 OA
ATOM     27  O   UNL     1       8.755  -9.920  -2.549  0.00  0.00    -0.153 OA
BRANCH  25  31
ATOM     28  C   UNL     1       5.389  -9.469  -6.379  0.00  0.00    +0.121 A 
ATOM     29  C   UNL     1       6.156  -8.314  -6.413  0.00  0.00    +0.047 A 
ATOM     30  C   UNL     1       7.078  -8.069  -5.413  0.00  0.00    +0.032 A 
ATOM     31  C   UNL     1       7.236  -8.974  -4.380  0.00  0.00    +0.106 A 
ATOM     32  C   UNL     1       6.477 -10.129  -4.347  0.00  0.00    +0.032 A 
ATOM     33  C   UNL     1       5.549 -10.376  -5.341  0.00  0.00    +0.047 A 
BRANCH  28  34
ATOM     34  O   UNL     1       4.481  -9.712  -7.360  0.00  0.00    -0.492 OA
BRANCH  34  36
ATOM     35  C   UNL     1       2.763 -11.020  -8.446  0.00  0.00    +0.048 C 
ATOM     36  C   UNL     1       3.725 -10.921  -7.261  0.00  0.00    +0.225 C 
ENDBRANCH  34  36
ENDBRANCH  28  34
ENDBRANCH  25  31
ENDBRANCH   1  25
TORSDOF 8
