REMARK  Name = ZINC39769725
REMARK  6 active torsions:
REMARK  status: ('A' for Active; 'I' for Inactive)
REMARK    1  A    between atoms: C_1  and  C_2
REMARK    2  A    between atoms: N_16  and  N_17
REMARK    3  A    between atoms: C_18  and  C_19
REMARK    4  A    between atoms: C_23  and  O_26
REMARK    5  A    between atoms: C_24  and  O_25
REMARK    6  A    between atoms: O_26  and  C_27
REMARK                            x       y       z     vdW  Elec       q    Type
REMARK                         _______ _______ _______ _____ _____    ______ ____
ROOT
ATOM      1  C   UNL     1      -0.018   1.503   0.010  0.00  0.00    +0.046 C 
ATOM      2  C   UNL     1       0.002  -0.004   0.002  0.00  0.00    -0.027 A 
ATOM      3  C   UNL     1       0.006  -0.681  -1.168  0.00  0.00    +0.005 A 
ATOM      4  C   UNL     1       0.028  -2.082  -1.210  0.00  0.00    +0.001 A 
ATOM      5  C   UNL     1       0.015  -2.841  -0.090  0.00  0.00    +0.012 A 
ATOM      6  C   UNL     1      -0.020  -2.237   1.187  0.00  0.00    +0.025 A 
ATOM      7  C   UNL     1      -0.157  -2.716   2.465  0.00  0.00    +0.115 C 
ATOM      8  C   UNL     1       0.146  -1.530   3.374  0.00  0.00    +0.253 C 
ATOM      9  N   UNL     1       0.051  -0.358   2.514  0.00  0.00    -0.358 N 
ATOM     10  C   UNL     1       0.024  -0.753   1.264  0.00  0.00    +0.049 A 
ATOM     11  N   UNL     1      -0.853  -1.575   4.444  0.00  0.00    -0.220 NA
ATOM     12  C   UNL     1      -1.363  -2.737   4.766  0.00  0.00    +0.227 C 
ATOM     13  N   UNL     1      -1.062  -3.894   4.130  0.00  0.00    -0.247 N 
ATOM     14  N   UNL     1      -0.488  -3.905   2.971  0.00  0.00    -0.171 NA
ATOM     15  N   UNL     1      -2.258  -2.786   5.816  0.00  0.00    -0.206 N 
ATOM     16  H   UNL     1      -2.652  -3.633   6.078  0.00  0.00    +0.177 HD
ATOM     17  H   UNL     1      -1.291  -4.737   4.551  0.00  0.00    +0.192 HD
ATOM     18  H   UNL     1       0.018   0.563   2.817  0.00  0.00    +0.162 HD
ENDROOT
BRANCH  15  19
ATOM     19  N   UNL     1      -2.598  -1.613   6.502  0.00  0.00    -0.187 NA
ATOM     20  C   UNL     1      -3.440  -1.660   7.490  0.00  0.00    +0.142 C 
BRANCH  20  21
ATOM     21  C   UNL     1      -3.797  -0.426   8.212  0.00  0.00    +0.040 A 
ATOM     22  C   UNL     1      -4.699  -0.473   9.279  0.00  0.00    +0.013 A 
ATOM     23  C   UNL     1      -5.031   0.684   9.952  0.00  0.00    +0.004 A 
ATOM     24  C   UNL     1      -4.475   1.895   9.577  0.00  0.00    +0.049 A 
ATOM     25  C   UNL     1      -3.579   1.956   8.521  0.00  0.00    +0.162 A 
ATOM     26  C   UNL     1      -3.230   0.798   7.837  0.00  0.00    +0.167 A 
BRANCH  26  27
ATOM     27  O   UNL     1      -2.348   0.854   6.804  0.00  0.00    -0.503 OA
ATOM     28  H   UNL     1      -2.759   1.006   5.943  0.00  0.00    +0.292 HD
ENDBRANCH  26  27
BRANCH  25  29
ATOM     29  O   UNL     1      -3.037   3.150   8.157  0.00  0.00    -0.491 OA
ATOM     30  C   UNL     1      -3.436   4.299   8.908  0.00  0.00    +0.277 C 
ENDBRANCH  25  29
ENDBRANCH  20  21
ENDBRANCH  15  19
TORSDOF 4
