REMARK  Name = ZINC20332131
REMARK  9 active torsions:
REMARK  status: ('A' for Active; 'I' for Inactive)
REMARK    1  A    between atoms: C_1  and  C_2
REMARK    2  A    between atoms: C_2  and  C_3
REMARK    3  A    between atoms: C_9  and  C_13
REMARK    4  A    between atoms: C_13  and  O_14
REMARK    5  A    between atoms: O_14  and  C_15
REMARK    6  A    between atoms: C_18  and  C_23
REMARK    7  A    between atoms: C_20  and  O_21
REMARK    8  A    between atoms: O_21  and  C_22
REMARK    9  A    between atoms: C_33  and  C_35
REMARK                            x       y       z     vdW  Elec       q    Type
REMARK                         _______ _______ _______ _____ _____    ______ ____
ROOT
ATOM      1  C   UNL     1      -8.281  -4.667  -1.119  0.00  0.00    +0.162 A 
ATOM      2  C   UNL     1      -9.174  -4.920  -0.085  0.00  0.00    +0.050 A 
ATOM      3  C   UNL     1     -10.257  -5.744  -0.291  0.00  0.00    +0.012 A 
ATOM      4  C   UNL     1     -10.461  -6.330  -1.548  0.00  0.00    -0.021 A 
ATOM      5  C   UNL     1      -9.560  -6.073  -2.591  0.00  0.00    +0.057 A 
ATOM      6  C   UNL     1      -8.480  -5.241  -2.375  0.00  0.00    +0.162 A 
ENDROOT
BRANCH   4   7
ATOM      7  C   UNL     1     -11.613  -7.208  -1.771  0.00  0.00    +0.025 C 
ATOM      8  C   UNL     1     -12.794  -6.976  -1.104  0.00  0.00    +0.084 C 
ATOM      9  C   UNL     1     -13.017  -5.745  -0.285  0.00  0.00    +0.176 C 
ATOM     10  N   UNL     1     -12.470  -4.589  -0.554  0.00  0.00    -0.280 NA
ATOM     11  N   UNL     1     -13.869  -5.960   0.790  0.00  0.00    -0.142 N 
ATOM     12  C   UNL     1     -14.764  -7.000   0.793  0.00  0.00    +0.168 C 
ATOM     13  N   UNL     1     -14.822  -7.937  -0.151  0.00  0.00    -0.156 NA
ATOM     14  C   UNL     1     -13.930  -7.930  -1.155  0.00  0.00    +0.273 C 
ATOM     15  O   UNL     1     -14.049  -8.699  -2.096  0.00  0.00    -0.268 OA
ATOM     16  C   UNL     1     -15.536  -6.856   1.955  0.00  0.00    +0.091 C 
ATOM     17  C   UNL     1     -15.069  -5.795   2.649  0.00  0.00    +0.134 C 
ATOM     18  O   UNL     1     -14.029  -5.256   1.991  0.00  0.00    -0.375 OA
ATOM     19  C   UNL     1     -15.628  -5.293   3.956  0.00  0.00    +0.089 C 
ATOM     20  H   UNL     1     -11.950  -4.475  -1.365  0.00  0.00    +0.188 HD
ENDBRANCH   4   7
BRANCH   6  21
ATOM     21  O   UNL     1      -7.607  -4.985  -3.386  0.00  0.00    -0.491 OA
ATOM     22  C   UNL     1      -7.872  -5.607  -4.645  0.00  0.00    +0.277 C 
ENDBRANCH   6  21
BRANCH   1  23
ATOM     23  O   UNL     1      -7.215  -3.853  -0.909  0.00  0.00    -0.482 OA
BRANCH  23  24
ATOM     24  C   UNL     1      -7.071  -3.298   0.400  0.00  0.00    +0.284 C 
BRANCH  24  31
ATOM     25  C   UNL     1      -1.230  -0.880   0.358  0.00  0.00    +0.102 A 
ATOM     26  N   UNL     1      -2.335  -0.222   0.530  0.00  0.00    -0.159 NA
ATOM     27  N   UNL     1      -3.573  -0.858   0.521  0.00  0.00    -0.171 N 
ATOM     28  C   UNL     1      -4.799  -0.281   0.689  0.00  0.00    +0.275 A 
ATOM     29  O   UNL     1      -4.889   0.923   0.872  0.00  0.00    -0.266 OA
ATOM     30  C   UNL     1      -5.949  -1.069   0.651  0.00  0.00    +0.099 A 
ATOM     31  C   UNL     1      -5.841  -2.428   0.444  0.00  0.00    +0.087 A 
ATOM     32  N   UNL     1      -4.631  -2.958   0.284  0.00  0.00    -0.223 NA
ATOM     33  C   UNL     1      -3.557  -2.211   0.321  0.00  0.00    +0.199 A 
ATOM     34  S   UNL     1      -1.819  -2.552   0.144  0.00  0.00    -0.033 S 
BRANCH  25  36
ATOM     35  C   UNL     1       0.182   1.147   0.567  0.00  0.00    +0.011 C 
ATOM     36  C   UNL     1       0.186  -0.365   0.337  0.00  0.00    +0.061 C 
ENDBRANCH  25  36
ENDBRANCH  24  31
ENDBRANCH  23  24
ENDBRANCH   1  23
TORSDOF 6
