REMARK  Name = ZINC16855117
REMARK  11 active torsions:
REMARK  status: ('A' for Active; 'I' for Inactive)
REMARK    1  A    between atoms: C_1  and  C_2
REMARK    2  A    between atoms: C_2  and  C_3
REMARK    3  A    between atoms: C_2  and  C_4
REMARK    4  A    between atoms: C_4  and  C_5
REMARK    5  A    between atoms: C_5  and  S_6
REMARK    6  A    between atoms: S_6  and  C_7
REMARK    7  A    between atoms: C_12  and  C_16
REMARK    8  A    between atoms: C_13  and  O_15
REMARK    9  A    between atoms: C_16  and  C_17
REMARK   10  A    between atoms: C_17  and  S_18
REMARK   11  A    between atoms: S_18  and  C_19
REMARK                            x       y       z     vdW  Elec       q    Type
REMARK                         _______ _______ _______ _____ _____    ______ ____
ROOT
ATOM      1  C   UNL     1      -2.218   3.841   8.453  0.00  0.00    +0.173 A 
ATOM      2  N   UNL     1      -1.964   4.805   7.525  0.00  0.00    -0.302 N 
ATOM      3  H   UNL     1      -2.345   5.691   7.631  0.00  0.00    +0.171 HD
ATOM      4  C   UNL     1      -1.183   4.530   6.460  0.00  0.00    +0.259 A 
ATOM      5  O   UNL     1      -0.950   5.387   5.623  0.00  0.00    -0.267 OA
ATOM      6  C   UNL     1      -0.645   3.244   6.331  0.00  0.00    +0.079 A 
ATOM      7  C   UNL     1      -0.939   2.299   7.300  0.00  0.00    +0.223 A 
ATOM      8  N   UNL     1      -1.715   2.629   8.336  0.00  0.00    -0.189 NA
ENDROOT
BRANCH   7   9
ATOM      9  O   UNL     1      -0.438   1.045   7.199  0.00  0.00    -0.492 OA
ATOM     10  H   UNL     1      -0.699   0.458   7.922  0.00  0.00    +0.294 HD
ENDBRANCH   7   9
BRANCH   1  11
ATOM     11  S   UNL     1      -3.241   4.221   9.836  0.00  0.00    -0.088 S 
BRANCH  11  12
ATOM     12  C   UNL     1      -3.223   2.625  10.689  0.00  0.00    +0.077 C 
BRANCH  12  13
ATOM     13  C   UNL     1      -4.071   2.716  11.960  0.00  0.00    +0.014 C 
BRANCH  13  15
ATOM     14  C   UNL     1      -4.798   1.491  14.012  0.00  0.00    +0.007 C 
ATOM     15  C   UNL     1      -4.055   1.366  12.680  0.00  0.00    -0.016 C 
ATOM     16  C   UNL     1      -4.745   0.315  11.808  0.00  0.00    +0.007 C 
ENDBRANCH  13  15
ENDBRANCH  12  13
ENDBRANCH  11  12
ENDBRANCH   1  11
BRANCH   6  17
ATOM     17  C   UNL     1       0.232   2.893   5.157  0.00  0.00    +0.056 C 
BRANCH  17  18
ATOM     18  C   UNL     1      -0.644   2.480   3.972  0.00  0.00    +0.074 C 
BRANCH  18  19
ATOM     19  S   UNL     1       0.412   2.058   2.558  0.00  0.00    -0.157 S 
BRANCH  19  20
ATOM     20  C   UNL     1      -0.763   1.597   1.255  0.00  0.00    +0.046 C 
ATOM     21  C   UNL     1      -0.013   1.086   0.008  0.00  0.00    +0.014 C 
ATOM     22  C   UNL     1      -0.784   1.609  -1.216  0.00  0.00    +0.001 C 
ATOM     23  C   UNL     1      -1.978   2.421  -0.670  0.00  0.00    +0.001 C 
ATOM     24  C   UNL     1      -1.531   2.845   0.750  0.00  0.00    +0.014 C 
ENDBRANCH  19  20
ENDBRANCH  18  19
ENDBRANCH  17  18
ENDBRANCH   6  17
TORSDOF 9
