REMARK  Name = ZINC01091839
REMARK  8 active torsions:
REMARK  status: ('A' for Active; 'I' for Inactive)
REMARK    1  A    between atoms: C_1  and  O_2
REMARK    2  A    between atoms: O_2  and  C_3
REMARK    3  A    between atoms: C_5  and  C_10
REMARK    4  A    between atoms: C_8  and  O_9
REMARK    5  A    between atoms: N_11  and  N_12
REMARK    6  A    between atoms: C_13  and  C_15
REMARK    7  A    between atoms: N_18  and  C_20
REMARK    8  A    between atoms: C_20  and  C_21
REMARK                            x       y       z     vdW  Elec       q    Type
REMARK                         _______ _______ _______ _____ _____    ______ ____
ROOT
ATOM      1  N   UNL     1       1.724  -2.925  -2.465  0.00  0.00    -0.202 N 
ATOM      2  C   UNL     1       0.973  -3.146  -1.368  0.00  0.00    +0.284 C 
ATOM      3  O   UNL     1       0.739  -4.284  -1.010  0.00  0.00    -0.267 OA
ATOM      4  H   UNL     1       1.910  -2.017  -2.750  0.00  0.00    +0.178 HD
ENDROOT
BRANCH   2   5
ATOM      5  C   UNL     1       0.435  -2.005  -0.600  0.00  0.00    +0.163 A 
ATOM      6  C   UNL     1      -0.365  -2.079   0.566  0.00  0.00    +0.068 A 
ATOM      7  C   UNL     1      -0.616  -0.794   0.914  0.00  0.00    +0.124 A 
ATOM      8  N   UNL     1       0.002  -0.004   0.002  0.00  0.00    -0.265 N 
ATOM      9  N   UNL     1       0.603  -0.727  -0.874  0.00  0.00    -0.165 NA
ATOM     10 BR   UNL     1      -0.957  -3.641   1.451  0.00  0.00    -0.046 Br
BRANCH   8  11
ATOM     11  C   UNL     1      -0.018   1.461   0.010  0.00  0.00    +0.178 C 
BRANCH  11  12
ATOM     12  C   UNL     1       1.396   1.982  -0.001  0.00  0.00    -0.026 A 
ATOM     13  C   UNL     1       2.054   2.221   1.192  0.00  0.00    +0.006 A 
ATOM     14  C   UNL     1       3.352   2.694   1.182  0.00  0.00    +0.015 A 
ATOM     15  C   UNL     1       3.990   2.940  -0.020  0.00  0.00    +0.018 A 
ATOM     16  C   UNL     1       3.329   2.707  -1.213  0.00  0.00    +0.015 A 
ATOM     17  C   UNL     1       2.033   2.228  -1.203  0.00  0.00    +0.006 A 
ATOM     18 BR   UNL     1       5.764   3.595  -0.034  0.00  0.00    -0.050 Br
ENDBRANCH  11  12
ENDBRANCH   8  11
ENDBRANCH   2   5
BRANCH   1  20
ATOM     19  C   UNL     1       2.957  -3.794  -4.250  0.00  0.00    +0.138 C 
ATOM     20  N   UNL     1       2.234  -4.007  -3.194  0.00  0.00    -0.187 NA
BRANCH  19  23
ATOM     21  C   UNL     1       4.775  -5.777  -6.870  0.00  0.00    +0.162 A 
ATOM     22  C   UNL     1       4.273  -4.706  -6.155  0.00  0.00    +0.058 A 
ATOM     23  C   UNL     1       3.495  -4.933  -5.017  0.00  0.00    -0.002 A 
ATOM     24  C   UNL     1       3.232  -6.241  -4.605  0.00  0.00    +0.013 A 
ATOM     25  C   UNL     1       3.732  -7.305  -5.326  0.00  0.00    +0.050 A 
ATOM     26  C   UNL     1       4.504  -7.079  -6.456  0.00  0.00    +0.158 A 
BRANCH  21  28
ATOM     27  C   UNL     1       5.770  -4.199  -8.345  0.00  0.00    +0.277 C 
ATOM     28  O   UNL     1       5.533  -5.560  -7.978  0.00  0.00    -0.491 OA
ENDBRANCH  21  28
BRANCH  26  29
ATOM     29  O   UNL     1       4.999  -8.132  -7.161  0.00  0.00    -0.503 OA
ATOM     30  H   UNL     1       5.870  -8.428  -6.865  0.00  0.00    +0.292 HD
ENDBRANCH  26  29
ENDBRANCH  19  23
ENDBRANCH   1  20
TORSDOF 7
