REMARK  Name = ZINC17133728
REMARK  14 active torsions:
REMARK  status: ('A' for Active; 'I' for Inactive)
REMARK    1  A    between atoms: C_1  and  C_2
REMARK    2  A    between atoms: C_3  and  C_28
REMARK    3  A    between atoms: C_5  and  N_21
REMARK    4  A    between atoms: C_6  and  C_7
REMARK    5  A    between atoms: C_7  and  O_9
REMARK    6  A    between atoms: O_9  and  C_10
REMARK    7  A    between atoms: C_10  and  C_12
REMARK    8  A    between atoms: C_10  and  C_15
REMARK    9  A    between atoms: C_12  and  C_13
REMARK   10  A    between atoms: C_12  and  C_14
REMARK   11  A    between atoms: C_22  and  C_24
REMARK   12  A    between atoms: C_24  and  C_25
REMARK   13  A    between atoms: C_24  and  C_26
REMARK   14  A    between atoms: C_24  and  C_27
REMARK                            x       y       z     vdW  Elec       q    Type
REMARK                         _______ _______ _______ _____ _____    ______ ____
ROOT
ATOM      1  C   UNL     1      -3.066   1.050  -0.016  0.00  0.00    +0.343 C 
ATOM      2  O   UNL     1      -3.468  -0.017  -0.438  0.00  0.00    -0.245 OA
ENDROOT
BRANCH   1   8
ATOM      3  C   UNL     1      -0.099   0.709   0.241  0.00  0.00    +0.045 C 
ATOM      4  C   UNL     1      -0.984   0.958   1.435  0.00  0.00    -0.025 A 
ATOM      5  C   UNL     1      -0.477   1.045   2.678  0.00  0.00    -0.008 A 
ATOM      6  S   UNL     1      -1.914   1.340   3.687  0.00  0.00    -0.078 S 
ATOM      7  C   UNL     1      -3.135   1.342   2.459  0.00  0.00    +0.086 A 
ATOM      8  C   UNL     1      -2.412   1.121   1.292  0.00  0.00    +0.091 A 
ATOM      9  C   UNL     1       0.961   0.922   3.112  0.00  0.00    +0.052 C 
BRANCH   7  10
ATOM     10  N   UNL     1      -4.501   1.526   2.604  0.00  0.00    -0.279 N 
ATOM     11  C   UNL     1      -5.028   1.736   3.827  0.00  0.00    +0.223 C 
ATOM     12  O   UNL     1      -4.306   1.764   4.801  0.00  0.00    -0.275 OA
ATOM     13  H   UNL     1      -5.079   1.504   1.825  0.00  0.00    +0.155 HD
BRANCH  11  14
ATOM     14  C   UNL     1      -6.513   1.936   3.984  0.00  0.00    +0.039 C 
ATOM     15  C   UNL     1      -6.845   2.153   5.461  0.00  0.00    +0.020 C 
ATOM     16  C   UNL     1      -6.951   3.161   3.178  0.00  0.00    +0.020 C 
ATOM     17  C   UNL     1      -7.251   0.698   3.471  0.00  0.00    +0.020 C 
ENDBRANCH  11  14
ENDBRANCH   7  10
ENDBRANCH   1   8
BRANCH   1  18
ATOM     18  O   UNL     1      -3.223   2.169  -0.752  0.00  0.00    -0.448 OA
BRANCH  18  19
ATOM     19  C   UNL     1      -3.880   2.025  -2.039  0.00  0.00    +0.265 C 
BRANCH  19  20
ATOM     20  C   UNL     1      -4.614   3.298  -2.374  0.00  0.00    +0.261 C 
ATOM     21  O   UNL     1      -5.372   3.329  -3.320  0.00  0.00    -0.271 OA
ATOM     22  N   UNL     1      -4.428   4.401  -1.623  0.00  0.00    -0.237 N 
ATOM     23  C   UNL     1      -5.156   5.510  -1.861  0.00  0.00    +0.303 C 
ATOM     24  O   UNL     1      -5.980   5.515  -2.754  0.00  0.00    -0.253 OA
ATOM     25  N   UNL     1      -4.969   6.613  -1.110  0.00  0.00    -0.313 N 
ATOM     26  H   UNL     1      -3.769   4.397  -0.910  0.00  0.00    +0.159 HD
ATOM     27  H   UNL     1      -4.311   6.609  -0.397  0.00  0.00    +0.146 HD
ATOM     28  H   UNL     1      -5.493   7.411  -1.281  0.00  0.00    +0.146 HD
ENDBRANCH  19  20
BRANCH  19  29
ATOM     29  C   UNL     1      -2.833   1.741  -3.118  0.00  0.00    +0.033 C 
ATOM     30  C   UNL     1      -2.118   0.426  -2.800  0.00  0.00    +0.011 C 
ATOM     31  C   UNL     1      -3.521   1.631  -4.480  0.00  0.00    +0.011 C 
ENDBRANCH  19  29
ENDBRANCH  18  19
ENDBRANCH   1  18
TORSDOF 7
