REMARK  Name = ZINC13065256
REMARK  12 active torsions:
REMARK  status: ('A' for Active; 'I' for Inactive)
REMARK    1  A    between atoms: C_1  and  C_2
REMARK    2  A    between atoms: C_2  and  C_3
REMARK    3  A    between atoms: C_3  and  C_5
REMARK    4  A    between atoms: C_3  and  N_72
REMARK    5  A    between atoms: N_9  and  C_10
REMARK    6  A    between atoms: C_15  and  C_16
REMARK    7  A    between atoms: C_15  and  N_72
REMARK    8  A    between atoms: C_19  and  C_22
REMARK    9  A    between atoms: C_23  and  C_24
REMARK   10  A    between atoms: C_23  and  N_72
REMARK   11  A    between atoms: C_27  and  C_37
REMARK   12  A    between atoms: C_30  and  C_36
REMARK                            x       y       z     vdW  Elec       q    Type
REMARK                         _______ _______ _______ _____ _____    ______ ____
ROOT
ATOM      1  N   UNL     1      -0.409  -0.059   0.208  0.00  0.00    +0.392 N 
ATOM      2  H   UNL     1      -1.285  -0.563   0.392  0.00  0.00    -0.080 HD
ENDROOT
BRANCH   1   3
ATOM      3  C   UNL     1      -0.688   1.392   0.178  0.00  0.00    +0.003 C 
BRANCH   3   4
ATOM      4  C   UNL     1       0.534   2.155  -0.263  0.00  0.00    +0.138 A 
ATOM      5  N   UNL     1       1.301   1.880  -1.290  0.00  0.00    -0.115 NA
ATOM      6  N   UNL     1       2.238   2.763  -1.335  0.00  0.00    -0.023 NA
ATOM      7  N   UNL     1       2.093   3.590  -0.360  0.00  0.00    -0.044 NA
ATOM      8  N   UNL     1       1.054   3.249   0.324  0.00  0.00    -0.228 N 
BRANCH   8   9
ATOM      9  C   UNL     1       0.536   3.925   1.516  0.00  0.00    +0.111 C 
ATOM     10  C   UNL     1       0.218   5.400   1.191  0.00  0.00    +0.027 C 
ATOM     11  C   UNL     1       0.624   6.167   2.475  0.00  0.00    +0.002 C 
ATOM     12  C   UNL     1       1.903   5.421   2.930  0.00  0.00    +0.002 C 
ATOM     13  C   UNL     1       1.606   3.939   2.621  0.00  0.00    +0.027 C 
ENDBRANCH   8   9
ENDBRANCH   3   4
BRANCH   3  15
ATOM     14  C   UNL     1      -3.088   0.916  -0.329  0.00  0.00    +0.002 C 
ATOM     15  C   UNL     1      -1.834   1.654  -0.801  0.00  0.00    -0.011 C 
ENDBRANCH   3  15
ENDBRANCH   1   3
BRANCH   1  16
ATOM     16  C   UNL     1       0.556  -0.366   1.284  0.00  0.00    -0.042 C 
BRANCH  16  17
ATOM     17  C   UNL     1      -0.173  -0.355   2.603  0.00  0.00    -0.064 A 
ATOM     18  C   UNL     1      -0.240   0.809   3.346  0.00  0.00    +0.002 A 
ATOM     19  C   UNL     1      -0.912   0.820   4.554  0.00  0.00    +0.003 A 
ATOM     20  C   UNL     1      -1.508  -0.336   5.024  0.00  0.00    -0.050 A 
ATOM     21  C   UNL     1      -1.437  -1.501   4.284  0.00  0.00    +0.003 A 
ATOM     22  C   UNL     1      -0.768  -1.511   3.074  0.00  0.00    +0.002 A 
ATOM     23  C   UNL     1      -2.237  -0.325   6.343  0.00  0.00    +0.044 C 
ENDBRANCH  16  17
ENDBRANCH   1  16
BRANCH   1  24
ATOM     24  C   UNL     1       0.132  -0.497  -1.096  0.00  0.00    -0.036 C 
BRANCH  24  25
ATOM     25  C   UNL     1       0.034  -1.999  -1.181  0.00  0.00    +0.001 A 
ATOM     26  C   UNL     1      -1.066  -2.575  -1.725  0.00  0.00    +0.017 A 
ATOM     27  C   UNL     1      -1.127  -4.036  -1.797  0.00  0.00    +0.002 A 
ATOM     28  C   UNL     1      -2.233  -4.687  -2.353  0.00  0.00    -0.041 A 
ATOM     29  C   UNL     1      -2.262  -6.052  -2.402  0.00  0.00    +0.004 A 
ATOM     30  C   UNL     1      -1.203  -6.799  -1.903  0.00  0.00    +0.005 A 
ATOM     31  C   UNL     1      -0.103  -6.178  -1.351  0.00  0.00    -0.026 A 
ATOM     32  C   UNL     1      -0.052  -4.790  -1.291  0.00  0.00    +0.052 A 
ATOM     33  N   UNL     1       1.036  -4.143  -0.745  0.00  0.00    -0.322 N 
ATOM     34  H   UNL     1       1.777  -4.664  -0.396  0.00  0.00    +0.169 HD
ATOM     35  C   UNL     1       1.086  -2.800  -0.687  0.00  0.00    +0.251 A 
ATOM     36  O   UNL     1       2.063  -2.263  -0.197  0.00  0.00    -0.268 OA
ATOM     37  C   UNL     1       1.039  -7.002  -0.814  0.00  0.00    +0.046 C 
ATOM     38  C   UNL     1      -3.388  -3.886  -2.898  0.00  0.00    +0.044 C 
ENDBRANCH  24  25
ENDBRANCH   1  24
TORSDOF 8
