REMARK  Name = ZINC10186974
REMARK  5 active torsions:
REMARK  status: ('A' for Active; 'I' for Inactive)
REMARK    1  A    between atoms: C_3  and  S_6
REMARK    2  A    between atoms: S_6  and  N_9
REMARK    3  A    between atoms: C_13  and  C_15
REMARK    4  A    between atoms: N_17  and  C_18
REMARK    5  A    between atoms: C_19  and  C_27
REMARK                            x       y       z     vdW  Elec       q    Type
REMARK                         _______ _______ _______ _____ _____    ______ ____
ROOT
ATOM      1  C   UNL     1      -0.014   1.209   0.009  0.00  0.00    +0.236 C 
ATOM      2  O   UNL     1       0.002  -0.004   0.002  0.00  0.00    -0.274 OA
ATOM      3  N   UNL     1       1.143   1.898   0.001  0.00  0.00    -0.278 N 
ATOM      4  H   UNL     1       1.130   2.868   0.007  0.00  0.00    +0.155 HD
ENDROOT
BRANCH   3   5
ATOM      5  C   UNL     1       2.354   1.221  -0.014  0.00  0.00    +0.084 A 
ATOM      6  C   UNL     1       3.637   1.749  -0.029  0.00  0.00    +0.068 A 
ATOM      7  C   UNL     1       4.748   0.813  -0.039  0.00  0.00    -0.023 A 
ATOM      8  C   UNL     1       4.401  -0.492  -0.044  0.00  0.00    -0.004 A 
ATOM      9  S   UNL     1       2.630  -0.489  -0.026  0.00  0.00    -0.077 S 
ATOM     10  C   UNL     1       5.323  -1.672  -0.060  0.00  0.00    +0.043 C 
ATOM     11  C   UNL     1       6.726  -1.184  -0.449  0.00  0.00    +0.005 C 
ATOM     12  C   UNL     1       7.070   0.049   0.392  0.00  0.00    +0.005 C 
ATOM     13  C   UNL     1       6.212   1.236  -0.050  0.00  0.00    +0.037 C 
BRANCH   6  14
ATOM     14  C   UNL     1       3.863   3.198  -0.031  0.00  0.00    +0.244 C 
ATOM     15  O   UNL     1       3.970   3.799   1.023  0.00  0.00    -0.270 OA
ATOM     16  N   UNL     1       3.952   3.865  -1.199  0.00  0.00    -0.325 N 
ATOM     17  H   UNL     1       3.867   3.386  -2.038  0.00  0.00    +0.145 HD
ATOM     18  H   UNL     1       4.102   4.823  -1.200  0.00  0.00    +0.145 HD
ENDBRANCH   6  14
ENDBRANCH   3   5
BRANCH   1  23
ATOM     19  N   UNL     1      -2.441   0.982   0.019  0.00  0.00    -0.164 NA
ATOM     20  C   UNL     1      -3.268   1.214  -1.179  0.00  0.00    +0.110 C 
ATOM     21  C   UNL     1      -2.315   1.897  -2.192  0.00  0.00    +0.019 C 
ATOM     22  C   UNL     1      -1.463   2.798  -1.260  0.00  0.00    +0.031 C 
ATOM     23  C   UNL     1      -1.330   1.944   0.019  0.00  0.00    +0.166 C 
BRANCH  19  24
ATOM     24  S   UNL     1      -2.718  -0.173   1.173  0.00  0.00    +0.068 S 
ATOM     25  O   UNL     1      -3.485  -1.194   0.551  0.00  0.00    -0.152 OA
ATOM     26  O   UNL     1      -1.467  -0.433   1.796  0.00  0.00    -0.152 OA
BRANCH  24  29
ATOM     27  C   UNL     1      -5.706   1.223   3.539  0.00  0.00    +0.010 A 
ATOM     28  C   UNL     1      -5.103   0.591   2.467  0.00  0.00    +0.036 A 
ATOM     29  C   UNL     1      -3.750   0.555   2.402  0.00  0.00    +0.143 A 
ATOM     30  S   UNL     1      -3.285   1.444   3.878  0.00  0.00    -0.077 S 
ATOM     31  C   UNL     1      -4.926   1.797   4.487  0.00  0.00    +0.047 A 
ENDBRANCH  24  29
ENDBRANCH  19  24
ENDBRANCH   1  23
TORSDOF 5
