REMARK  Name = ZINC66173781
REMARK  9 active torsions:
REMARK  status: ('A' for Active; 'I' for Inactive)
REMARK    1  A    between atoms: C_1  and  C_2
REMARK    2  A    between atoms: C_5  and  N_8
REMARK    3  A    between atoms: C_11  and  N_14
REMARK    4  A    between atoms: N_14  and  C_15
REMARK    5  A    between atoms: N_18  and  C_19
REMARK    6  A    between atoms: C_21  and  C_27
REMARK    7  A    between atoms: C_21  and  C_28
REMARK    8  A    between atoms: C_23  and  C_25
REMARK    9  A    between atoms: C_23  and  C_26
REMARK                            x       y       z     vdW  Elec       q    Type
REMARK                         _______ _______ _______ _____ _____    ______ ____
ROOT
ATOM      1  N   UNL     1      -0.995  -7.998   2.518  0.00  0.00    -0.286 N 
ATOM      2  C   UNL     1      -0.435  -8.609   1.310  0.00  0.00    +0.134 C 
ATOM      3  C   UNL     1      -1.490  -8.777   3.500  0.00  0.00    +0.302 C 
ATOM      4  O   UNL     1      -1.955  -8.270   4.503  0.00  0.00    -0.253 OA
ATOM      5  N   UNL     1      -1.470 -10.118   3.371  0.00  0.00    -0.296 N 
ATOM      6  H   UNL     1      -1.099 -10.523   2.571  0.00  0.00    +0.151 HD
ENDROOT
BRANCH   5   7
ATOM      7  C   UNL     1      -2.010 -10.967   4.441  0.00  0.00    +0.072 C 
ATOM      8  C   UNL     1      -0.913 -11.232   5.474  0.00  0.00    +0.009 C 
ATOM      9  C   UNL     1      -1.456 -12.125   6.588  0.00  0.00    -0.072 C 
ATOM     10  N   UNL     1      -2.042 -13.352   6.071  0.00  0.00    +0.386 N 
ATOM     11  C   UNL     1      -2.952 -13.242   4.942  0.00  0.00    -0.072 C 
ATOM     12  C   UNL     1      -2.444 -12.308   3.849  0.00  0.00    +0.009 C 
ATOM     13  C   UNL     1      -4.354 -12.816   5.384  0.00  0.00    -0.010 C 
ATOM     14  C   UNL     1      -3.086 -14.651   4.315  0.00  0.00    -0.010 C 
ATOM     15  C   UNL     1      -2.435 -11.343   7.463  0.00  0.00    -0.010 C 
ATOM     16  C   UNL     1      -0.258 -12.521   7.483  0.00  0.00    -0.010 C 
ATOM     17  H   UNL     1      -1.282 -13.986   5.811  0.00  0.00    -0.084 HD
ATOM     18  H   UNL     1      -2.533 -13.822   6.836  0.00  0.00    -0.084 HD
ENDBRANCH   5   7
BRANCH   1  22
ATOM     19  N   UNL     1      -0.391  -3.944   1.535  0.00  0.00    +0.382 N 
ATOM     20  C   UNL     1       0.379  -4.470   2.669  0.00  0.00    -0.077 C 
ATOM     21  C   UNL     1       0.414  -5.998   2.601  0.00  0.00    +0.004 C 
ATOM     22  C   UNL     1      -1.017  -6.540   2.659  0.00  0.00    +0.074 C 
ATOM     23  C   UNL     1      -1.830  -5.927   1.515  0.00  0.00    +0.004 C 
ATOM     24  C   UNL     1      -1.783  -4.401   1.623  0.00  0.00    -0.077 C 
ATOM     25  H   UNL     1       0.017  -4.274   0.673  0.00  0.00    -0.081 HD
BRANCH  19  30
ATOM     26  C   UNL     1       0.371   1.610   0.335  0.00  0.00    +0.007 C 
ATOM     27  C   UNL     1       0.335   0.081   0.308  0.00  0.00    -0.014 C 
ATOM     28  C   UNL     1      -1.115  -0.397   0.400  0.00  0.00    +0.002 C 
ATOM     29  C   UNL     1      -1.151  -1.927   0.374  0.00  0.00    -0.015 C 
ATOM     30  C   UNL     1      -0.357  -2.476   1.560  0.00  0.00    -0.069 C 
ATOM     31  C   UNL     1       1.094  -1.998   1.469  0.00  0.00    -0.015 C 
ATOM     32  C   UNL     1       1.129  -0.468   1.495  0.00  0.00    +0.002 C 
ENDBRANCH  19  30
ENDBRANCH   1  22
TORSDOF 3
