REMARK  Name = ZINC41006303
REMARK  11 active torsions:
REMARK  status: ('A' for Active; 'I' for Inactive)
REMARK    1  A    between atoms: C_1  and  C_2
REMARK    2  A    between atoms: C_5  and  N_9
REMARK    3  A    between atoms: C_6  and  C_8
REMARK    4  A    between atoms: C_10  and  C_12
REMARK    5  A    between atoms: C_14  and  C_35
REMARK    6  A    between atoms: C_16  and  C_24
REMARK    7  A    between atoms: C_18  and  C_22
REMARK    8  A    between atoms: C_18  and  O_23
REMARK    9  A    between atoms: N_26  and  C_27
REMARK   10  A    between atoms: C_30  and  C_34
REMARK   11  A    between atoms: C_32  and  C_33
REMARK                            x       y       z     vdW  Elec       q    Type
REMARK                         _______ _______ _______ _____ _____    ______ ____
ROOT
ATOM      1  C   UNL     1       0.493  -7.163  -0.802  0.00  0.00    +0.149 C 
ATOM      2  C   UNL     1       0.151  -7.250  -2.293  0.00  0.00    +0.053 C 
ATOM      3  C   UNL     1       0.100  -8.718  -2.718  0.00  0.00    +0.115 C 
ATOM      4  C   UNL     1       1.482  -9.354  -2.556  0.00  0.00    +0.082 C 
ATOM      5  C   UNL     1       1.874  -9.346  -1.074  0.00  0.00    +0.110 C 
ATOM      6  C   UNL     1       1.774  -7.929  -0.553  0.00  0.00    +0.148 C 
ATOM      7  O   UNL     1       2.694  -7.420   0.041  0.00  0.00    -0.296 OA
ATOM      8  C   UNL     1       1.444 -10.796  -3.066  0.00  0.00    +0.042 C 
ENDROOT
BRANCH   2   9
ATOM      9  C   UNL     1      -1.190  -6.608  -2.539  0.00  0.00    -0.042 A 
ATOM     10  C   UNL     1      -2.277  -6.959  -1.760  0.00  0.00    +0.007 A 
ATOM     11  C   UNL     1      -3.507  -6.371  -1.984  0.00  0.00    +0.038 A 
ATOM     12  C   UNL     1      -3.651  -5.430  -2.989  0.00  0.00    +0.123 A 
ATOM     13  C   UNL     1      -2.562  -5.079  -3.769  0.00  0.00    +0.038 A 
ATOM     14  C   UNL     1      -1.331  -5.665  -3.539  0.00  0.00    +0.007 A 
ATOM     15  F   UNL     1      -4.853  -4.854  -3.210  0.00  0.00    -0.205 F 
ENDBRANCH   2   9
BRANCH   1  17
ATOM     16  N   UNL     1       0.999  -5.404   0.862  0.00  0.00    -0.285 N 
ATOM     17  C   UNL     1       0.682  -5.721  -0.409  0.00  0.00    +0.228 C 
ATOM     18  O   UNL     1       0.548  -4.844  -1.237  0.00  0.00    -0.275 OA
ATOM     19  H   UNL     1       1.173  -6.107   1.508  0.00  0.00    +0.155 HD
BRANCH  16  24
ATOM     20  C   UNL     1       1.311   0.037   2.437  0.00  0.00    +0.044 C 
ATOM     21  C   UNL     1       1.228  -1.409   2.019  0.00  0.00    -0.050 A 
ATOM     22  C   UNL     1       1.594  -1.778   0.738  0.00  0.00    +0.005 A 
ATOM     23  C   UNL     1       1.519  -3.102   0.351  0.00  0.00    +0.024 A 
ATOM     24  C   UNL     1       1.076  -4.062   1.251  0.00  0.00    +0.036 A 
ATOM     25  C   UNL     1       0.710  -3.688   2.537  0.00  0.00    -0.029 A 
ATOM     26  C   UNL     1       0.791  -2.363   2.919  0.00  0.00    +0.008 A 
ATOM     27  C   UNL     1       0.228  -4.727   3.517  0.00  0.00    +0.045 C 
ENDBRANCH  16  24
ENDBRANCH   1  17
BRANCH   3  28
ATOM     28  C   UNL     1      -0.893  -9.455  -1.857  0.00  0.00    +0.224 C 
ATOM     29  O   UNL     1      -0.710  -9.544  -0.661  0.00  0.00    -0.275 OA
ATOM     30  N   UNL     1      -1.985 -10.014  -2.415  0.00  0.00    -0.285 N 
ATOM     31  H   UNL     1      -2.098 -10.002  -3.378  0.00  0.00    +0.155 HD
BRANCH  30  32
ATOM     32  C   UNL     1      -2.957 -10.612  -1.605  0.00  0.00    +0.036 A 
ATOM     33  C   UNL     1      -3.021 -10.304  -0.252  0.00  0.00    +0.024 A 
ATOM     34  C   UNL     1      -3.980 -10.896   0.545  0.00  0.00    +0.005 A 
ATOM     35  C   UNL     1      -4.877 -11.795  -0.002  0.00  0.00    -0.050 A 
ATOM     36  C   UNL     1      -4.816 -12.104  -1.348  0.00  0.00    +0.008 A 
ATOM     37  C   UNL     1      -3.862 -11.511  -2.152  0.00  0.00    -0.029 A 
ATOM     38  C   UNL     1      -3.801 -11.843  -3.621  0.00  0.00    +0.045 C 
ATOM     39  C   UNL     1      -5.923 -12.439   0.871  0.00  0.00    +0.044 C 
ENDBRANCH  30  32
ENDBRANCH   3  28
BRANCH   4  40
ATOM     40  O   UNL     1       2.441  -8.607  -3.307  0.00  0.00    -0.388 OA
ATOM     41  H   UNL     1       3.342  -8.954  -3.249  0.00  0.00    +0.210 HD
ENDBRANCH   4  40
TORSDOF 6
