REMARK  Name = ZINC20641408
REMARK  10 active torsions:
REMARK  status: ('A' for Active; 'I' for Inactive)
REMARK    1  A    between atoms: C_1  and  C_2
REMARK    2  A    between atoms: C_2  and  O_3
REMARK    3  A    between atoms: O_3  and  C_4
REMARK    4  A    between atoms: C_11  and  C_38
REMARK    5  A    between atoms: C_12  and  C_27
REMARK    6  A    between atoms: N_19  and  C_20
REMARK    7  A    between atoms: C_24  and  C_26
REMARK    8  A    between atoms: N_29  and  C_30
REMARK    9  A    between atoms: C_33  and  O_36
REMARK   10  A    between atoms: O_36  and  C_37
REMARK                            x       y       z     vdW  Elec       q    Type
REMARK                         _______ _______ _______ _____ _____    ______ ____
ROOT
ATOM      1  C   UNL     1       2.872   0.814   1.070  0.00  0.00    +0.162 A 
ATOM      2  C   UNL     1       1.941   1.691   0.542  0.00  0.00    +0.049 A 
ATOM      3  C   UNL     1       1.010   1.240  -0.376  0.00  0.00    +0.004 A 
ATOM      4  C   UNL     1       1.012  -0.085  -0.767  0.00  0.00    +0.009 A 
ATOM      5  C   UNL     1       1.942  -0.966  -0.243  0.00  0.00    +0.019 A 
ATOM      6  C   UNL     1       2.873  -0.526   0.678  0.00  0.00    +0.170 A 
ATOM      7  O   UNL     1       3.773  -1.369   1.250  0.00  0.00    -0.463 OA
ATOM      8  C   UNL     1       3.950  -2.664   0.682  0.00  0.00    +0.194 C 
ATOM      9  C   UNL     1       2.568  -3.269   0.397  0.00  0.00    +0.163 C 
ATOM     10  C   UNL     1       1.923  -2.407  -0.701  0.00  0.00    +0.123 C 
ATOM     11  N   UNL     1       2.760  -2.495  -1.908  0.00  0.00    -0.318 N 
ATOM     12  C   UNL     1       4.106  -2.538  -1.761  0.00  0.00    +0.141 C 
ATOM     13  S   UNL     1       5.076  -2.547  -3.172  0.00  0.00    -0.018 S 
ATOM     14  N   UNL     1       4.708  -2.581  -0.563  0.00  0.00    -0.243 N 
ATOM     15  C   UNL     1       4.700  -3.555   1.675  0.00  0.00    +0.079 C 
ATOM     16  H   UNL     1       2.290  -2.525  -2.902  0.00  0.00    +0.148 HD
ENDROOT
BRANCH  14  17
ATOM     17  C   UNL     1       6.106  -2.545  -0.504  0.00  0.00    +0.039 A 
ATOM     18  C   UNL     1       6.756  -1.380  -0.120  0.00  0.00    +0.023 A 
ATOM     19  C   UNL     1       8.136  -1.349  -0.059  0.00  0.00    +0.002 A 
ATOM     20  C   UNL     1       8.869  -2.473  -0.390  0.00  0.00    +0.003 A 
ATOM     21  C   UNL     1       8.225  -3.633  -0.778  0.00  0.00    -0.049 A 
ATOM     22  C   UNL     1       6.845  -3.672  -0.836  0.00  0.00    +0.027 A 
ATOM     23  C   UNL     1       9.028  -4.856  -1.139  0.00  0.00    +0.044 C 
ENDBRANCH  14  17
BRANCH   9  24
ATOM     24  C   UNL     1       2.716  -4.690  -0.085  0.00  0.00    +0.228 C 
ATOM     25  O   UNL     1       3.724  -5.031  -0.667  0.00  0.00    -0.275 OA
ATOM     26  N   UNL     1       1.728  -5.581   0.132  0.00  0.00    -0.285 N 
ATOM     27  H   UNL     1       0.847  -5.292   0.722  0.00  0.00    +0.155 HD
BRANCH  26  28
ATOM     28  C   UNL     1       1.825  -6.875  -0.396  0.00  0.00    +0.034 A 
ATOM     29  C   UNL     1       2.465  -7.085  -1.609  0.00  0.00    +0.027 A 
ATOM     30  C   UNL     1       2.565  -8.362  -2.126  0.00  0.00    +0.047 A 
ATOM     31  C   UNL     1       2.014  -9.433  -1.438  0.00  0.00    +0.120 A 
ATOM     32  C   UNL     1       1.369  -9.224  -0.228  0.00  0.00    +0.047 A 
ATOM     33  C   UNL     1       1.274  -7.948   0.293  0.00  0.00    +0.027 A 
BRANCH  31  34
ATOM     34  O   UNL     1       2.107 -10.690  -1.950  0.00  0.00    -0.495 OA
ATOM     35  C   UNL     1       2.785 -10.832  -3.200  0.00  0.00    +0.277 C 
ENDBRANCH  31  34
ENDBRANCH  26  28
ENDBRANCH   9  24
BRANCH   1  36
ATOM     36  O   UNL     1       3.789   1.258   1.971  0.00  0.00    -0.489 OA
BRANCH  36  38
ATOM     37  C   UNL     1       4.830   2.953   3.344  0.00  0.00    +0.048 C 
ATOM     38  C   UNL     1       3.731   2.641   2.327  0.00  0.00    +0.226 C 
ENDBRANCH  36  38
ENDBRANCH   1  36
TORSDOF 6
