REMARK  Name = ZINC13940593
REMARK  8 active torsions:
REMARK  status: ('A' for Active; 'I' for Inactive)
REMARK    1  A    between atoms: C_1  and  O_2
REMARK    2  A    between atoms: O_2  and  C_3
REMARK    3  A    between atoms: C_5  and  C_17
REMARK    4  A    between atoms: C_8  and  O_9
REMARK    5  A    between atoms: O_9  and  C_10
REMARK    6  A    between atoms: C_10  and  C_12
REMARK    7  A    between atoms: N_18  and  N_19
REMARK    8  A    between atoms: C_22  and  C_25
REMARK                            x       y       z     vdW  Elec       q    Type
REMARK                         _______ _______ _______ _____ _____    ______ ____
ROOT
ATOM      1  C   UNL     1       2.041   4.357  -0.041  0.00  0.00    +0.163 A 
ATOM      2  C   UNL     1       1.845   5.725  -0.026  0.00  0.00    +0.059 A 
ATOM      3  C   UNL     1       0.549   6.242   0.050  0.00  0.00    -0.002 A 
ATOM      4  C   UNL     1      -0.543   5.372   0.109  0.00  0.00    +0.013 A 
ATOM      5  C   UNL     1      -0.341   4.008   0.088  0.00  0.00    +0.051 A 
ATOM      6  C   UNL     1       0.947   3.496   0.018  0.00  0.00    +0.173 A 
ENDROOT
BRANCH   1   8
ATOM      7  C   UNL     1       4.375   4.792  -0.173  0.00  0.00    +0.277 C 
ATOM      8  O   UNL     1       3.300   3.851  -0.114  0.00  0.00    -0.491 OA
ENDBRANCH   1   8
BRANCH   3   9
ATOM      9  C   UNL     1       0.334   7.700   0.066  0.00  0.00    +0.138 C 
ATOM     10  N   UNL     1      -0.871   8.178   0.136  0.00  0.00    -0.188 NA
BRANCH  10  11
ATOM     11  N   UNL     1      -1.075   9.564   0.151  0.00  0.00    -0.215 N 
ATOM     12  C   UNL     1      -2.360  10.074   0.226  0.00  0.00    +0.178 A 
ATOM     13  N   UNL     1      -2.760  11.333   0.253  0.00  0.00    -0.224 NA
ATOM     14  C   UNL     1      -4.046  11.644   0.327  0.00  0.00    +0.080 A 
ATOM     15  C   UNL     1      -4.976  10.644   0.377  0.00  0.00    +0.077 A 
ATOM     16  S   UNL     1      -3.920   9.203   0.305  0.00  0.00    -0.059 S 
ATOM     17  H   UNL     1      -0.316  10.166   0.110  0.00  0.00    +0.176 HD
BRANCH  14  18
ATOM     18  C   UNL     1      -4.471  13.064   0.355  0.00  0.00    +0.001 A 
ATOM     19  C   UNL     1      -5.825  13.387   0.427  0.00  0.00    +0.011 A 
ATOM     20  C   UNL     1      -6.216  14.710   0.458  0.00  0.00    +0.016 A 
ATOM     21  C   UNL     1      -5.266  15.716   0.406  0.00  0.00    +0.018 A 
ATOM     22  C   UNL     1      -3.921  15.401   0.329  0.00  0.00    +0.016 A 
ATOM     23  C   UNL     1      -3.519  14.081   0.303  0.00  0.00    +0.011 A 
ATOM     24 BR   UNL     1      -5.809  17.527   0.440  0.00  0.00    -0.050 Br
ENDBRANCH  14  18
ENDBRANCH  10  11
ENDBRANCH   3   9
BRANCH   6  25
ATOM     25  O   UNL     1       1.141   2.151   0.003  0.00  0.00    -0.416 OA
BRANCH  25  26
ATOM     26  C   UNL     1       1.379   1.552   1.188  0.00  0.00    +0.380 C 
ATOM     27  O   UNL     1       1.504   2.224   2.194  0.00  0.00    -0.241 OA
BRANCH  26  28
ATOM     28  C   UNL     1       1.481   0.093   1.264  0.00  0.00    +0.212 A 
ATOM     29  C   UNL     1       1.718  -0.637   2.395  0.00  0.00    +0.056 A 
ATOM     30  C   UNL     1       1.735  -1.985   2.008  0.00  0.00    +0.042 A 
ATOM     31  C   UNL     1       1.510  -2.020   0.675  0.00  0.00    +0.196 A 
ATOM     32  O   UNL     1       1.352  -0.766   0.232  0.00  0.00    -0.456 OA
ENDBRANCH  26  28
ENDBRANCH  25  26
ENDBRANCH   6  25
TORSDOF 7
