REMARK  Name = ZINC39542297
REMARK  7 active torsions:
REMARK  status: ('A' for Active; 'I' for Inactive)
REMARK    1  A    between atoms: C_4  and  C_7
REMARK    2  A    between atoms: C_7  and  C_8
REMARK    3  A    between atoms: C_11  and  C_23
REMARK    4  A    between atoms: N_25  and  C_26
REMARK    5  A    between atoms: N_25  and  C_33
REMARK    6  A    between atoms: C_26  and  C_27
REMARK    7  A    between atoms: C_38  and  O_39
REMARK                            x       y       z     vdW  Elec       q    Type
REMARK                         _______ _______ _______ _____ _____    ______ ____
ROOT
ATOM      1  C   UNL     1       3.710  -2.086   1.638  0.00  0.00    +0.057 C 
ATOM      2  C   UNL     1       5.167  -2.365   1.197  0.00  0.00    +0.045 C 
ATOM      3  C   UNL     1       5.674  -3.219   2.380  0.00  0.00    +0.171 C 
ATOM      4  N   UNL     1       4.472  -3.827   2.968  0.00  0.00    -0.346 N 
ATOM      5  C   UNL     1       3.390  -3.221   2.582  0.00  0.00    +0.079 C 
ATOM      6  N   UNL     1       2.128  -3.585   2.997  0.00  0.00    -0.304 N 
ATOM      7  C   UNL     1       2.025  -4.439   4.104  0.00  0.00    +0.037 A 
ATOM      8  C   UNL     1       0.800  -4.598   4.739  0.00  0.00    +0.023 A 
ATOM      9  C   UNL     1       0.694  -5.434   5.832  0.00  0.00    +0.002 A 
ATOM     10  C   UNL     1       1.809  -6.112   6.293  0.00  0.00    +0.000 A 
ATOM     11  C   UNL     1       3.027  -5.956   5.661  0.00  0.00    +0.007 A 
ATOM     12  C   UNL     1       3.142  -5.122   4.562  0.00  0.00    -0.007 A 
ATOM     13  C   UNL     1       4.483  -4.981   3.877  0.00  0.00    +0.155 C 
ATOM     14  H   UNL     1       1.337  -3.261   2.539  0.00  0.00    +0.153 HD
ENDROOT
BRANCH   3  15
ATOM     15  C   UNL     1       6.614  -4.288   1.887  0.00  0.00    +0.243 C 
ATOM     16  O   UNL     1       6.195  -5.401   1.646  0.00  0.00    -0.273 OA
ATOM     17  N   UNL     1       7.921  -4.009   1.713  0.00  0.00    -0.262 N 
BRANCH  17  18
ATOM     18  C   UNL     1       8.815  -5.028   1.358  0.00  0.00    +0.078 A 
ATOM     19  C   UNL     1       9.161  -5.218   0.028  0.00  0.00    +0.027 A 
ATOM     20  C   UNL     1      10.042  -6.224  -0.320  0.00  0.00    +0.002 A 
ATOM     21  C   UNL     1      10.581  -7.043   0.655  0.00  0.00    +0.004 A 
ATOM     22  C   UNL     1      10.241  -6.860   1.982  0.00  0.00    +0.047 A 
ATOM     23  C   UNL     1       9.362  -5.851   2.340  0.00  0.00    +0.138 A 
BRANCH  23  24
ATOM     24  O   UNL     1       9.031  -5.666   3.646  0.00  0.00    -0.505 OA
ATOM     25  H   UNL     1       8.307  -6.230   3.952  0.00  0.00    +0.292 HD
ENDBRANCH  23  24
ENDBRANCH  17  18
BRANCH  17  26
ATOM     26  C   UNL     1       8.408  -2.639   1.895  0.00  0.00    +0.149 C 
BRANCH  26  27
ATOM     27  C   UNL     1       8.967  -2.486   3.287  0.00  0.00    -0.030 A 
ATOM     28  C   UNL     1       8.173  -1.979   4.298  0.00  0.00    +0.005 A 
ATOM     29  C   UNL     1       8.686  -1.838   5.574  0.00  0.00    +0.000 A 
ATOM     30  C   UNL     1       9.992  -2.205   5.839  0.00  0.00    +0.000 A 
ATOM     31  C   UNL     1      10.786  -2.713   4.827  0.00  0.00    +0.000 A 
ATOM     32  C   UNL     1      10.272  -2.857   3.552  0.00  0.00    +0.005 A 
ENDBRANCH  26  27
ENDBRANCH  17  26
ENDBRANCH   3  15
BRANCH   1  33
ATOM     33  C   UNL     1       2.769  -2.110   0.432  0.00  0.00    +0.046 C 
BRANCH  33  37
ATOM     34  C   UNL     1       3.523   1.297  -2.032  0.00  0.00    +0.000 A 
ATOM     35  C   UNL     1       4.253   0.137  -2.214  0.00  0.00    +0.000 A 
ATOM     36  C   UNL     1       4.009  -0.965  -1.417  0.00  0.00    +0.003 A 
ATOM     37  C   UNL     1       3.036  -0.908  -0.437  0.00  0.00    -0.047 A 
ATOM     38  C   UNL     1       2.307   0.252  -0.254  0.00  0.00    +0.003 A 
ATOM     39  C   UNL     1       2.550   1.354  -1.052  0.00  0.00    +0.000 A 
ENDBRANCH  33  37
ENDBRANCH   1  33
TORSDOF 7
