REMARK  Name = ZINC00952321
REMARK  9 active torsions:
REMARK  status: ('A' for Active; 'I' for Inactive)
REMARK    1  A    between atoms: C_1  and  C_2
REMARK    2  A    between atoms: C_2  and  O_3
REMARK    3  A    between atoms: O_3  and  C_4
REMARK    4  A    between atoms: C_6  and  C_12
REMARK    5  A    between atoms: C_9  and  O_10
REMARK    6  A    between atoms: N_13  and  N_14
REMARK    7  A    between atoms: C_15  and  C_17
REMARK    8  A    between atoms: C_17  and  S_18
REMARK    9  A    between atoms: S_18  and  C_19
REMARK                            x       y       z     vdW  Elec       q    Type
REMARK                         _______ _______ _______ _____ _____    ______ ____
ROOT
ATOM      1  N   UNL     1      -5.516   8.962   0.108  0.00  0.00    -0.206 N 
ATOM      2  C   UNL     1      -4.179   8.795   0.093  0.00  0.00    +0.242 C 
ATOM      3  O   UNL     1      -3.446   9.762   0.091  0.00  0.00    -0.273 OA
ATOM      4  H   UNL     1      -6.101   8.188   0.109  0.00  0.00    +0.177 HD
ENDROOT
BRANCH   1   6
ATOM      5  C   UNL     1      -7.348  10.414   0.135  0.00  0.00    +0.138 C 
ATOM      6  N   UNL     1      -6.060  10.253   0.121  0.00  0.00    -0.188 NA
BRANCH   5   9
ATOM      7  C   UNL     1      -9.839  13.223   0.175  0.00  0.00    +0.163 A 
ATOM      8  C   UNL     1      -9.307  11.947   0.157  0.00  0.00    +0.059 A 
ATOM      9  C   UNL     1      -7.921  11.772   0.148  0.00  0.00    -0.001 A 
ATOM     10  C   UNL     1      -7.079  12.887   0.146  0.00  0.00    +0.028 A 
ATOM     11  C   UNL     1      -7.617  14.158   0.158  0.00  0.00    +0.063 A 
ATOM     12  C   UNL     1      -8.995  14.331   0.173  0.00  0.00    +0.173 A 
ATOM     13 BR   UNL     1      -6.477  15.666   0.156  0.00  0.00    -0.046 Br
BRANCH  12  14
ATOM     14  O   UNL     1      -9.520  15.585   0.185  0.00  0.00    -0.503 OA
ATOM     15  H   UNL     1      -9.681  15.952  -0.695  0.00  0.00    +0.292 HD
ENDBRANCH  12  14
BRANCH   7  16
ATOM     16  O   UNL     1     -11.188  13.397   0.190  0.00  0.00    -0.489 OA
BRANCH  16  18
ATOM     17  C   UNL     1     -13.473  12.610   0.209  0.00  0.00    +0.048 C 
ATOM     18  C   UNL     1     -11.994  12.217   0.192  0.00  0.00    +0.226 C 
ENDBRANCH  16  18
ENDBRANCH   7  16
ENDBRANCH   5   9
ENDBRANCH   1   6
BRANCH   2  19
ATOM     19  C   UNL     1      -3.593   7.406   0.080  0.00  0.00    +0.173 C 
BRANCH  19  20
ATOM     20  S   UNL     1      -1.786   7.513   0.062  0.00  0.00    -0.089 S 
BRANCH  20  21
ATOM     21  C   UNL     1      -1.378   5.799   0.048  0.00  0.00    +0.136 A 
ATOM     22  N   UNL     1      -0.191   5.235   0.033  0.00  0.00    -0.233 NA
ATOM     23  C   UNL     1      -0.027   3.894   0.023  0.00  0.00    +0.079 A 
ATOM     24  C   UNL     1       1.184   3.163   0.007  0.00  0.00    +0.029 A 
ATOM     25  C   UNL     1       1.175   1.793   0.001  0.00  0.00    +0.002 A 
ATOM     26  C   UNL     1      -0.013   1.076   0.008  0.00  0.00    +0.001 A 
ATOM     27  C   UNL     1      -1.216   1.758   0.017  0.00  0.00    +0.017 A 
ATOM     28  C   UNL     1      -1.216   3.130   0.031  0.00  0.00    +0.040 A 
ATOM     29  S   UNL     1      -2.473   4.386   0.051  0.00  0.00    -0.061 S 
ENDBRANCH  20  21
ENDBRANCH  19  20
ENDBRANCH   2  19
TORSDOF 8
