REMARK  Name = ZINC47277420
REMARK  7 active torsions:
REMARK  status: ('A' for Active; 'I' for Inactive)
REMARK    1  A    between atoms: C_4  and  O_26
REMARK    2  A    between atoms: C_5  and  C_7
REMARK    3  A    between atoms: C_7  and  C_8
REMARK    4  A    between atoms: C_8  and  C_9
REMARK    5  A    between atoms: N_11  and  C_12
REMARK    6  A    between atoms: C_14  and  N_19
REMARK    7  A    between atoms: C_17  and  O_18
REMARK                            x       y       z     vdW  Elec       q    Type
REMARK                         _______ _______ _______ _____ _____    ______ ____
ROOT
ATOM      1  C   UNL     1       1.449  -6.287   2.615  0.00  0.00    +0.077 A 
ATOM      2  C   UNL     1       1.356  -7.025   1.444  0.00  0.00    +0.051 A 
ATOM      3  C   UNL     1       1.290  -8.410   1.502  0.00  0.00    +0.053 A 
ATOM      4  C   UNL     1       1.317  -9.056   2.731  0.00  0.00    +0.028 A 
ATOM      5  C   UNL     1       1.409  -8.322   3.898  0.00  0.00    +0.049 A 
ATOM      6  C   UNL     1       1.482  -6.939   3.845  0.00  0.00    +0.138 A 
ENDROOT
BRANCH   3   7
ATOM      7  N   UNL     1       1.197  -9.155   0.321  0.00  0.00    -0.207 N 
ATOM      8  C   UNL     1       0.665  -8.701  -0.976  0.00  0.00    +0.133 C 
ATOM      9  C   UNL     1       1.346  -9.447  -2.139  0.00  0.00    +0.045 C 
ATOM     10  C   UNL     1       1.353 -10.945  -1.709  0.00  0.00    +0.190 C 
ATOM     11  S   UNL     1       1.674 -10.746   0.091  0.00  0.00    +0.046 S 
ATOM     12  O   UNL     1       3.069 -10.767   0.360  0.00  0.00    -0.155 OA
ATOM     13  O   UNL     1       0.764 -11.529   0.852  0.00  0.00    -0.155 OA
ENDBRANCH   3   7
BRANCH   1  16
ATOM     14  C   UNL     1       0.838  -4.219   1.607  0.00  0.00    +0.218 C 
ATOM     15  O   UNL     1       0.236  -4.829   0.749  0.00  0.00    -0.275 OA
ATOM     16  N   UNL     1       1.516  -4.889   2.560  0.00  0.00    -0.283 N 
ATOM     17  H   UNL     1       2.050  -4.403   3.208  0.00  0.00    +0.155 HD
BRANCH  14  18
ATOM     18  C   UNL     1       0.828  -2.712   1.608  0.00  0.00    +0.101 C 
BRANCH  18  19
ATOM     19  C   UNL     1      -0.008  -2.207   0.430  0.00  0.00    +0.048 C 
BRANCH  19  24
ATOM     20  C   UNL     1      -1.066   1.367   1.034  0.00  0.00    +0.000 A 
ATOM     21  C   UNL     1      -0.038   2.069   0.433  0.00  0.00    +0.004 A 
ATOM     22  C   UNL     1       1.003   1.389  -0.170  0.00  0.00    +0.045 A 
ATOM     23  C   UNL     1       1.015   0.002  -0.173  0.00  0.00    +0.120 A 
ATOM     24  C   UNL     1      -0.018  -0.700   0.431  0.00  0.00    -0.005 A 
ATOM     25  C   UNL     1      -1.056  -0.016   1.033  0.00  0.00    +0.007 A 
BRANCH  23  26
ATOM     26  O   UNL     1       2.038  -0.668  -0.766  0.00  0.00    -0.506 OA
ATOM     27  H   UNL     1       2.778  -0.860  -0.175  0.00  0.00    +0.292 HD
ENDBRANCH  23  26
ENDBRANCH  19  24
ENDBRANCH  18  19
ENDBRANCH  14  18
ENDBRANCH   1  16
BRANCH   6  28
ATOM     28  O   UNL     1       1.578  -6.218   4.995  0.00  0.00    -0.505 OA
ATOM     29  H   UNL     1       0.725  -5.966   5.374  0.00  0.00    +0.292 HD
ENDBRANCH   6  28
TORSDOF 7
