REMARK  Name = ZINC17449548
REMARK  5 active torsions:
REMARK  status: ('A' for Active; 'I' for Inactive)
REMARK    1  A    between atoms: C_1  and  C_2
REMARK    2  A    between atoms: C_10  and  C_11
REMARK    3  A    between atoms: N_13  and  N_14
REMARK    4  A    between atoms: C_15  and  C_17
REMARK    5  A    between atoms: C_23  and  C_25
REMARK                            x       y       z     vdW  Elec       q    Type
REMARK                         _______ _______ _______ _____ _____    ______ ____
ROOT
ATOM      1  N   UNL     1      -6.846  -0.067  -2.639  0.00  0.00    -0.234 N 
ATOM      2  C   UNL     1      -6.630   1.256  -2.494  0.00  0.00    +0.232 C 
ATOM      3  O   UNL     1      -7.049   2.033  -3.325  0.00  0.00    -0.274 OA
ATOM      4  H   UNL     1      -6.510  -0.688  -1.974  0.00  0.00    +0.173 HD
ENDROOT
BRANCH   2   5
ATOM      5  C   UNL     1      -5.867   1.769  -1.299  0.00  0.00    +0.079 C 
ATOM      6  C   UNL     1      -5.764   3.294  -1.377  0.00  0.00    +0.032 C 
ATOM      7  C   UNL     1      -5.019   3.814  -0.144  0.00  0.00    +0.109 C 
ATOM      8  N   UNL     1      -3.724   3.126  -0.048  0.00  0.00    -0.297 N 
ATOM      9  C   UNL     1      -3.703   1.656  -0.063  0.00  0.00    +0.109 C 
ATOM     10  C   UNL     1      -4.463   1.160  -1.291  0.00  0.00    +0.032 C 
ATOM     11  C   UNL     1      -2.578   3.828   0.046  0.00  0.00    +0.247 C 
ATOM     12  O   UNL     1      -2.613   5.041   0.130  0.00  0.00    -0.270 OA
BRANCH  11  13
ATOM     13  C   UNL     1      -1.281   3.126   0.048  0.00  0.00    +0.045 A 
ATOM     14  C   UNL     1      -1.030   2.119   0.968  0.00  0.00    +0.014 A 
ATOM     15  C   UNL     1       0.192   1.458   0.978  0.00  0.00    +0.001 A 
ATOM     16  C   UNL     1       1.170   1.770   0.082  0.00  0.00    +0.008 A 
ATOM     17  C   UNL     1       0.958   2.780  -0.872  0.00  0.00    -0.017 A 
ATOM     18  C   UNL     1      -0.279   3.469  -0.894  0.00  0.00    -0.006 A 
ATOM     19  C   UNL     1      -0.491   4.476  -1.847  0.00  0.00    +0.009 A 
ATOM     20  C   UNL     1       0.495   4.779  -2.737  0.00  0.00    +0.001 A 
ATOM     21  C   UNL     1       1.712   4.103  -2.717  0.00  0.00    +0.001 A 
ATOM     22  C   UNL     1       1.952   3.120  -1.806  0.00  0.00    +0.008 A 
ENDBRANCH  11  13
ENDBRANCH   2   5
BRANCH   1  25
ATOM     23  C   UNL     1      -7.770  -1.865  -3.894  0.00  0.00    +0.296 C 
ATOM     24  O   UNL     1      -7.350  -2.645  -3.060  0.00  0.00    -0.265 OA
ATOM     25  N   UNL     1      -7.554  -0.543  -3.749  0.00  0.00    -0.228 N 
ATOM     26  H   UNL     1      -7.890   0.079  -4.414  0.00  0.00    +0.173 HD
BRANCH  23  36
ATOM     27  C   UNL     1      -8.391  -4.858  -4.469  0.00  0.00    +0.048 C 
ATOM     28  C   UNL     1      -8.786  -3.672  -5.311  0.00  0.00    +0.008 A 
ATOM     29  C   UNL     1      -9.541  -3.695  -6.563  0.00  0.00    +0.024 A 
ATOM     30  C   UNL     1     -10.105  -4.708  -7.342  0.00  0.00    +0.012 A 
ATOM     31  C   UNL     1     -10.762  -4.389  -8.496  0.00  0.00    +0.001 A 
ATOM     32  C   UNL     1     -10.872  -3.065  -8.900  0.00  0.00    +0.004 A 
ATOM     33  C   UNL     1     -10.323  -2.051  -8.146  0.00  0.00    +0.047 A 
ATOM     34  C   UNL     1      -9.650  -2.351  -6.967  0.00  0.00    +0.136 A 
ATOM     35  O   UNL     1      -9.024  -1.596  -6.043  0.00  0.00    -0.450 OA
ATOM     36  C   UNL     1      -8.514  -2.366  -5.059  0.00  0.00    +0.195 A 
ENDBRANCH  23  36
ENDBRANCH   1  25
TORSDOF 4
