REMARK  Name = ZINC09464340
REMARK  8 active torsions:
REMARK  status: ('A' for Active; 'I' for Inactive)
REMARK    1  A    between atoms: C_4  and  C_7
REMARK    2  A    between atoms: C_10  and  C_12
REMARK    3  A    between atoms: C_12  and  S_13
REMARK    4  A    between atoms: S_13  and  C_14
REMARK    5  A    between atoms: C_17  and  C_20
REMARK    6  A    between atoms: N_18  and  N_19
REMARK    7  A    between atoms: C_20  and  O_21
REMARK    8  A    between atoms: O_21  and  C_22
REMARK                            x       y       z     vdW  Elec       q    Type
REMARK                         _______ _______ _______ _____ _____    ______ ____
ROOT
ATOM      1  C   UNL     1      -1.160   2.590   3.273  0.00  0.00    +0.209 A 
ATOM      2  N   UNL     1      -2.262   2.551   2.561  0.00  0.00    -0.121 NA
ATOM      3  N   UNL     1      -1.997   2.156   1.367  0.00  0.00    -0.128 NA
ATOM      4  C   UNL     1      -0.723   1.911   1.250  0.00  0.00    +0.189 A 
ATOM      5  N   UNL     1      -0.143   2.182   2.458  0.00  0.00    -0.225 N 
ENDROOT
BRANCH   5   6
ATOM      6  N   UNL     1       1.179   2.069   2.783  0.00  0.00    -0.295 N 
ATOM      7  H   UNL     1       1.671   2.930   2.600  0.00  0.00    +0.163 HD
ATOM      8  H   UNL     1       1.292   1.784   3.744  0.00  0.00    +0.163 HD
ENDBRANCH   5   6
BRANCH   1   9
ATOM      9  S   UNL     1      -1.019   3.075   4.961  0.00  0.00    -0.075 S 
BRANCH   9  10
ATOM     10  C   UNL     1      -2.751   3.461   5.322  0.00  0.00    +0.173 C 
BRANCH  10  14
ATOM     11  C   UNL     1      -3.151   3.887   8.910  0.00  0.00    +0.155 A 
ATOM     12  C   UNL     1      -2.943   5.165   8.503  0.00  0.00    +0.161 A 
ATOM     13  N   UNL     1      -2.773   5.142   7.172  0.00  0.00    -0.220 NA
ATOM     14  C   UNL     1      -2.876   3.912   6.755  0.00  0.00    +0.206 A 
ATOM     15  O   UNL     1      -3.106   3.112   7.805  0.00  0.00    -0.439 OA
BRANCH  11  19
ATOM     16  C   UNL     1      -3.812   2.577  12.896  0.00  0.00    +0.000 A 
ATOM     17  C   UNL     1      -3.796   1.657  11.863  0.00  0.00    +0.001 A 
ATOM     18  C   UNL     1      -3.581   2.076  10.566  0.00  0.00    +0.011 A 
ATOM     19  C   UNL     1      -3.381   3.431  10.298  0.00  0.00    +0.019 A 
ATOM     20  C   UNL     1      -3.394   4.353  11.345  0.00  0.00    +0.011 A 
ATOM     21  C   UNL     1      -3.615   3.922  12.637  0.00  0.00    +0.001 A 
ENDBRANCH  11  19
ENDBRANCH  10  14
ENDBRANCH   9  10
ENDBRANCH   1   9
BRANCH   4  22
ATOM     22  C   UNL     1      -0.017   1.425   0.010  0.00  0.00    +0.306 C 
BRANCH  22  23
ATOM     23  O   UNL     1       0.002  -0.004   0.002  0.00  0.00    -0.484 OA
BRANCH  23  24
ATOM     24  C   UNL     1       0.606  -0.607  -1.056  0.00  0.00    +0.122 A 
ATOM     25  C   UNL     1       0.661  -1.992  -1.128  0.00  0.00    +0.046 A 
ATOM     26  C   UNL     1       1.274  -2.603  -2.204  0.00  0.00    +0.005 A 
ATOM     27  C   UNL     1       1.833  -1.836  -3.209  0.00  0.00    +0.015 A 
ATOM     28  C   UNL     1       1.780  -0.456  -3.141  0.00  0.00    +0.021 A 
ATOM     29  C   UNL     1       1.163   0.160  -2.068  0.00  0.00    +0.061 A 
ATOM     30 BR   UNL     1       2.546   0.590  -4.518  0.00  0.00    -0.050 Br
ENDBRANCH  23  24
ENDBRANCH  22  23
ENDBRANCH   4  22
TORSDOF 8
