REMARK  Name = ZINC56157781
REMARK  5 active torsions:
REMARK  status: ('A' for Active; 'I' for Inactive)
REMARK    1  A    between atoms: C_4  and  C_7
REMARK    2  A    between atoms: C_7  and  C_9
REMARK    3  A    between atoms: C_7  and  N_16
REMARK    4  A    between atoms: N_16  and  C_17
REMARK    5  A    between atoms: C_21  and  N_23
REMARK                            x       y       z     vdW  Elec       q    Type
REMARK                         _______ _______ _______ _____ _____    ______ ____
ROOT
ATOM      1  N   UNL     1       3.915  -1.614  -0.544  0.00  0.00    -0.329 N 
ATOM      2  H   UNL     1       3.849  -2.415  -0.002  0.00  0.00    +0.147 HD
ENDROOT
BRANCH   1   3
ATOM      3  C   UNL     1       4.142  -1.717  -1.919  0.00  0.00    +0.030 A 
ATOM      4  C   UNL     1       4.242  -0.569  -2.695  0.00  0.00    +0.023 A 
ATOM      5  C   UNL     1       4.467  -0.670  -4.054  0.00  0.00    +0.004 A 
ATOM      6  C   UNL     1       4.593  -1.912  -4.646  0.00  0.00    +0.024 A 
ATOM      7  C   UNL     1       4.493  -3.064  -3.876  0.00  0.00    +0.040 A 
ATOM      8  C   UNL     1       4.273  -2.966  -2.509  0.00  0.00    +0.046 A 
BRANCH   7   9
ATOM      9  N   UNL     1       4.620  -4.321  -4.476  0.00  0.00    -0.254 N 
ATOM     10  C   UNL     1       4.755  -4.566  -5.920  0.00  0.00    +0.134 C 
ATOM     11  C   UNL     1       4.858  -6.101  -6.026  0.00  0.00    +0.125 C 
ATOM     12  N   UNL     1       4.770  -6.557  -4.630  0.00  0.00    -0.297 N 
ATOM     13  C   UNL     1       4.644  -5.492  -3.827  0.00  0.00    +0.307 C 
ATOM     14  O   UNL     1       4.555  -5.582  -2.617  0.00  0.00    -0.252 OA
ATOM     15  H   UNL     1       4.803  -7.481  -4.338  0.00  0.00    +0.150 HD
ENDBRANCH   7   9
ENDBRANCH   1   3
BRANCH   1  16
ATOM     16  C   UNL     1       3.776  -0.295   0.078  0.00  0.00    +0.188 C 
BRANCH  16  17
ATOM     17  C   UNL     1       4.149  -0.385   1.535  0.00  0.00    +0.240 C 
ATOM     18  O   UNL     1       4.063  -1.445   2.119  0.00  0.00    -0.273 OA
ATOM     19  N   UNL     1       4.579   0.711   2.190  0.00  0.00    -0.300 N 
ATOM     20  C   UNL     1       4.627   2.074   1.641  0.00  0.00    +0.108 C 
ATOM     21  C   UNL     1       5.210   2.990   2.737  0.00  0.00    +0.020 C 
ATOM     22  C   UNL     1       5.986   1.998   3.642  0.00  0.00    +0.020 C 
ATOM     23  C   UNL     1       5.075   0.744   3.579  0.00  0.00    +0.108 C 
ENDBRANCH  16  17
BRANCH  16  27
ATOM     24  C   UNL     1      -0.271   1.027  -0.277  0.00  0.00    +0.000 A 
ATOM     25  C   UNL     1       0.767   1.891  -0.571  0.00  0.00    +0.000 A 
ATOM     26  C   UNL     1       2.077   1.464  -0.456  0.00  0.00    +0.006 A 
ATOM     27  C   UNL     1       2.348   0.172  -0.046  0.00  0.00    -0.018 A 
ATOM     28  C   UNL     1       1.310  -0.692   0.248  0.00  0.00    +0.006 A 
ATOM     29  C   UNL     1       0.001  -0.265   0.132  0.00  0.00    +0.000 A 
ENDBRANCH  16  27
ENDBRANCH   1  16
TORSDOF 5
