REMARK  Name = ZINC44838546
REMARK  7 active torsions:
REMARK  status: ('A' for Active; 'I' for Inactive)
REMARK    1  A    between atoms: C_5  and  C_7
REMARK    2  A    between atoms: C_7  and  C_8
REMARK    3  A    between atoms: C_8  and  C_9
REMARK    4  A    between atoms: N_11  and  C_12
REMARK    5  A    between atoms: C_12  and  N_14
REMARK    6  A    between atoms: N_14  and  C_15
REMARK    7  A    between atoms: C_15  and  C_16
REMARK                            x       y       z     vdW  Elec       q    Type
REMARK                         _______ _______ _______ _____ _____    ______ ____
ROOT
ATOM      1  C   UNL     1       1.396  -4.209   1.402  0.00  0.00    +0.219 C 
ATOM      2  O   UNL     1       1.302  -4.811   0.354  0.00  0.00    -0.275 OA
ATOM      3  N   UNL     1       1.518  -4.888   2.560  0.00  0.00    -0.268 N 
ATOM      4  H   UNL     1       1.594  -4.407   3.399  0.00  0.00    +0.156 HD
ENDROOT
BRANCH   3   5
ATOM      5  C   UNL     1       1.536  -6.236   2.552  0.00  0.00    +0.137 C 
ATOM      6  S   UNL     1       1.404  -7.085   1.072  0.00  0.00    -0.018 S 
BRANCH   5   7
ATOM      7  N   UNL     1       1.659  -6.915   3.710  0.00  0.00    -0.322 N 
ATOM      8  H   UNL     1       1.734  -6.434   4.549  0.00  0.00    +0.148 HD
BRANCH   7   9
ATOM      9  C   UNL     1       1.679  -8.380   3.701  0.00  0.00    +0.140 C 
BRANCH   9  10
ATOM     10  C   UNL     1       1.824  -8.888   5.113  0.00  0.00    -0.012 A 
ATOM     11  C   UNL     1       3.061  -9.295   5.577  0.00  0.00    +0.008 A 
ATOM     12  C   UNL     1       3.194  -9.762   6.871  0.00  0.00    +0.020 A 
ATOM     13  C   UNL     1       2.090  -9.822   7.703  0.00  0.00    +0.042 A 
ATOM     14  C   UNL     1       0.852  -9.414   7.239  0.00  0.00    +0.040 A 
ATOM     15  C   UNL     1       0.720  -8.942   5.945  0.00  0.00    +0.047 A 
ATOM     16 CL   UNL     1      -0.832  -8.425   5.364  0.00  0.00    -0.083 Cl
ATOM     17 CL   UNL     1       2.258 -10.408   9.328  0.00  0.00    -0.083 Cl
ENDBRANCH   9  10
ENDBRANCH   7   9
ENDBRANCH   5   7
ENDBRANCH   3   5
BRANCH   1  18
ATOM     18  C   UNL     1       1.376  -2.702   1.411  0.00  0.00    +0.101 C 
BRANCH  18  19
ATOM     19  C   UNL     1       1.229  -2.186  -0.022  0.00  0.00    +0.046 C 
BRANCH  19  24
ATOM     20  C   UNL     1      -0.017   1.378   0.010  0.00  0.00    +0.000 A 
ATOM     21  C   UNL     1       1.171   2.086   0.002  0.00  0.00    +0.001 A 
ATOM     22  C   UNL     1       2.377   1.412  -0.013  0.00  0.00    +0.020 A 
ATOM     23  C   UNL     1       2.397   0.029  -0.021  0.00  0.00    +0.044 A 
ATOM     24  C   UNL     1       1.208  -0.679  -0.013  0.00  0.00    -0.029 A 
ATOM     25  C   UNL     1       0.002  -0.004   0.002  0.00  0.00    +0.005 A 
ATOM     26 CL   UNL     1       3.912  -0.818  -0.041  0.00  0.00    -0.083 Cl
ENDBRANCH  19  24
ENDBRANCH  18  19
ENDBRANCH   1  18
TORSDOF 7
