REMARK  Name = ZINC13065126
REMARK  12 active torsions:
REMARK  status: ('A' for Active; 'I' for Inactive)
REMARK    1  A    between atoms: C_1  and  C_2
REMARK    2  A    between atoms: C_2  and  C_3
REMARK    3  A    between atoms: C_3  and  C_5
REMARK    4  A    between atoms: C_3  and  N_63
REMARK    5  A    between atoms: N_9  and  C_10
REMARK    6  A    between atoms: C_10  and  C_11
REMARK    7  A    between atoms: C_16  and  C_17
REMARK    8  A    between atoms: C_16  and  N_63
REMARK    9  A    between atoms: C_22  and  C_23
REMARK   10  A    between atoms: C_22  and  N_63
REMARK   11  A    between atoms: C_28  and  C_36
REMARK   12  A    between atoms: C_29  and  C_35
REMARK                            x       y       z     vdW  Elec       q    Type
REMARK                         _______ _______ _______ _____ _____    ______ ____
ROOT
ATOM      1  N   UNL     1      -0.848   1.090   1.015  0.00  0.00    +0.392 N 
ATOM      2  H   UNL     1      -0.962   2.066   1.313  0.00  0.00    -0.080 HD
ENDROOT
BRANCH   1   3
ATOM      3  C   UNL     1       0.115   0.422   1.915  0.00  0.00    +0.003 C 
BRANCH   3   4
ATOM      4  C   UNL     1       0.750  -0.758   1.225  0.00  0.00    +0.139 A 
ATOM      5  N   UNL     1       1.419  -0.737   0.098  0.00  0.00    -0.115 NA
ATOM      6  N   UNL     1       1.802  -1.940  -0.159  0.00  0.00    -0.023 NA
ATOM      7  N   UNL     1       1.388  -2.729   0.771  0.00  0.00    -0.044 NA
ATOM      8  N   UNL     1       0.735  -2.037   1.642  0.00  0.00    -0.223 N 
BRANCH   8   9
ATOM      9  C   UNL     1       0.096  -2.549   2.857  0.00  0.00    +0.221 C 
BRANCH   9  10
ATOM     10  C   UNL     1      -1.324  -2.946   2.549  0.00  0.00    +0.126 A 
ATOM     11  C   UNL     1      -1.729  -4.160   2.135  0.00  0.00    +0.046 A 
ATOM     12  C   UNL     1      -3.132  -4.090   1.971  0.00  0.00    +0.041 A 
ATOM     13  C   UNL     1      -3.499  -2.835   2.286  0.00  0.00    +0.195 A 
ATOM     14  O   UNL     1      -2.400  -2.147   2.635  0.00  0.00    -0.466 OA
ENDBRANCH   9  10
ENDBRANCH   8   9
ENDBRANCH   3   4
BRANCH   3  16
ATOM     15  C   UNL     1       0.582   2.533   3.167  0.00  0.00    +0.002 C 
ATOM     16  C   UNL     1       1.199   1.429   2.306  0.00  0.00    -0.011 C 
ENDBRANCH   3  16
ENDBRANCH   1   3
BRANCH   1  17
ATOM     17  C   UNL     1      -2.159   0.411   1.083  0.00  0.00    -0.034 C 
BRANCH  17  18
ATOM     18  C   UNL     1      -2.843   0.809   2.365  0.00  0.00    -0.027 A 
ATOM     19  C   UNL     1      -3.756   1.788   2.578  0.00  0.00    +0.009 A 
ATOM     20  C   UNL     1      -4.255   1.974   3.853  0.00  0.00    +0.008 A 
ATOM     21  C   UNL     1      -3.815   1.173   4.854  0.00  0.00    +0.045 A 
ATOM     22  S   UNL     1      -2.667   0.108   3.998  0.00  0.00    -0.103 S 
ENDBRANCH  17  18
ENDBRANCH   1  17
BRANCH   1  23
ATOM     23  C   UNL     1      -0.340   1.069  -0.373  0.00  0.00    -0.036 C 
BRANCH  23  24
ATOM     24  C   UNL     1      -1.066   2.122  -1.169  0.00  0.00    +0.001 A 
ATOM     25  C   UNL     1      -0.527   3.359  -1.303  0.00  0.00    +0.017 A 
ATOM     26  C   UNL     1      -1.256   4.359  -2.087  0.00  0.00    -0.001 A 
ATOM     27  C   UNL     1      -0.748   5.650  -2.265  0.00  0.00    +0.010 A 
ATOM     28  C   UNL     1      -1.455   6.561  -2.997  0.00  0.00    +0.004 A 
ATOM     29  C   UNL     1      -2.673   6.216  -3.567  0.00  0.00    -0.046 A 
ATOM     30  C   UNL     1      -3.193   4.950  -3.405  0.00  0.00    -0.024 A 
ATOM     31  C   UNL     1      -2.491   4.006  -2.663  0.00  0.00    +0.052 A 
ATOM     32  N   UNL     1      -2.987   2.732  -2.485  0.00  0.00    -0.322 N 
ATOM     33  H   UNL     1      -3.838   2.490  -2.883  0.00  0.00    +0.169 HD
ATOM     34  C   UNL     1      -2.308   1.819  -1.768  0.00  0.00    +0.251 A 
ATOM     35  O   UNL     1      -2.777   0.703  -1.631  0.00  0.00    -0.268 OA
ATOM     36  C   UNL     1      -4.516   4.590  -4.030  0.00  0.00    +0.046 C 
ATOM     37  C   UNL     1      -3.435   7.238  -4.371  0.00  0.00    +0.044 C 
ENDBRANCH  23  24
ENDBRANCH   1  23
TORSDOF 9
