REMARK  Name = ZINC13988458
REMARK  8 active torsions:
REMARK  status: ('A' for Active; 'I' for Inactive)
REMARK    1  A    between atoms: C_4  and  C_7
REMARK    2  A    between atoms: C_7  and  O_8
REMARK    3  A    between atoms: O_8  and  C_9
REMARK    4  A    between atoms: C_9  and  C_11
REMARK    5  A    between atoms: C_11  and  C_12
REMARK    6  A    between atoms: N_19  and  C_20
REMARK    7  A    between atoms: C_20  and  N_22
REMARK    8  A    between atoms: C_23  and  C_25
REMARK                            x       y       z     vdW  Elec       q    Type
REMARK                         _______ _______ _______ _____ _____    ______ ____
ROOT
ATOM      1  C   UNL     1      -2.505   1.732   0.133  0.00  0.00    +0.171 C 
ATOM      2  C   UNL     1      -3.325   2.657   0.990  0.00  0.00    +0.234 C 
ATOM      3  O   UNL     1      -4.367   2.244   1.455  0.00  0.00    -0.274 OA
ATOM      4  N   UNL     1      -2.960   3.911   1.262  0.00  0.00    -0.312 N 
ATOM      5  C   UNL     1      -1.700   4.513   0.850  0.00  0.00    +0.123 C 
ATOM      6  C   UNL     1      -1.106   3.766  -0.340  0.00  0.00    +0.126 C 
ATOM      7  N   UNL     1      -1.172   2.321  -0.063  0.00  0.00    -0.299 N 
ATOM      8  H   UNL     1      -3.577   4.460   1.770  0.00  0.00    +0.149 HD
ENDROOT
BRANCH   7   9
ATOM      9  C   UNL     1      -0.056   1.570   0.014  0.00  0.00    +0.140 C 
ATOM     10  S   UNL     1       1.482   2.301  -0.162  0.00  0.00    -0.018 S 
BRANCH   9  11
ATOM     11  N   UNL     1      -0.150   0.243   0.235  0.00  0.00    -0.263 N 
ATOM     12  C   UNL     1       0.958  -0.524   0.212  0.00  0.00    +0.258 C 
ATOM     13  O   UNL     1       2.043  -0.019  -0.008  0.00  0.00    -0.269 OA
ATOM     14  H   UNL     1      -1.015  -0.159   0.410  0.00  0.00    +0.157 HD
BRANCH  12  15
ATOM     15  C   UNL     1       0.856  -1.967   0.453  0.00  0.00    +0.094 A 
ATOM     16  C   UNL     1       1.849  -2.898   0.465  0.00  0.00    +0.068 A 
ATOM     17  C   UNL     1       1.543  -4.247   0.723  0.00  0.00    +0.008 A 
ATOM     18  C   UNL     1       2.429  -5.353   0.782  0.00  0.00    +0.010 A 
ATOM     19  C   UNL     1       1.965  -6.603   1.038  0.00  0.00    +0.001 A 
ATOM     20  C   UNL     1       0.614  -6.849   1.251  0.00  0.00    +0.001 A 
ATOM     21  C   UNL     1      -0.283  -5.801   1.202  0.00  0.00    +0.016 A 
ATOM     22  C   UNL     1       0.173  -4.527   0.943  0.00  0.00    +0.021 A 
ATOM     23  S   UNL     1      -0.603  -2.937   0.793  0.00  0.00    -0.082 S 
ATOM     24 CL   UNL     1       3.492  -2.421   0.168  0.00  0.00    -0.082 Cl
ENDBRANCH  12  15
ENDBRANCH   9  11
ENDBRANCH   7   9
BRANCH   1  25
ATOM     25  C   UNL     1      -3.189   1.550  -1.224  0.00  0.00    +0.152 C 
BRANCH  25  26
ATOM     26  C   UNL     1      -2.447   0.512  -2.026  0.00  0.00    +0.310 C 
ATOM     27  O   UNL     1      -1.420   0.040  -1.598  0.00  0.00    -0.251 OA
BRANCH  26  28
ATOM     28  O   UNL     1      -2.926   0.113  -3.214  0.00  0.00    -0.460 OA
BRANCH  28  29
ATOM     29  C   UNL     1      -2.159  -0.890  -3.931  0.00  0.00    +0.267 C 
BRANCH  29  33
ATOM     30  C   UNL     1      -4.104  -1.800  -7.623  0.00  0.00    +0.000 A 
ATOM     31  C   UNL     1      -3.164  -0.788  -7.569  0.00  0.00    +0.000 A 
ATOM     32  C   UNL     1      -2.535  -0.493  -6.373  0.00  0.00    +0.007 A 
ATOM     33  C   UNL     1      -2.845  -1.211  -5.234  0.00  0.00    -0.010 A 
ATOM     34  C   UNL     1      -3.780  -2.228  -5.290  0.00  0.00    +0.007 A 
ATOM     35  C   UNL     1      -4.413  -2.519  -6.484  0.00  0.00    +0.000 A 
ENDBRANCH  29  33
ENDBRANCH  28  29
ENDBRANCH  26  28
ENDBRANCH  25  26
ENDBRANCH   1  25
TORSDOF 8
