REMARK  Name = ZINC13117766
REMARK  9 active torsions:
REMARK  status: ('A' for Active; 'I' for Inactive)
REMARK    1  A    between atoms: C_1  and  C_2
REMARK    2  A    between atoms: C_5  and  O_29
REMARK    3  A    between atoms: C_6  and  N_8
REMARK    4  A    between atoms: C_9  and  C_11
REMARK    5  A    between atoms: C_11  and  C_13
REMARK    6  A    between atoms: C_11  and  S_19
REMARK    7  A    between atoms: S_19  and  C_20
REMARK    8  A    between atoms: C_26  and  N_28
REMARK    9  A    between atoms: O_29  and  C_30
REMARK                            x       y       z     vdW  Elec       q    Type
REMARK                         _______ _______ _______ _____ _____    ______ ____
ROOT
ATOM      1  C   UNL     1      -4.885   0.010  -0.143  0.00  0.00    +0.170 C 
ENDROOT
BRANCH   1   2
ATOM      2  C   UNL     1      -5.304   0.461   1.232  0.00  0.00    -0.025 A 
ATOM      3  C   UNL     1      -5.518  -0.471   2.230  0.00  0.00    +0.005 A 
ATOM      4  C   UNL     1      -5.898  -0.056   3.493  0.00  0.00    +0.000 A 
ATOM      5  C   UNL     1      -6.072   1.290   3.755  0.00  0.00    +0.000 A 
ATOM      6  C   UNL     1      -5.863   2.222   2.756  0.00  0.00    +0.000 A 
ATOM      7  C   UNL     1      -5.479   1.807   1.494  0.00  0.00    +0.005 A 
ENDBRANCH   1   2
BRANCH   1   9
ATOM      8  N   UNL     1      -2.418  -0.038   0.037  0.00  0.00    -0.281 N 
ATOM      9  C   UNL     1      -3.573  -0.727  -0.052  0.00  0.00    +0.235 C 
ATOM     10  O   UNL     1      -3.557  -1.940  -0.059  0.00  0.00    -0.274 OA
ATOM     11  H   UNL     1      -2.435   0.928   0.123  0.00  0.00    +0.155 HD
BRANCH   8  17
ATOM     12  C   UNL     1       0.203  -3.978  -1.300  0.00  0.00    +0.044 C 
ATOM     13  C   UNL     1       0.106  -2.628  -0.636  0.00  0.00    -0.048 A 
ATOM     14  C   UNL     1       1.227  -2.064  -0.055  0.00  0.00    +0.007 A 
ATOM     15  C   UNL     1       1.145  -0.826   0.555  0.00  0.00    +0.048 A 
ATOM     16  C   UNL     1      -0.063  -0.147   0.585  0.00  0.00    +0.141 A 
ATOM     17  C   UNL     1      -1.193  -0.718   0.004  0.00  0.00    +0.076 A 
ATOM     18  C   UNL     1      -1.102  -1.958  -0.611  0.00  0.00    +0.030 A 
BRANCH  16  19
ATOM     19  O   UNL     1      -0.145   1.070   1.185  0.00  0.00    -0.493 OA
ATOM     20  C   UNL     1       1.052   1.590   1.765  0.00  0.00    +0.277 C 
ENDBRANCH  16  19
ENDBRANCH   8  17
ENDBRANCH   1   9
BRANCH   1  21
ATOM     21  S   UNL     1      -6.149  -1.090  -0.828  0.00  0.00    -0.070 S 
BRANCH  21  22
ATOM     22  C   UNL     1      -7.496   0.037  -0.962  0.00  0.00    +0.172 A 
ATOM     23  N   UNL     1      -8.686  -0.401  -1.459  0.00  0.00    -0.302 N 
ATOM     24  H   UNL     1      -8.785  -1.326  -1.734  0.00  0.00    +0.171 HD
ATOM     25  C   UNL     1      -9.730   0.448  -1.564  0.00  0.00    +0.254 A 
ATOM     26  O   UNL     1     -10.802   0.062  -2.003  0.00  0.00    -0.268 OA
ATOM     27  C   UNL     1      -9.562   1.778  -1.167  0.00  0.00    +0.113 A 
ATOM     28  C   UNL     1      -8.327   2.176  -0.673  0.00  0.00    +0.124 A 
ATOM     29  N   UNL     1      -7.330   1.289  -0.586  0.00  0.00    -0.209 NA
BRANCH  28  30
ATOM     30  N   UNL     1      -8.130   3.482  -0.273  0.00  0.00    -0.343 N 
ATOM     31  H   UNL     1      -7.266   3.758   0.072  0.00  0.00    +0.144 HD
ATOM     32  H   UNL     1      -8.854   4.124  -0.336  0.00  0.00    +0.144 HD
ENDBRANCH  28  30
ENDBRANCH  21  22
ENDBRANCH   1  21
TORSDOF 7
