REMARK  Name = ZINC54398563
REMARK  4 active torsions:
REMARK  status: ('A' for Active; 'I' for Inactive)
REMARK    1  A    between atoms: C_3  and  O_8
REMARK    2  A    between atoms: O_8  and  C_9
REMARK    3  A    between atoms: C_10  and  C_15
REMARK    4  A    between atoms: C_15  and  N_17
REMARK                            x       y       z     vdW  Elec       q    Type
REMARK                         _______ _______ _______ _____ _____    ______ ____
ROOT
ATOM      1  C   UNL     1       4.705   1.406   0.069  0.00  0.00    +0.249 A 
ATOM      2  C   UNL     1       5.931   2.081   0.176  0.00  0.00    +0.153 A 
ATOM      3  N   UNL     1       7.061   1.385   0.264  0.00  0.00    -0.246 NA
ATOM      4  C   UNL     1       7.026   0.068   0.250  0.00  0.00    +0.131 A 
ATOM      5  C   UNL     1       5.815  -0.599   0.143  0.00  0.00    +0.134 A 
ATOM      6  N   UNL     1       4.684   0.080   0.061  0.00  0.00    -0.218 NA
ENDROOT
BRANCH   2   7
ATOM      7  C   UNL     1       5.965   3.557   0.191  0.00  0.00    +0.101 C 
ATOM      8  S   UNL     1       4.508   4.448   0.077  0.00  0.00    -0.033 S 
BRANCH   7   9
ATOM      9  N   UNL     1       7.144   4.202   0.294  0.00  0.00    -0.350 N 
ATOM     10  H   UNL     1       7.969   3.697   0.359  0.00  0.00    +0.143 HD
ATOM     11  H   UNL     1       7.167   5.171   0.304  0.00  0.00    +0.143 HD
ENDBRANCH   7   9
ENDBRANCH   2   7
BRANCH   1  12
ATOM     12  O   UNL     1       3.548   2.105  -0.021  0.00  0.00    -0.436 OA
BRANCH  12  15
ATOM     13  C   UNL     1       0.696   0.191   1.178  0.00  0.00    +0.005 A 
ATOM     14  C   UNL     1       1.883   0.897   1.174  0.00  0.00    +0.046 A 
ATOM     15  C   UNL     1       2.381   1.410  -0.015  0.00  0.00    +0.131 A 
ATOM     16  C   UNL     1       1.684   1.212  -1.199  0.00  0.00    +0.061 A 
ATOM     17  C   UNL     1       0.496   0.505  -1.190  0.00  0.00    +0.021 A 
ATOM     18  C   UNL     1       0.003  -0.005  -0.002  0.00  0.00    +0.015 A 
ATOM     19 BR   UNL     1      -0.455   0.235  -2.802  0.00  0.00    -0.050 Br
ENDBRANCH  12  15
ENDBRANCH   1  12
TORSDOF 4
