REMARK  Name = ZINC39021119
REMARK  5 active torsions:
REMARK  status: ('A' for Active; 'I' for Inactive)
REMARK    1  A    between atoms: C_1  and  C_2
REMARK    2  A    between atoms: C_4  and  C_8
REMARK    3  A    between atoms: N_10  and  N_11
REMARK    4  A    between atoms: C_12  and  C_13
REMARK    5  A    between atoms: C_18  and  O_19
REMARK                            x       y       z     vdW  Elec       q    Type
REMARK                         _______ _______ _______ _____ _____    ______ ____
ROOT
ATOM      1  N   UNL     1      -2.611  -4.146  -2.465  0.00  0.00    -0.188 NA
ATOM      2  C   UNL     1      -3.800  -4.663  -2.527  0.00  0.00    +0.142 C 
ENDROOT
BRANCH   2   3
ATOM      3  C   UNL     1      -4.228  -5.383  -3.740  0.00  0.00    +0.037 A 
ATOM      4  C   UNL     1      -5.509  -5.936  -3.812  0.00  0.00    +0.028 A 
ATOM      5  C   UNL     1      -5.904  -6.608  -4.951  0.00  0.00    +0.019 A 
ATOM      6  C   UNL     1      -5.035  -6.737  -6.022  0.00  0.00    +0.019 A 
ATOM      7  C   UNL     1      -3.765  -6.194  -5.961  0.00  0.00    +0.047 A 
ATOM      8  C   UNL     1      -3.355  -5.511  -4.828  0.00  0.00    +0.126 A 
ATOM      9 BR   UNL     1      -7.638  -7.356  -5.050  0.00  0.00    -0.050 Br
BRANCH   8  10
ATOM     10  O   UNL     1      -2.109  -4.973  -4.770  0.00  0.00    -0.506 OA
ATOM     11  H   UNL     1      -1.438  -5.572  -4.415  0.00  0.00    +0.292 HD
ENDBRANCH   8  10
ENDBRANCH   2   3
BRANCH   1  14
ATOM     12  C   UNL     1      -0.969  -2.926  -1.248  0.00  0.00    +0.262 C 
ATOM     13  O   UNL     1      -0.211  -3.035  -2.188  0.00  0.00    -0.271 OA
ATOM     14  N   UNL     1      -2.204  -3.463  -1.312  0.00  0.00    -0.205 N 
ATOM     15  H   UNL     1      -2.810  -3.375  -0.560  0.00  0.00    +0.177 HD
BRANCH  12  19
ATOM     16  C   UNL     1      -0.018   1.503   0.010  0.00  0.00    +0.067 C 
ATOM     17  C   UNL     1       0.002  -0.004   0.002  0.00  0.00    +0.059 C 
ATOM     18  C   UNL     1      -1.086  -0.777   0.003  0.00  0.00    +0.035 C 
ATOM     19  C   UNL     1      -0.531  -2.190  -0.007  0.00  0.00    +0.240 C 
ATOM     20  N   UNL     1       0.926  -1.973  -0.013  0.00  0.00    -0.170 NA
ATOM     21  N   UNL     1       1.125  -0.756  -0.013  0.00  0.00    -0.159 NA
ENDBRANCH  12  19
ENDBRANCH   1  14
TORSDOF 4
