REMARK  Name = ZINC65314787
REMARK  8 active torsions:
REMARK  status: ('A' for Active; 'I' for Inactive)
REMARK    1  A    between atoms: C_1  and  C_2
REMARK    2  A    between atoms: N_5  and  S_8
REMARK    3  A    between atoms: S_8  and  C_11
REMARK    4  A    between atoms: C_17  and  C_30
REMARK    5  A    between atoms: C_17  and  C_31
REMARK    6  A    between atoms: N_20  and  C_21
REMARK    7  A    between atoms: C_21  and  C_22
REMARK    8  A    between atoms: N_24  and  C_25
REMARK                            x       y       z     vdW  Elec       q    Type
REMARK                         _______ _______ _______ _____ _____    ______ ____
ROOT
ATOM      1  C   UNL     1      -0.795  -5.265   1.507  0.00  0.00    +0.106 A 
ATOM      2  C   UNL     1      -1.685  -5.902   0.661  0.00  0.00    +0.030 A 
ATOM      3  C   UNL     1      -1.394  -7.152   0.156  0.00  0.00    +0.026 A 
ATOM      4  C   UNL     1      -0.199  -7.783   0.495  0.00  0.00    +0.041 A 
ATOM      5  C   UNL     1       0.687  -7.133   1.345  0.00  0.00    -0.010 A 
ATOM      6  C   UNL     1       0.397  -5.883   1.844  0.00  0.00    +0.035 A 
ATOM      7  C   UNL     1       1.868  -8.060   1.518  0.00  0.00    +0.069 C 
ATOM      8  C   UNL     1       1.517  -9.266   0.673  0.00  0.00    +0.230 C 
ATOM      9  O   UNL     1       2.192 -10.261   0.522  0.00  0.00    -0.274 OA
ATOM     10  N   UNL     1       0.315  -9.025   0.121  0.00  0.00    -0.262 N 
ATOM     11  C   UNL     1       3.148  -7.399   1.002  0.00  0.00    +0.025 C 
ATOM     12  C   UNL     1       2.025  -8.461   2.986  0.00  0.00    +0.025 C 
ENDROOT
BRANCH   1  13
ATOM     13  S   UNL     1      -1.173  -3.668   2.148  0.00  0.00    +0.061 S 
ATOM     14  O   UNL     1      -0.421  -3.521   3.344  0.00  0.00    -0.153 OA
ATOM     15  O   UNL     1      -2.589  -3.544   2.119  0.00  0.00    -0.153 OA
BRANCH  13  20
ATOM     16  C   UNL     1      -0.019   1.526   0.010  0.00  0.00    +0.007 C 
ATOM     17  C   UNL     1       0.002  -0.004   0.002  0.00  0.00    -0.012 C 
ATOM     18  C   UNL     1      -1.434  -0.533   0.011  0.00  0.00    +0.020 C 
ATOM     19  C   UNL     1      -1.409  -2.065  -0.032  0.00  0.00    +0.110 C 
ATOM     20  N   UNL     1      -0.578  -2.556   1.075  0.00  0.00    -0.177 NA
ATOM     21  C   UNL     1       0.791  -2.042   1.212  0.00  0.00    +0.110 C 
ATOM     22  C   UNL     1       0.742  -0.511   1.242  0.00  0.00    +0.020 C 
ENDBRANCH  13  20
ENDBRANCH   1  13
BRANCH  10  23
ATOM     23  C   UNL     1      -0.376  -9.960  -0.771  0.00  0.00    +0.209 C 
BRANCH  23  24
ATOM     24  C   UNL     1       0.022  -9.680  -2.197  0.00  0.00    +0.231 C 
ATOM     25  O   UNL     1       0.805  -8.788  -2.444  0.00  0.00    -0.274 OA
ATOM     26  N   UNL     1      -0.493 -10.421  -3.198  0.00  0.00    -0.311 N 
ATOM     27  H   UNL     1      -1.120 -11.134  -3.000  0.00  0.00    +0.149 HD
BRANCH  26  28
ATOM     28  C   UNL     1      -0.106 -10.149  -4.585  0.00  0.00    +0.073 C 
ATOM     29  C   UNL     1      -1.035  -9.078  -5.192  0.00  0.00    +0.022 C 
ATOM     30  C   UNL     1      -1.228  -9.530  -6.661  0.00  0.00    +0.002 C 
ATOM     31  C   UNL     1      -1.309 -11.072  -6.535  0.00  0.00    +0.002 C 
ATOM     32  C   UNL     1      -0.280 -11.417  -5.439  0.00  0.00    +0.022 C 
ENDBRANCH  26  28
ENDBRANCH  23  24
ENDBRANCH  10  23
TORSDOF 5
