REMARK  Name = ZINC51332769
REMARK  6 active torsions:
REMARK  status: ('A' for Active; 'I' for Inactive)
REMARK    1  A    between atoms: C_3  and  C_20
REMARK    2  A    between atoms: C_6  and  C_7
REMARK    3  A    between atoms: C_7  and  N_8
REMARK    4  A    between atoms: N_8  and  C_9
REMARK    5  A    between atoms: C_12  and  C_16
REMARK    6  A    between atoms: C_14  and  N_15
REMARK                            x       y       z     vdW  Elec       q    Type
REMARK                         _______ _______ _______ _____ _____    ______ ____
ROOT
ATOM      1  C   UNL     1      -2.916  -1.713  -1.615  0.00  0.00    +0.048 A 
ATOM      2  C   UNL     1      -3.685  -2.174  -0.558  0.00  0.00    +0.025 A 
ATOM      3  C   UNL     1      -4.857  -2.864  -0.805  0.00  0.00    +0.014 A 
ATOM      4  C   UNL     1      -5.266  -3.098  -2.105  0.00  0.00    +0.057 A 
ATOM      5  C   UNL     1      -4.505  -2.642  -3.165  0.00  0.00    +0.037 A 
ATOM      6  C   UNL     1      -3.331  -1.944  -2.927  0.00  0.00    +0.046 A 
ENDROOT
BRANCH   4   7
ATOM      7  C   UNL     1      -6.544  -3.852  -2.366  0.00  0.00    +0.417 C 
ATOM      8  F   UNL     1      -7.134  -4.207  -1.148  0.00  0.00    -0.166 F 
ATOM      9  F   UNL     1      -7.424  -3.040  -3.091  0.00  0.00    -0.166 F 
ATOM     10  F   UNL     1      -6.262  -5.007  -3.103  0.00  0.00    -0.166 F 
ENDBRANCH   4   7
BRANCH   6  11
ATOM     11  N   UNL     1      -2.561  -1.477  -3.999  0.00  0.00    -0.357 N 
ATOM     12  H   UNL     1      -1.738  -0.992  -3.831  0.00  0.00    +0.142 HD
ATOM     13  H   UNL     1      -2.851  -1.638  -4.911  0.00  0.00    +0.142 HD
ENDBRANCH   6  11
BRANCH   1  14
ATOM     14  N   UNL     1      -1.729  -1.013  -1.367  0.00  0.00    -0.338 N 
ATOM     15  H   UNL     1      -1.194  -0.688  -2.108  0.00  0.00    +0.146 HD
BRANCH  14  16
ATOM     16  C   UNL     1      -1.295  -0.772   0.011  0.00  0.00    +0.137 C 
BRANCH  16  22
ATOM     17  C   UNL     1      -0.017   1.379   0.010  0.00  0.00    +0.006 A 
ATOM     18  C   UNL     1       1.167   2.088   0.002  0.00  0.00    +0.019 A 
ATOM     19  C   UNL     1       2.385   1.407  -0.013  0.00  0.00    +0.052 A 
ATOM     20  C   UNL     1       2.397   0.011  -0.021  0.00  0.00    +0.019 A 
ATOM     21  C   UNL     1       1.206  -0.686  -0.013  0.00  0.00    +0.006 A 
ATOM     22  C   UNL     1       0.002  -0.004   0.002  0.00  0.00    -0.030 A 
BRANCH  19  23
ATOM     23  C   UNL     1       3.617   2.136  -0.021  0.00  0.00    +0.099 C 
ATOM     24  N   UNL     1       4.595   2.715  -0.028  0.00  0.00    -0.191 NA
ENDBRANCH  19  23
ENDBRANCH  16  22
ENDBRANCH  14  16
ENDBRANCH   1  14
TORSDOF 6
