REMARK  Name = ZINC09554230
REMARK  8 active torsions:
REMARK  status: ('A' for Active; 'I' for Inactive)
REMARK    1  A    between atoms: C_10  and  N_11
REMARK    2  A    between atoms: N_11  and  C_12
REMARK    3  A    between atoms: C_12  and  C_13
REMARK    4  A    between atoms: N_15  and  N_16
REMARK    5  A    between atoms: C_17  and  C_18
REMARK    6  A    between atoms: C_22  and  O_24
REMARK    7  A    between atoms: O_24  and  C_25
REMARK    8  A    between atoms: C_25  and  C_27
REMARK                            x       y       z     vdW  Elec       q    Type
REMARK                         _______ _______ _______ _____ _____    ______ ____
ROOT
ATOM      1  C   UNL     1      -2.462   5.485   0.304  0.00  0.00    +0.249 C 
ATOM      2  O   UNL     1      -1.416   6.093   0.213  0.00  0.00    -0.272 OA
ATOM      3  N   UNL     1      -2.460   4.138   0.304  0.00  0.00    -0.206 N 
ATOM      4  H   UNL     1      -3.297   3.652   0.376  0.00  0.00    +0.177 HD
ENDROOT
BRANCH   3   5
ATOM      5  N   UNL     1      -1.251   3.438   0.199  0.00  0.00    -0.188 NA
ATOM      6  C   UNL     1      -1.250   2.141   0.199  0.00  0.00    +0.138 C 
BRANCH   6   7
ATOM      7  C   UNL     1       0.024   1.405   0.090  0.00  0.00    -0.002 A 
ATOM      8  C   UNL     1       1.230   2.102  -0.020  0.00  0.00    +0.010 A 
ATOM      9  C   UNL     1       2.418   1.409  -0.129  0.00  0.00    +0.004 A 
ATOM     10  C   UNL     1       2.420   0.026  -0.129  0.00  0.00    +0.046 A 
ATOM     11  C   UNL     1       1.227  -0.675  -0.020  0.00  0.00    +0.133 A 
ATOM     12  C   UNL     1       0.028   0.009   0.089  0.00  0.00    +0.055 A 
BRANCH  11  13
ATOM     13  O   UNL     1       1.236  -2.034  -0.021  0.00  0.00    -0.422 OA
BRANCH  13  14
ATOM     14  C   UNL     1       1.760  -2.665   1.051  0.00  0.00    +0.351 C 
ATOM     15  O   UNL     1       2.111  -2.023   2.023  0.00  0.00    -0.244 OA
BRANCH  14  16
ATOM     16  C   UNL     1       1.908  -4.121   1.043  0.00  0.00    +0.097 A 
ATOM     17  C   UNL     1       2.417  -4.954   2.029  0.00  0.00    +0.022 A 
ATOM     18  C   UNL     1       2.440  -6.299   1.760  0.00  0.00    +0.008 A 
ATOM     19  C   UNL     1       1.973  -6.745   0.564  0.00  0.00    +0.046 A 
ATOM     20  S   UNL     1       1.473  -5.289  -0.234  0.00  0.00    -0.090 S 
ENDBRANCH  14  16
ENDBRANCH  13  14
ENDBRANCH  11  13
ENDBRANCH   6   7
ENDBRANCH   3   5
BRANCH   1  21
ATOM     21  C   UNL     1      -3.763   6.238   0.416  0.00  0.00    +0.199 C 
BRANCH  21  22
ATOM     22  N   UNL     1      -3.497   7.678   0.393  0.00  0.00    -0.335 N 
ATOM     23  H   UNL     1      -2.587   8.002   0.314  0.00  0.00    +0.147 HD
BRANCH  22  33
ATOM     24  C   UNL     1      -3.868  12.710   0.424  0.00  0.00    +0.001 A 
ATOM     25  C   UNL     1      -2.798  11.823   0.332  0.00  0.00    +0.001 A 
ATOM     26  C   UNL     1      -3.000  10.477   0.350  0.00  0.00    +0.010 A 
ATOM     27  C   UNL     1      -4.304   9.972   0.468  0.00  0.00    +0.003 A 
ATOM     28  C   UNL     1      -5.394  10.873   0.556  0.00  0.00    -0.016 A 
ATOM     29  C   UNL     1      -5.147  12.256   0.534  0.00  0.00    +0.008 A 
ATOM     30  C   UNL     1      -6.701  10.369   0.669  0.00  0.00    +0.008 A 
ATOM     31  C   UNL     1      -6.912   9.024   0.687  0.00  0.00    +0.002 A 
ATOM     32  C   UNL     1      -5.850   8.129   0.596  0.00  0.00    +0.023 A 
ATOM     33  C   UNL     1      -4.553   8.582   0.484  0.00  0.00    +0.035 A 
ENDBRANCH  22  33
ENDBRANCH  21  22
ENDBRANCH   1  21
TORSDOF 8
