REMARK  Name = ZINC30130583
REMARK  7 active torsions:
REMARK  status: ('A' for Active; 'I' for Inactive)
REMARK    1  A    between atoms: C_6  and  C_7
REMARK    2  A    between atoms: C_7  and  C_9
REMARK    3  A    between atoms: C_7  and  O_27
REMARK    4  A    between atoms: C_9  and  N_10
REMARK    5  A    between atoms: C_13  and  N_16
REMARK    6  A    between atoms: N_16  and  S_17
REMARK    7  A    between atoms: S_17  and  C_20
REMARK                            x       y       z     vdW  Elec       q    Type
REMARK                         _______ _______ _______ _____ _____    ______ ____
ROOT
ATOM      1  N   UNL     1       1.427   2.036  -0.262  0.00  0.00    +0.382 N 
ATOM      2  C   UNL     1       0.091   1.486  -0.522  0.00  0.00    -0.077 C 
ATOM      3  C   UNL     1       0.200  -0.016  -0.796  0.00  0.00    +0.002 C 
ATOM      4  C   UNL     1       0.830  -0.706   0.417  0.00  0.00    +0.073 C 
ATOM      5  C   UNL     1       2.200  -0.082   0.696  0.00  0.00    +0.002 C 
ATOM      6  C   UNL     1       2.032   1.422   0.927  0.00  0.00    -0.077 C 
ATOM      7  H   UNL     1       2.063   1.793  -1.126  0.00  0.00    -0.082 HD
ENDROOT
BRANCH   4   8
ATOM      8  N   UNL     1       0.991  -2.135   0.138  0.00  0.00    -0.187 NA
ATOM      9  H   UNL     1       1.076  -2.487  -0.900  0.00  0.00    +0.148 HD
BRANCH   8  10
ATOM     10  S   UNL     1       0.799  -3.243   1.354  0.00  0.00    +0.059 S 
ATOM     11  O   UNL     1       0.990  -4.524   0.770  0.00  0.00    -0.153 OA
ATOM     12  O   UNL     1       1.577  -2.782   2.450  0.00  0.00    -0.153 OA
BRANCH  10  13
ATOM     13  C   UNL     1      -0.885  -3.168   1.866  0.00  0.00    +0.105 A 
ATOM     14  C   UNL     1      -1.262  -2.305   2.878  0.00  0.00    +0.031 A 
ATOM     15  C   UNL     1      -2.584  -2.243   3.277  0.00  0.00    +0.040 A 
ATOM     16  C   UNL     1      -3.529  -3.052   2.669  0.00  0.00    +0.124 A 
ATOM     17  C   UNL     1      -3.150  -3.920   1.659  0.00  0.00    +0.040 A 
ATOM     18  C   UNL     1      -1.828  -3.977   1.259  0.00  0.00    +0.031 A 
ATOM     19  F   UNL     1      -4.821  -2.995   3.062  0.00  0.00    -0.205 F 
ENDBRANCH  10  13
ENDBRANCH   8  10
ENDBRANCH   4   8
BRANCH   1  20
ATOM     20  C   UNL     1       1.378   3.499  -0.132  0.00  0.00    -0.042 C 
BRANCH  20  21
ATOM     21  C   UNL     1       2.767   4.025   0.232  0.00  0.00    +0.128 C 
BRANCH  21  27
ATOM     22  C   UNL     1       2.773   6.302  -0.809  0.00  0.00    +0.007 A 
ATOM     23  C   UNL     1       2.728   7.680  -0.714  0.00  0.00    +0.020 A 
ATOM     24  C   UNL     1       2.645   8.286   0.527  0.00  0.00    +0.041 A 
ATOM     25  C   UNL     1       2.600   7.511   1.672  0.00  0.00    +0.020 A 
ATOM     26  C   UNL     1       2.639   6.133   1.576  0.00  0.00    +0.007 A 
ATOM     27  C   UNL     1       2.724   5.528   0.336  0.00  0.00    -0.021 A 
ATOM     28 CL   UNL     1       2.596  10.017   0.647  0.00  0.00    -0.084 Cl
ENDBRANCH  21  27
BRANCH  21  29
ATOM     29  O   UNL     1       3.701   3.645  -0.781  0.00  0.00    -0.389 OA
ATOM     30  H   UNL     1       3.869   2.581  -1.002  0.00  0.00    +0.210 HD
ENDBRANCH  21  29
ENDBRANCH  20  21
ENDBRANCH   1  20
TORSDOF 7
