REMARK  Name = ZINC13113342
REMARK  10 active torsions:
REMARK  status: ('A' for Active; 'I' for Inactive)
REMARK    1  A    between atoms: C_1  and  C_2
REMARK    2  A    between atoms: C_4  and  C_28
REMARK    3  A    between atoms: C_6  and  N_8
REMARK    4  A    between atoms: C_9  and  C_27
REMARK    5  A    between atoms: C_11  and  C_14
REMARK    6  A    between atoms: C_12  and  C_13
REMARK    7  A    between atoms: C_14  and  C_16
REMARK    8  A    between atoms: C_16  and  S_17
REMARK    9  A    between atoms: S_17  and  C_18
REMARK   10  A    between atoms: C_24  and  N_26
REMARK                            x       y       z     vdW  Elec       q    Type
REMARK                         _______ _______ _______ _____ _____    ______ ____
ROOT
ATOM      1  N   UNL     1      -2.429   1.039   0.020  0.00  0.00    -0.317 N 
ATOM      2  C   UNL     1      -2.866   0.243  -1.002  0.00  0.00    +0.022 A 
ATOM      3  C   UNL     1      -4.053  -0.291  -0.668  0.00  0.00    +0.034 A 
ATOM      4  C   UNL     1      -4.380   0.226   0.668  0.00  0.00    +0.039 A 
ATOM      5  C   UNL     1      -3.324   1.044   1.026  0.00  0.00    +0.031 A 
ATOM      6  C   UNL     1      -3.197   1.807   2.320  0.00  0.00    +0.064 C 
ATOM      7  C   UNL     1      -2.132   0.000  -2.296  0.00  0.00    +0.064 C 
ENDROOT
BRANCH   1  13
ATOM      8  C   UNL     1      -0.064   5.351   0.030  0.00  0.00    +0.044 C 
ATOM      9  C   UNL     1      -0.049   3.845   0.022  0.00  0.00    -0.048 A 
ATOM     10  C   UNL     1       1.156   3.166   0.007  0.00  0.00    +0.006 A 
ATOM     11  C   UNL     1       1.174   1.783   0.000  0.00  0.00    -0.048 A 
ATOM     12  C   UNL     1      -0.013   1.076   0.008  0.00  0.00    +0.029 A 
ATOM     13  C   UNL     1      -1.224   1.754   0.017  0.00  0.00    +0.047 A 
ATOM     14  C   UNL     1      -1.239   3.143   0.030  0.00  0.00    +0.029 A 
ATOM     15  C   UNL     1       2.489   1.048  -0.015  0.00  0.00    +0.044 C 
ENDBRANCH   1  13
BRANCH   4  16
ATOM     16  C   UNL     1      -5.578  -0.065   1.458  0.00  0.00    +0.175 C 
ATOM     17  O   UNL     1      -5.718   0.435   2.554  0.00  0.00    -0.291 OA
BRANCH  16  18
ATOM     18  C   UNL     1      -6.637  -0.986   0.909  0.00  0.00    +0.157 C 
BRANCH  18  19
ATOM     19  S   UNL     1      -7.980  -1.145   2.111  0.00  0.00    -0.080 S 
BRANCH  19  20
ATOM     20  C   UNL     1      -9.045  -2.243   1.236  0.00  0.00    +0.171 A 
ATOM     21  N   UNL     1     -10.215  -2.638   1.812  0.00  0.00    -0.302 N 
ATOM     22  H   UNL     1     -10.453  -2.315   2.695  0.00  0.00    +0.171 HD
ATOM     23  C   UNL     1     -11.045  -3.475   1.155  0.00  0.00    +0.254 A 
ATOM     24  O   UNL     1     -12.097  -3.831   1.661  0.00  0.00    -0.268 OA
ATOM     25  C   UNL     1     -10.677  -3.932  -0.115  0.00  0.00    +0.113 A 
ATOM     26  C   UNL     1      -9.473  -3.503  -0.655  0.00  0.00    +0.124 A 
ATOM     27  N   UNL     1      -8.692  -2.669   0.041  0.00  0.00    -0.209 NA
BRANCH  26  28
ATOM     28  N   UNL     1      -9.082  -3.936  -1.907  0.00  0.00    -0.343 N 
ATOM     29  H   UNL     1      -8.240  -3.635  -2.283  0.00  0.00    +0.144 HD
ATOM     30  H   UNL     1      -9.649  -4.541  -2.410  0.00  0.00    +0.144 HD
ENDBRANCH  26  28
ENDBRANCH  19  20
ENDBRANCH  18  19
ENDBRANCH  16  18
ENDBRANCH   4  16
TORSDOF 6
