REMARK  Name = ZINC11176797
REMARK  3 active torsions:
REMARK  status: ('A' for Active; 'I' for Inactive)
REMARK    1  A    between atoms: C_6  and  S_7
REMARK    2  A    between atoms: S_7  and  N_10
REMARK    3  A    between atoms: N_10  and  C_11
REMARK                            x       y       z     vdW  Elec       q    Type
REMARK                         _______ _______ _______ _____ _____    ______ ____
ROOT
ATOM      1  S   UNL     1       1.410   1.808  -0.112  0.00  0.00    +0.073 S 
ATOM      2  O   UNL     1       2.458   0.861   0.044  0.00  0.00    -0.150 OA
ATOM      3  O   UNL     1       1.296   2.635  -1.262  0.00  0.00    -0.150 OA
ENDROOT
BRANCH   1   9
ATOM      4  C   UNL     1       0.973   4.165   1.191  0.00  0.00    +0.031 A 
ATOM      5  C   UNL     1       1.031   5.015   2.279  0.00  0.00    +0.031 A 
ATOM      6  C   UNL     1       1.623   4.588   3.456  0.00  0.00    +0.087 A 
ATOM      7  C   UNL     1       2.154   3.301   3.544  0.00  0.00    +0.159 A 
ATOM      8  C   UNL     1       2.087   2.454   2.449  0.00  0.00    +0.077 A 
ATOM      9  C   UNL     1       1.495   2.887   1.278  0.00  0.00    +0.112 A 
ATOM     10  O   UNL     1       2.662   3.159   4.792  0.00  0.00    -0.408 OA
ATOM     11  C   UNL     1       2.470   4.297   5.479  0.00  0.00    +0.419 A 
ATOM     12  O   UNL     1       2.812   4.489   6.630  0.00  0.00    -0.223 OA
ATOM     13  N   UNL     1       1.837   5.192   4.694  0.00  0.00    -0.288 N 
ATOM     14  H   UNL     1       1.579   6.093   4.946  0.00  0.00    +0.172 HD
ENDBRANCH   1   9
BRANCH   1  15
ATOM     15  N   UNL     1      -0.011   0.966   0.007  0.00  0.00    -0.215 N 
ATOM     16  H   UNL     1       0.003  -0.002   0.071  0.00  0.00    +0.174 HD
BRANCH  15  17
ATOM     17  C   UNL     1      -1.231   1.649   0.011  0.00  0.00    +0.066 A 
ATOM     18  C   UNL     1      -1.391   2.791  -0.763  0.00  0.00    +0.027 A 
ATOM     19  C   UNL     1      -2.597   3.464  -0.758  0.00  0.00    +0.017 A 
ATOM     20  C   UNL     1      -3.646   3.002   0.018  0.00  0.00    +0.019 A 
ATOM     21  C   UNL     1      -3.490   1.865   0.791  0.00  0.00    +0.037 A 
ATOM     22  C   UNL     1      -2.287   1.185   0.786  0.00  0.00    +0.064 A 
ATOM     23 CL   UNL     1      -2.094  -0.246   1.750  0.00  0.00    -0.082 Cl
ATOM     24 BR   UNL     1      -5.295   3.926   0.022  0.00  0.00    -0.050 Br
ENDBRANCH  15  17
ENDBRANCH   1  15
TORSDOF 3
