REMARK  Name = ZINC11592192
REMARK  7 active torsions:
REMARK  status: ('A' for Active; 'I' for Inactive)
REMARK    1  A    between atoms: C_1  and  C_2
REMARK    2  A    between atoms: C_5  and  C_25
REMARK    3  A    between atoms: C_10  and  C_12
REMARK    4  A    between atoms: C_12  and  S_13
REMARK    5  A    between atoms: S_13  and  C_14
REMARK    6  A    between atoms: C_17  and  C_20
REMARK    7  A    between atoms: N_18  and  N_19
REMARK                            x       y       z     vdW  Elec       q    Type
REMARK                         _______ _______ _______ _____ _____    ______ ____
ROOT
ATOM      1  C   UNL     1       0.122   0.990  -2.724  0.00  0.00    +0.209 A 
ATOM      2  N   UNL     1       1.198   0.258  -2.546  0.00  0.00    -0.121 NA
ATOM      3  N   UNL     1       1.690  -0.088  -3.682  0.00  0.00    -0.126 NA
ATOM      4  C   UNL     1       0.962   0.411  -4.657  0.00  0.00    +0.188 A 
ATOM      5  N   UNL     1      -0.065   1.117  -4.072  0.00  0.00    -0.223 N 
ENDROOT
BRANCH   4   6
ATOM      6  C   UNL     1       1.201   0.246  -6.100  0.00  0.00    +0.058 A 
ATOM      7  C   UNL     1       2.328  -0.195  -6.745  0.00  0.00    +0.019 A 
ATOM      8  C   UNL     1       2.317  -0.267  -8.120  0.00  0.00    +0.008 A 
ATOM      9  C   UNL     1       1.196   0.099  -8.793  0.00  0.00    +0.046 A 
ATOM     10  S   UNL     1       0.095   0.560  -7.466  0.00  0.00    -0.093 S 
ENDBRANCH   4   6
BRANCH   5  11
ATOM     11  N   UNL     1      -1.062   1.802  -4.706  0.00  0.00    -0.295 N 
ATOM     12  H   UNL     1      -0.793   2.759  -4.875  0.00  0.00    +0.163 HD
ATOM     13  H   UNL     1      -1.326   1.344  -5.566  0.00  0.00    +0.163 HD
ENDBRANCH   5  11
BRANCH   1  14
ATOM     14  S   UNL     1      -0.888   1.685  -1.458  0.00  0.00    -0.075 S 
BRANCH  14  15
ATOM     15  C   UNL     1      -0.013   1.086   0.008  0.00  0.00    +0.173 C 
BRANCH  15  23
ATOM     16  C   UNL     1       3.171   0.241   3.764  0.00  0.00    +0.009 C 
ATOM     17  C   UNL     1       1.965   1.147   3.502  0.00  0.00    +0.004 C 
ATOM     18  C   UNL     1       1.290   1.495   4.830  0.00  0.00    +0.009 C 
ATOM     19  C   UNL     1       0.104   2.427   4.573  0.00  0.00    +0.004 C 
ATOM     20  C   UNL     1      -0.918   1.712   3.684  0.00  0.00    +0.111 C 
ATOM     21  N   UNL     1      -0.242   1.246   2.466  0.00  0.00    -0.300 N 
ATOM     22  C   UNL     1       0.961   0.413   2.601  0.00  0.00    +0.111 C 
ATOM     23  C   UNL     1      -0.718   1.572   1.248  0.00  0.00    +0.226 C 
ATOM     24  O   UNL     1      -1.714   2.256   1.150  0.00  0.00    -0.275 OA
ATOM     25  C   UNL     1      -0.550   2.802   5.904  0.00  0.00    +0.009 C 
ENDBRANCH  15  23
ENDBRANCH  14  15
ENDBRANCH   1  14
TORSDOF 5
