REMARK  Name = ZINC64372364
REMARK  7 active torsions:
REMARK  status: ('A' for Active; 'I' for Inactive)
REMARK    1  A    between atoms: C_1  and  C_2
REMARK    2  A    between atoms: C_2  and  O_3
REMARK    3  A    between atoms: O_3  and  C_4
REMARK    4  A    between atoms: C_7  and  C_10
REMARK    5  A    between atoms: C_11  and  C_12
REMARK    6  A    between atoms: C_12  and  N_14
REMARK    7  A    between atoms: C_18  and  C_21
REMARK                            x       y       z     vdW  Elec       q    Type
REMARK                         _______ _______ _______ _____ _____    ______ ____
ROOT
ATOM      1  N   UNL     1      -4.638  -8.578  -0.012  0.00  0.00    -0.142 NA
ATOM      2  C   UNL     1      -4.794  -9.898  -0.018  0.00  0.00    +0.216 A 
ATOM      3  N   UNL     1      -3.801 -10.829  -0.022  0.00  0.00    -0.308 N 
ATOM      4  H   UNL     1      -2.848 -10.644  -0.021  0.00  0.00    +0.170 HD
ATOM      5  C   UNL     1      -4.383 -12.079  -0.028  0.00  0.00    +0.179 A 
ATOM      6  N   UNL     1      -5.679 -11.940  -0.027  0.00  0.00    -0.151 NA
ATOM      7  N   UNL     1      -5.976 -10.570  -0.015  0.00  0.00    -0.246 N 
ATOM      8  H   UNL     1      -6.861 -10.174  -0.008  0.00  0.00    +0.192 HD
ENDROOT
BRANCH   5   9
ATOM      9  C   UNL     1      -3.655 -13.367  -0.034  0.00  0.00    +0.108 A 
ATOM     10  C   UNL     1      -4.370 -14.565  -0.045  0.00  0.00    +0.031 A 
ATOM     11  C   UNL     1      -3.675 -15.762  -0.052  0.00  0.00    +0.004 A 
ATOM     12  C   UNL     1      -2.288 -15.723  -0.047  0.00  0.00    +0.020 A 
ATOM     13  C   UNL     1      -1.643 -14.499  -0.035  0.00  0.00    +0.111 A 
ATOM     14  N   UNL     1      -2.328 -13.374  -0.035  0.00  0.00    -0.252 NA
ENDBRANCH   5   9
BRANCH   1  15
ATOM     15  C   UNL     1      -3.407  -8.049  -0.015  0.00  0.00    +0.263 C 
ATOM     16  O   UNL     1      -2.429  -8.780  -0.024  0.00  0.00    -0.269 OA
BRANCH  15  18
ATOM     17  C   UNL     1      -1.997  -6.060  -0.012  0.00  0.00    +0.013 C 
ATOM     18  C   UNL     1      -3.235  -6.592  -0.009  0.00  0.00    +0.070 C 
BRANCH  17  22
ATOM     19  C   UNL     1      -1.498  -1.847   0.006  0.00  0.00    +0.121 A 
ATOM     20  C   UNL     1      -0.383  -2.676  -0.003  0.00  0.00    +0.046 A 
ATOM     21  C   UNL     1      -0.539  -4.044  -0.009  0.00  0.00    +0.011 A 
ATOM     22  C   UNL     1      -1.824  -4.599  -0.005  0.00  0.00    -0.025 A 
ATOM     23  C   UNL     1      -2.943  -3.760   0.004  0.00  0.00    +0.011 A 
ATOM     24  C   UNL     1      -2.776  -2.393   0.016  0.00  0.00    +0.046 A 
BRANCH  19  25
ATOM     25  O   UNL     1      -1.339  -0.499   0.012  0.00  0.00    -0.492 OA
BRANCH  25  27
ATOM     26  C   UNL     1      -0.019   1.526   0.010  0.00  0.00    +0.048 C 
ATOM     27  C   UNL     1       0.002  -0.004   0.002  0.00  0.00    +0.225 C 
ENDBRANCH  25  27
ENDBRANCH  19  25
ENDBRANCH  17  22
ENDBRANCH  15  18
ENDBRANCH   1  15
TORSDOF 6
