REMARK  Name = ZINC32999182
REMARK  10 active torsions:
REMARK  status: ('A' for Active; 'I' for Inactive)
REMARK    1  A    between atoms: C_1  and  C_2
REMARK    2  A    between atoms: C_5  and  N_8
REMARK    3  A    between atoms: C_10  and  N_24
REMARK    4  A    between atoms: C_11  and  C_23
REMARK    5  A    between atoms: N_15  and  C_16
REMARK    6  A    between atoms: C_19  and  C_22
REMARK    7  A    between atoms: C_25  and  C_27
REMARK    8  A    between atoms: C_27  and  O_28
REMARK    9  A    between atoms: O_28  and  C_29
REMARK   10  A    between atoms: C_34  and  C_35
REMARK                            x       y       z     vdW  Elec       q    Type
REMARK                         _______ _______ _______ _____ _____    ______ ____
ROOT
ATOM      1  N   UNL     1       1.965  -1.764   1.435  0.00  0.00    -0.298 N 
ATOM      2  C   UNL     1       1.070  -1.068   0.634  0.00  0.00    +0.150 A 
ATOM      3  C   UNL     1       0.521   0.147   1.068  0.00  0.00    +0.095 A 
ATOM      4  C   UNL     1      -0.368   0.803   0.232  0.00  0.00    +0.066 A 
ATOM      5  N   UNL     1      -0.674   0.264  -0.939  0.00  0.00    -0.218 NA
ATOM      6  C   UNL     1      -0.136  -0.883  -1.323  0.00  0.00    +0.222 A 
ATOM      7  N   UNL     1       0.719  -1.544  -0.556  0.00  0.00    -0.197 NA
ATOM      8  N   UNL     1      -0.479  -1.409  -2.559  0.00  0.00    -0.284 N 
ATOM      9  C   UNL     1      -0.986   2.112   0.653  0.00  0.00    +0.068 C 
ATOM     10  H   UNL     1       2.319  -1.320   2.377  0.00  0.00    +0.154 HD
ATOM     11  H   UNL     1       0.009  -2.326  -2.921  0.00  0.00    +0.155 HD
ENDROOT
BRANCH   1  16
ATOM     12  C   UNL     1       3.797  -6.892  -0.150  0.00  0.00    +0.044 C 
ATOM     13  C   UNL     1       3.310  -5.529   0.271  0.00  0.00    -0.050 A 
ATOM     14  C   UNL     1       4.151  -4.682   0.969  0.00  0.00    +0.005 A 
ATOM     15  C   UNL     1       3.708  -3.432   1.356  0.00  0.00    +0.023 A 
ATOM     16  C   UNL     1       2.417  -3.027   1.044  0.00  0.00    +0.032 A 
ATOM     17  C   UNL     1       1.573  -3.883   0.347  0.00  0.00    +0.023 A 
ATOM     18  C   UNL     1       2.024  -5.129  -0.041  0.00  0.00    +0.005 A 
ENDBRANCH   1  16
BRANCH   8  19
ATOM     19  C   UNL     1      -1.445  -0.774  -3.346  0.00  0.00    +0.034 A 
ATOM     20  C   UNL     1      -2.542  -0.170  -2.747  0.00  0.00    +0.023 A 
ATOM     21  C   UNL     1      -3.492   0.461  -3.526  0.00  0.00    +0.005 A 
ATOM     22  C   UNL     1      -3.357   0.482  -4.902  0.00  0.00    -0.050 A 
ATOM     23  C   UNL     1      -2.268  -0.124  -5.502  0.00  0.00    +0.005 A 
ATOM     24  C   UNL     1      -1.312  -0.752  -4.728  0.00  0.00    +0.023 A 
ATOM     25  C   UNL     1      -4.398   1.166  -5.750  0.00  0.00    +0.044 C 
ENDBRANCH   8  19
BRANCH   3  26
ATOM     26  N   UNL     1       0.865   0.685   2.318  0.00  0.00    -0.279 N 
ATOM     27  C   UNL     1       1.541   1.849   2.388  0.00  0.00    +0.255 C 
ATOM     28  O   UNL     1       1.801   2.461   1.374  0.00  0.00    -0.272 OA
ATOM     29  H   UNL     1       0.582   0.156   3.241  0.00  0.00    +0.155 HD
BRANCH  27  30
ATOM     30  C   UNL     1       1.974   2.389   3.727  0.00  0.00    +0.324 C 
BRANCH  30  31
ATOM     31  O   UNL     1       2.667   3.624   3.540  0.00  0.00    -0.483 OA
BRANCH  31  32
ATOM     32  C   UNL     1       3.128   4.248   4.656  0.00  0.00    +0.124 A 
ATOM     33  C   UNL     1       2.911   3.686   5.906  0.00  0.00    +0.046 A 
ATOM     34  C   UNL     1       3.385   4.319   7.038  0.00  0.00    +0.004 A 
ATOM     35  C   UNL     1       4.065   5.518   6.928  0.00  0.00    +0.000 A 
ATOM     36  C   UNL     1       4.277   6.083   5.684  0.00  0.00    +0.007 A 
ATOM     37  C   UNL     1       3.810   5.451   4.548  0.00  0.00    -0.009 A 
ATOM     38  C   UNL     1       4.041   6.068   3.193  0.00  0.00    +0.047 C 
ENDBRANCH  31  32
ENDBRANCH  30  31
ENDBRANCH  27  30
ENDBRANCH   3  26
TORSDOF 6
