REMARK  Name = ZINC08935087
REMARK  16 active torsions:
REMARK  status: ('A' for Active; 'I' for Inactive)
REMARK    1  A    between atoms: C_1  and  C_2
REMARK    2  A    between atoms: C_2  and  N_67
REMARK    3  A    between atoms: C_3  and  C_4
REMARK    4  A    between atoms: C_3  and  N_67
REMARK    5  A    between atoms: C_5  and  C_6
REMARK    6  A    between atoms: C_5  and  N_67
REMARK    7  A    between atoms: C_6  and  C_7
REMARK    8  A    between atoms: C_7  and  C_8
REMARK    9  A    between atoms: C_8  and  C_10
REMARK   10  A    between atoms: C_8  and  N_11
REMARK   11  A    between atoms: N_11  and  C_12
REMARK   12  A    between atoms: C_14  and  C_23
REMARK   13  A    between atoms: C_18  and  O_21
REMARK   14  A    between atoms: O_21  and  C_22
REMARK   15  A    between atoms: C_24  and  C_25
REMARK   16  A    between atoms: C_28  and  N_31
REMARK                            x       y       z     vdW  Elec       q    Type
REMARK                         _______ _______ _______ _____ _____    ______ ____
ROOT
ATOM      1  C   UNL     1      -1.263   4.295   3.142  0.00  0.00    +0.039 A 
ATOM      2  C   UNL     1      -1.521   5.647   3.018  0.00  0.00    +0.049 A 
ATOM      3  C   UNL     1      -0.856   6.391   2.033  0.00  0.00    +0.041 A 
ATOM      4  C   UNL     1       0.308   4.526   1.285  0.00  0.00    +0.049 A 
ATOM      5  C   UNL     1      -0.325   3.711   2.255  0.00  0.00    +0.023 A 
ATOM      6  C   UNL     1      -0.020   2.345   2.321  0.00  0.00    +0.057 A 
ATOM      7  C   UNL     1       0.901   1.812   1.446  0.00  0.00    +0.121 A 
ATOM      8  C   UNL     1       1.523   2.620   0.490  0.00  0.00    +0.047 A 
ATOM      9  C   UNL     1       1.239   3.947   0.404  0.00  0.00    +0.030 A 
ATOM     10  N   UNL     1       0.053   5.873   1.158  0.00  0.00    -0.355 N 
ATOM     11  H   UNL     1       0.519   6.452   0.449  0.00  0.00    +0.166 HD
ENDROOT
BRANCH   1  12
ATOM     12  N   UNL     1      -1.905   3.531   4.107  0.00  0.00    -0.341 N 
ATOM     13  H   UNL     1      -1.713   2.583   4.182  0.00  0.00    +0.146 HD
BRANCH  12  14
ATOM     14  C   UNL     1      -2.871   4.156   5.013  0.00  0.00    +0.067 C 
ATOM     15  C   UNL     1      -4.246   4.198   4.343  0.00  0.00    +0.028 C 
BRANCH  14  16
ATOM     16  C   UNL     1      -2.959   3.343   6.306  0.00  0.00    +0.020 C 
BRANCH  16  17
ATOM     17  C   UNL     1      -1.617   3.405   7.040  0.00  0.00    -0.017 C 
BRANCH  17  18
ATOM     18  C   UNL     1      -1.705   2.592   8.332  0.00  0.00    -0.079 C 
BRANCH  18  19
ATOM     19  N   UNL     1      -0.397   2.644   9.018  0.00  0.00    +0.379 N 
ATOM     20  H   UNL     1       0.339   2.378   8.353  0.00  0.00    -0.082 HD
BRANCH  19  22
ATOM     21  C   UNL     1      -1.225   4.460  10.477  0.00  0.00    -0.017 C 
ATOM     22  C   UNL     1      -0.134   4.016   9.501  0.00  0.00    -0.082 C 
ENDBRANCH  19  22
BRANCH  19  23
ATOM     23  C   UNL     1      -0.383   1.698  10.153  0.00  0.00    -0.082 C 
ATOM     24  C   UNL     1       1.064   1.499  10.611  0.00  0.00    -0.017 C 
ENDBRANCH  19  23
ENDBRANCH  18  19
ENDBRANCH  17  18
ENDBRANCH  16  17
ENDBRANCH  14  16
ENDBRANCH  12  14
ENDBRANCH   1  12
BRANCH   7  25
ATOM     25  O   UNL     1       1.203   0.488   1.509  0.00  0.00    -0.495 OA
ATOM     26  C   UNL     1       2.161  -0.004   0.571  0.00  0.00    +0.277 C 
ENDBRANCH   7  25
BRANCH   3  27
ATOM     27  C   UNL     1      -1.136   7.831   1.907  0.00  0.00    +0.026 C 
ATOM     28  C   UNL     1      -0.508   8.559   0.969  0.00  0.00    +0.010 C 
BRANCH  28  29
ATOM     29  C   UNL     1      -0.789  10.000   0.843  0.00  0.00    -0.025 A 
ATOM     30  C   UNL     1      -1.712  10.612   1.695  0.00  0.00    +0.010 A 
ATOM     31  C   UNL     1      -1.965  11.963   1.575  0.00  0.00    +0.033 A 
ATOM     32  C   UNL     1      -1.316  12.709   0.608  0.00  0.00    +0.126 A 
ATOM     33  C   UNL     1      -0.405  12.108  -0.243  0.00  0.00    +0.033 A 
ATOM     34  C   UNL     1      -0.137  10.760  -0.132  0.00  0.00    +0.010 A 
BRANCH  32  35
ATOM     35  N   UNL     1      -1.597  14.156   0.481  0.00  0.00    +0.056 N 
ATOM     36  O   UNL     1      -1.028  14.816  -0.369  0.00  0.00    -0.126 OA
ATOM     37  O   UNL     1      -2.399  14.688   1.229  0.00  0.00    -0.126 OA
ENDBRANCH  32  35
ENDBRANCH  28  29
ENDBRANCH   3  27
TORSDOF 12
