REMARK  Name = ZINC12800087
REMARK  7 active torsions:
REMARK  status: ('A' for Active; 'I' for Inactive)
REMARK    1  A    between atoms: C_1  and  C_2
REMARK    2  A    between atoms: C_2  and  C_3
REMARK    3  A    between atoms: C_2  and  C_4
REMARK    4  A    between atoms: C_4  and  C_6
REMARK    5  A    between atoms: C_4  and  N_17
REMARK    6  A    between atoms: N_20  and  C_21
REMARK    7  A    between atoms: C_21  and  C_22
REMARK                            x       y       z     vdW  Elec       q    Type
REMARK                         _______ _______ _______ _____ _____    ______ ____
ROOT
ATOM      1  C   UNL     1       1.198  -2.127  -0.021  0.00  0.00    +0.107 C 
ENDROOT
BRANCH   1   2
ATOM      2  C   UNL     1       2.487  -2.608  -0.636  0.00  0.00    -0.023 A 
ATOM      3  C   UNL     1       3.672  -1.958  -0.350  0.00  0.00    +0.009 A 
ATOM      4  C   UNL     1       4.859  -2.394  -0.911  0.00  0.00    +0.050 A 
ATOM      5  C   UNL     1       4.855  -3.486  -1.763  0.00  0.00    +0.162 A 
ATOM      6  C   UNL     1       3.665  -4.139  -2.050  0.00  0.00    +0.162 A 
ATOM      7  C   UNL     1       2.480  -3.703  -1.482  0.00  0.00    +0.055 A 
ATOM      8  O   UNL     1       3.672  -5.214  -2.890  0.00  0.00    -0.488 OA
ATOM      9  C   UNL     1       4.320  -6.388  -2.397  0.00  0.00    +0.232 C 
ATOM     10  C   UNL     1       5.818  -6.324  -2.649  0.00  0.00    +0.082 C 
ATOM     11  C   UNL     1       6.487  -5.199  -1.875  0.00  0.00    +0.232 C 
ATOM     12  O   UNL     1       6.019  -3.925  -2.324  0.00  0.00    -0.488 OA
ENDBRANCH   1   2
BRANCH   1  13
ATOM     13  N   UNL     1       1.178  -0.662  -0.013  0.00  0.00    -0.292 N 
ATOM     14  C   UNL     1       0.002  -0.004   0.002  0.00  0.00    +0.300 C 
ATOM     15  O   UNL     1      -1.042  -0.626   0.009  0.00  0.00    -0.253 OA
ATOM     16  N   UNL     1      -0.016   1.344   0.009  0.00  0.00    -0.295 N 
ATOM     17  H   UNL     1       2.012  -0.166  -0.018  0.00  0.00    +0.151 HD
ATOM     18  H   UNL     1       0.817   1.840   0.004  0.00  0.00    +0.151 HD
BRANCH  16  19
ATOM     19  C   UNL     1      -1.295   2.059   0.019  0.00  0.00    +0.144 C 
BRANCH  19  20
ATOM     20  C   UNL     1      -1.040   3.544   0.026  0.00  0.00    +0.005 A 
ATOM     21  C   UNL     1      -1.127   4.255   1.208  0.00  0.00    +0.008 A 
ATOM     22  C   UNL     1      -0.887   5.616   1.216  0.00  0.00    +0.000 A 
ATOM     23  C   UNL     1      -0.571   6.270   0.039  0.00  0.00    +0.003 A 
ATOM     24  C   UNL     1      -0.488   5.562  -1.144  0.00  0.00    +0.038 A 
ATOM     25  C   UNL     1      -0.723   4.198  -1.152  0.00  0.00    +0.128 A 
ATOM     26  F   UNL     1      -0.643   3.505  -2.309  0.00  0.00    -0.205 F 
ENDBRANCH  19  20
ENDBRANCH  16  19
ENDBRANCH   1  13
BRANCH   1  28
ATOM     27  C   UNL     1       1.114  -4.176   1.406  0.00  0.00    +0.009 C 
ATOM     28  C   UNL     1       1.093  -2.646   1.415  0.00  0.00    +0.008 C 
ATOM     29  C   UNL     1       2.276  -2.125   2.233  0.00  0.00    +0.009 C 
ENDBRANCH   1  28
TORSDOF 5
