REMARK  Name = ZINC58883826
REMARK  5 active torsions:
REMARK  status: ('A' for Active; 'I' for Inactive)
REMARK    1  A    between atoms: C_1  and  C_2
REMARK    2  A    between atoms: C_3  and  C_10
REMARK    3  A    between atoms: N_12  and  N_13
REMARK    4  A    between atoms: C_14  and  C_15
REMARK    5  A    between atoms: C_24  and  O_25
REMARK                            x       y       z     vdW  Elec       q    Type
REMARK                         _______ _______ _______ _____ _____    ______ ____
ROOT
ATOM      1  N   UNL     1       0.197  -0.840  -4.793  0.00  0.00    -0.187 NA
ATOM      2  C   UNL     1       0.302  -1.708  -5.755  0.00  0.00    +0.142 C 
ENDROOT
BRANCH   2   3
ATOM      3  C   UNL     1       0.400  -1.252  -7.149  0.00  0.00    +0.044 A 
ATOM      4  C   UNL     1       0.513  -2.214  -8.244  0.00  0.00    -0.006 A 
ATOM      5  C   UNL     1       0.531  -3.593  -8.005  0.00  0.00    +0.009 A 
ATOM      6  C   UNL     1       0.637  -4.457  -9.054  0.00  0.00    +0.001 A 
ATOM      7  C   UNL     1       0.728  -3.986 -10.362  0.00  0.00    +0.001 A 
ATOM      8  C   UNL     1       0.713  -2.651 -10.630  0.00  0.00    +0.008 A 
ATOM      9  C   UNL     1       0.605  -1.732  -9.572  0.00  0.00    -0.017 A 
ATOM     10  C   UNL     1       0.585  -0.346  -9.810  0.00  0.00    +0.012 A 
ATOM     11  C   UNL     1       0.480   0.535  -8.780  0.00  0.00    +0.046 A 
ATOM     12  C   UNL     1       0.381   0.109  -7.457  0.00  0.00    +0.126 A 
BRANCH  12  13
ATOM     13  O   UNL     1       0.271   1.024  -6.460  0.00  0.00    -0.506 OA
ATOM     14  H   UNL     1       1.119   1.317  -6.100  0.00  0.00    +0.292 HD
ENDBRANCH  12  13
ENDBRANCH   2   3
BRANCH   1  17
ATOM     15  C   UNL     1      -0.005  -0.376  -2.467  0.00  0.00    +0.282 C 
ATOM     16  O   UNL     1      -0.117   0.810  -2.725  0.00  0.00    -0.267 OA
ATOM     17  N   UNL     1       0.104  -1.275  -3.465  0.00  0.00    -0.202 N 
ATOM     18  H   UNL     1       0.118  -2.224  -3.263  0.00  0.00    +0.178 HD
BRANCH  15  21
ATOM     19  C   UNL     1      -0.492   1.453  -0.001  0.00  0.00    +0.068 C 
ATOM     20  C   UNL     1      -0.202  -0.025  -0.003  0.00  0.00    +0.070 A 
ATOM     21  C   UNL     1       0.011  -0.808  -1.118  0.00  0.00    +0.133 A 
ATOM     22  N   UNL     1       0.244  -2.117  -0.662  0.00  0.00    -0.289 N 
ATOM     23  C   UNL     1       0.515  -3.354  -1.196  0.00  0.00    +0.101 A 
ATOM     24  C   UNL     1       0.682  -4.416  -0.408  0.00  0.00    +0.067 A 
ATOM     25  S   UNL     1       0.458  -3.706   1.216  0.00  0.00    -0.058 S 
ATOM     26  C   UNL     1       0.156  -2.031   0.698  0.00  0.00    +0.178 A 
ATOM     27  N   UNL     1      -0.099  -0.802   1.070  0.00  0.00    -0.226 NA
ENDBRANCH  15  21
ENDBRANCH   1  17
TORSDOF 4
