REMARK  Name = ZINC39873448
REMARK  6 active torsions:
REMARK  status: ('A' for Active; 'I' for Inactive)
REMARK    1  A    between atoms: C_1  and  C_2
REMARK    2  A    between atoms: C_2  and  O_3
REMARK    3  A    between atoms: O_3  and  C_4
REMARK    4  A    between atoms: C_7  and  N_10
REMARK    5  A    between atoms: C_11  and  C_27
REMARK    6  A    between atoms: C_30  and  C_33
REMARK                            x       y       z     vdW  Elec       q    Type
REMARK                         _______ _______ _______ _____ _____    ______ ____
ROOT
ATOM      1  N   UNL     1       1.103  -5.936  -1.834  0.00  0.00    -0.253 N 
ATOM      2  C   UNL     1       1.759  -6.622  -2.959  0.00  0.00    +0.150 C 
ATOM      3  C   UNL     1       1.613  -8.083  -2.685  0.00  0.00    +0.072 A 
ATOM      4  C   UNL     1       2.051  -9.258  -3.446  0.00  0.00    +0.199 A 
ATOM      5  O   UNL     1       2.799  -9.189  -4.406  0.00  0.00    -0.287 OA
ATOM      6  C   UNL     1       1.499 -10.537  -2.935  0.00  0.00    +0.066 A 
ATOM      7  C   UNL     1       1.659 -11.716  -3.663  0.00  0.00    +0.035 A 
ATOM      8  C   UNL     1       1.135 -12.894  -3.176  0.00  0.00    +0.042 A 
ATOM      9  C   UNL     1       0.452 -12.904  -1.967  0.00  0.00    +0.023 A 
ATOM     10  C   UNL     1       0.290 -11.747  -1.239  0.00  0.00    +0.048 A 
ATOM     11  C   UNL     1       0.813 -10.543  -1.709  0.00  0.00    +0.140 A 
ATOM     12  O   UNL     1       0.648  -9.422  -0.969  0.00  0.00    -0.450 OA
ATOM     13  C   UNL     1       0.938  -8.221  -1.505  0.00  0.00    +0.199 A 
ATOM     14  C   UNL     1       0.631  -6.876  -0.989  0.00  0.00    +0.287 C 
ATOM     15  O   UNL     1       0.037  -6.646   0.046  0.00  0.00    -0.266 OA
ATOM     16 CL   UNL     1       1.329 -14.366  -4.075  0.00  0.00    -0.084 Cl
ENDROOT
BRANCH   2  17
ATOM     17  C   UNL     1       1.078  -6.264  -4.255  0.00  0.00    -0.022 A 
ATOM     18  C   UNL     1      -0.299  -6.156  -4.305  0.00  0.00    +0.006 A 
ATOM     19  C   UNL     1      -0.924  -5.827  -5.494  0.00  0.00    +0.004 A 
ATOM     20  C   UNL     1      -0.171  -5.606  -6.632  0.00  0.00    -0.050 A 
ATOM     21  C   UNL     1       1.206  -5.714  -6.581  0.00  0.00    +0.004 A 
ATOM     22  C   UNL     1       1.831  -6.038  -5.392  0.00  0.00    +0.006 A 
ATOM     23  C   UNL     1      -0.852  -5.249  -7.928  0.00  0.00    +0.044 C 
ENDBRANCH   2  17
BRANCH   1  27
ATOM     24  C   UNL     1       0.777  -1.811  -1.336  0.00  0.00    +0.121 A 
ATOM     25  C   UNL     1       0.242  -2.668  -0.385  0.00  0.00    +0.047 A 
ATOM     26  C   UNL     1       0.350  -4.035  -0.549  0.00  0.00    +0.027 A 
ATOM     27  C   UNL     1       0.993  -4.551  -1.667  0.00  0.00    +0.038 A 
ATOM     28  C   UNL     1       1.527  -3.692  -2.619  0.00  0.00    +0.027 A 
ATOM     29  C   UNL     1       1.414  -2.326  -2.456  0.00  0.00    +0.047 A 
BRANCH  24  30
ATOM     30  O   UNL     1       0.671  -0.465  -1.174  0.00  0.00    -0.492 OA
BRANCH  30  32
ATOM     31  C   UNL     1      -0.019   1.526   0.010  0.00  0.00    +0.048 C 
ATOM     32  C   UNL     1       0.002  -0.004   0.002  0.00  0.00    +0.225 C 
ENDBRANCH  30  32
ENDBRANCH  24  30
ENDBRANCH   1  27
TORSDOF 4
