REMARK  Name = ZINC27236139
REMARK  14 active torsions:
REMARK  status: ('A' for Active; 'I' for Inactive)
REMARK    1  A    between atoms: C_1  and  C_2
REMARK    2  A    between atoms: C_2  and  O_3
REMARK    3  A    between atoms: O_3  and  C_4
REMARK    4  A    between atoms: C_7  and  C_10
REMARK    5  A    between atoms: C_10  and  C_11
REMARK    6  A    between atoms: C_10  and  C_15
REMARK    7  A    between atoms: C_10  and  O_32
REMARK    8  A    between atoms: C_11  and  C_12
REMARK    9  A    between atoms: C_12  and  C_13
REMARK   10  A    between atoms: C_12  and  C_14
REMARK   11  A    between atoms: C_15  and  C_17
REMARK   12  A    between atoms: C_15  and  O_23
REMARK   13  A    between atoms: C_17  and  N_18
REMARK   14  A    between atoms: O_23  and  C_24
REMARK                            x       y       z     vdW  Elec       q    Type
REMARK                         _______ _______ _______ _____ _____    ______ ____
ROOT
ATOM      1  C   UNL     1       2.756  -2.711  -0.168  0.00  0.00    +0.193 C 
ENDROOT
BRANCH   1   2
ATOM      2  C   UNL     1       2.391  -3.847  -1.125  0.00  0.00    +0.126 C 
BRANCH   2   6
ATOM      3  C   UNL     1      -1.241  -5.690   0.171  0.00  0.00    +0.121 A 
ATOM      4  C   UNL     1      -1.253  -4.384  -0.297  0.00  0.00    +0.046 A 
ATOM      5  C   UNL     1      -0.077  -3.790  -0.716  0.00  0.00    +0.010 A 
ATOM      6  C   UNL     1       1.110  -4.497  -0.668  0.00  0.00    -0.012 A 
ATOM      7  C   UNL     1       1.124  -5.801  -0.208  0.00  0.00    +0.010 A 
ATOM      8  C   UNL     1      -0.048  -6.397   0.217  0.00  0.00    +0.046 A 
BRANCH   3   9
ATOM      9  O   UNL     1      -2.396  -6.275   0.583  0.00  0.00    -0.492 OA
BRANCH   9  11
ATOM     10  C   UNL     1      -3.698  -8.108   1.470  0.00  0.00    +0.048 C 
ATOM     11  C   UNL     1      -2.308  -7.622   1.052  0.00  0.00    +0.225 C 
ENDBRANCH   9  11
ENDBRANCH   3   9
ENDBRANCH   2   6
BRANCH   2  12
ATOM     12  O   UNL     1       3.440  -4.817  -1.134  0.00  0.00    -0.380 OA
ATOM     13  H   UNL     1       4.455  -4.527  -1.442  0.00  0.00    +0.211 HD
ENDBRANCH   2  12
BRANCH   2  14
ATOM     14  C   UNL     1       2.203  -3.286  -2.536  0.00  0.00    +0.046 C 
BRANCH  14  15
ATOM     15  C   UNL     1       1.723  -4.400  -3.468  0.00  0.00    -0.014 C 
ATOM     16  C   UNL     1       1.366  -3.805  -4.832  0.00  0.00    +0.007 C 
ATOM     17  C   UNL     1       2.835  -5.437  -3.639  0.00  0.00    +0.007 C 
ENDBRANCH  14  15
ENDBRANCH   2  14
ENDBRANCH   1   2
BRANCH   1  18
ATOM     18  C   UNL     1       2.962  -3.275   1.239  0.00  0.00    -0.030 C 
BRANCH  18  19
ATOM     19  N   UNL     1       3.458  -2.213   2.124  0.00  0.00    +0.382 N 
ATOM     20  C   UNL     1       2.504  -1.076   2.179  0.00  0.00    -0.079 C 
ATOM     21  C   UNL     1       2.894  -0.349   3.491  0.00  0.00    -0.020 C 
ATOM     22  C   UNL     1       3.249  -1.516   4.441  0.00  0.00    -0.020 C 
ATOM     23  C   UNL     1       3.587  -2.699   3.515  0.00  0.00    -0.079 C 
ATOM     24  H   UNL     1       4.432  -1.910   1.712  0.00  0.00    -0.082 HD
ENDBRANCH  18  19
ENDBRANCH   1  18
BRANCH   1  25
ATOM     25  O   UNL     1       1.699  -1.749  -0.146  0.00  0.00    -0.486 OA
BRANCH  25  26
ATOM     26  C   UNL     1       1.797  -0.703  -1.009  0.00  0.00    +0.139 A 
ATOM     27  C   UNL     1       2.938  -0.546  -1.782  0.00  0.00    +0.048 A 
ATOM     28  C   UNL     1       3.036   0.517  -2.659  0.00  0.00    +0.023 A 
ATOM     29  C   UNL     1       1.998   1.425  -2.766  0.00  0.00    +0.043 A 
ATOM     30  C   UNL     1       0.860   1.272  -1.996  0.00  0.00    +0.043 A 
ATOM     31  C   UNL     1       0.757   0.209  -1.117  0.00  0.00    +0.084 A 
ATOM     32 CL   UNL     1      -0.672   0.015  -0.151  0.00  0.00    -0.080 Cl
ATOM     33 CL   UNL     1       2.125   2.760  -3.869  0.00  0.00    -0.083 Cl
ENDBRANCH  25  26
ENDBRANCH   1  25
TORSDOF 11
