REMARK  Name = ZINC12608878
REMARK  5 active torsions:
REMARK  status: ('A' for Active; 'I' for Inactive)
REMARK    1  A    between atoms: C_1  and  C_2
REMARK    2  A    between atoms: C_5  and  N_9
REMARK    3  A    between atoms: C_7  and  C_8
REMARK    4  A    between atoms: C_13  and  C_16
REMARK    5  A    between atoms: N_25  and  C_26
REMARK                            x       y       z     vdW  Elec       q    Type
REMARK                         _______ _______ _______ _____ _____    ______ ____
ROOT
ATOM      1  N   UNL     1       3.263  -1.300   0.358  0.00  0.00    -0.293 N 
ATOM      2  C   UNL     1       2.258  -0.367   0.261  0.00  0.00    +0.180 C 
ATOM      3  N   UNL     1       1.107  -0.691  -0.281  0.00  0.00    -0.127 NA
ATOM      4  N   UNL     1       0.122   0.098  -0.430  0.00  0.00    -0.151 NA
ATOM      5  C   UNL     1       0.150   1.388  -0.445  0.00  0.00    +0.081 C 
ATOM      6  C   UNL     1       1.439   2.161  -0.304  0.00  0.00    +0.135 C 
ATOM      7  S   UNL     1       2.507   1.274   0.865  0.00  0.00    -0.082 S 
ATOM      8  H   UNL     1       4.137  -1.038   0.688  0.00  0.00    +0.154 HD
ENDROOT
BRANCH   5   9
ATOM      9  C   UNL     1      -1.111   2.127  -0.611  0.00  0.00    -0.001 A 
ATOM     10  C   UNL     1      -1.111   3.526  -0.631  0.00  0.00    +0.011 A 
ATOM     11  C   UNL     1      -2.290   4.216  -0.786  0.00  0.00    +0.024 A 
ATOM     12  C   UNL     1      -3.497   3.528  -0.925  0.00  0.00    +0.040 A 
ATOM     13  C   UNL     1      -3.492   2.137  -0.904  0.00  0.00    -0.017 A 
ATOM     14  C   UNL     1      -2.320   1.436  -0.755  0.00  0.00    +0.015 A 
ATOM     15  C   UNL     1      -4.930   1.704  -1.074  0.00  0.00    +0.133 C 
ATOM     16  C   UNL     1      -5.695   3.005  -1.187  0.00  0.00    +0.224 C 
ATOM     17  O   UNL     1      -6.893   3.127  -1.335  0.00  0.00    -0.275 OA
ATOM     18  N   UNL     1      -4.798   4.001  -1.091  0.00  0.00    -0.274 N 
ATOM     19  C   UNL     1      -5.147   5.423  -1.155  0.00  0.00    +0.138 C 
ENDBRANCH   5   9
BRANCH   1  24
ATOM     20  C   UNL     1       2.299  -6.677  -1.166  0.00  0.00    +0.044 C 
ATOM     21  C   UNL     1       2.555  -5.248  -0.761  0.00  0.00    -0.047 A 
ATOM     22  C   UNL     1       1.534  -4.492  -0.215  0.00  0.00    +0.005 A 
ATOM     23  C   UNL     1       1.766  -3.185   0.163  0.00  0.00    +0.023 A 
ATOM     24  C   UNL     1       3.025  -2.625  -0.017  0.00  0.00    +0.033 A 
ATOM     25  C   UNL     1       4.049  -3.387  -0.566  0.00  0.00    +0.027 A 
ATOM     26  C   UNL     1       3.811  -4.696  -0.936  0.00  0.00    -0.046 A 
ATOM     27  C   UNL     1       4.920  -5.524  -1.532  0.00  0.00    +0.044 C 
ENDBRANCH   1  24
TORSDOF 2
