REMARK  Name = ZINC04631202
REMARK  7 active torsions:
REMARK  status: ('A' for Active; 'I' for Inactive)
REMARK    1  A    between atoms: C_1  and  C_2
REMARK    2  A    between atoms: N_7  and  C_8
REMARK    3  A    between atoms: C_8  and  C_10
REMARK    4  A    between atoms: C_8  and  C_19
REMARK    5  A    between atoms: C_14  and  N_16
REMARK    6  A    between atoms: C_25  and  C_30
REMARK    7  A    between atoms: C_28  and  O_29
REMARK                            x       y       z     vdW  Elec       q    Type
REMARK                         _______ _______ _______ _____ _____    ______ ____
ROOT
ATOM      1  C   UNL     1      -0.070   5.347   0.032  0.00  0.00    +0.136 C 
ENDROOT
BRANCH   1   2
ATOM      2  C   UNL     1      -0.261   5.930  -1.344  0.00  0.00    +0.021 A 
ATOM      3  C   UNL     1      -1.480   6.514  -1.679  0.00  0.00    +0.010 A 
ATOM      4  C   UNL     1      -1.683   7.054  -2.913  0.00  0.00    +0.010 A 
ATOM      5  C   UNL     1      -0.653   7.014  -3.868  0.00  0.00    +0.004 A 
ATOM      6  C   UNL     1      -0.827   7.558  -5.155  0.00  0.00    +0.012 A 
ATOM      7  C   UNL     1       0.217   7.483  -6.032  0.00  0.00    +0.023 A 
ATOM      8  C   UNL     1       1.412   6.882  -5.641  0.00  0.00    +0.039 A 
ATOM      9  N   UNL     1       1.569   6.377  -4.441  0.00  0.00    -0.248 NA
ATOM     10  C   UNL     1       0.588   6.418  -3.536  0.00  0.00    +0.113 A 
ATOM     11  C   UNL     1       0.763   5.873  -2.246  0.00  0.00    +0.148 A 
ATOM     12  C   UNL     1       2.553   6.809  -6.623  0.00  0.00    +0.065 C 
BRANCH  11  13
ATOM     13  O   UNL     1       1.944   5.295  -1.904  0.00  0.00    -0.504 OA
ATOM     14  H   UNL     1       1.988   4.348  -2.093  0.00  0.00    +0.292 HD
ENDBRANCH  11  13
ENDBRANCH   1   2
BRANCH   1  21
ATOM     15  C   UNL     1      -2.073   7.476   5.407  0.00  0.00    +0.063 C 
ATOM     16  C   UNL     1      -1.139   6.745   4.477  0.00  0.00    +0.014 A 
ATOM     17  C   UNL     1      -0.011   6.134   4.986  0.00  0.00    +0.021 A 
ATOM     18  C   UNL     1       0.846   5.462   4.125  0.00  0.00    +0.005 A 
ATOM     19  C   UNL     1       0.535   5.429   2.777  0.00  0.00    +0.041 A 
ATOM     20  C   UNL     1      -0.618   6.067   2.333  0.00  0.00    +0.097 A 
ATOM     21  N   UNL     1      -0.943   6.042   0.982  0.00  0.00    -0.320 N 
ATOM     22  H   UNL     1      -1.746   6.486   0.668  0.00  0.00    +0.148 HD
ATOM     23  N   UNL     1      -1.473   6.738   3.159  0.00  0.00    -0.347 N 
ATOM     24  H   UNL     1      -2.315   7.208   2.807  0.00  0.00    +0.167 HD
ENDBRANCH   1  21
BRANCH   1  25
ATOM     25  C   UNL     1      -0.420   3.881   0.009  0.00  0.00    -0.021 A 
ATOM     26  C   UNL     1      -1.744   3.485   0.063  0.00  0.00    +0.006 A 
ATOM     27  C   UNL     1      -2.064   2.141   0.039  0.00  0.00    +0.003 A 
ATOM     28  C   UNL     1      -1.061   1.192  -0.030  0.00  0.00    +0.033 A 
ATOM     29  C   UNL     1       0.262   1.588  -0.084  0.00  0.00    +0.127 A 
ATOM     30  C   UNL     1       0.583   2.933  -0.064  0.00  0.00    +0.038 A 
BRANCH  29  31
ATOM     31  N   UNL     1       1.336   0.572  -0.163  0.00  0.00    +0.056 N 
ATOM     32  O   UNL     1       1.053  -0.612  -0.180  0.00  0.00    -0.126 OA
ATOM     33  O   UNL     1       2.502   0.921  -0.211  0.00  0.00    -0.126 OA
ENDBRANCH  29  31
ENDBRANCH   1  25
TORSDOF 5
