REMARK  Name = ZINC21071936
REMARK  13 active torsions:
REMARK  status: ('A' for Active; 'I' for Inactive)
REMARK    1  A    between atoms: C_1  and  C_2
REMARK    2  A    between atoms: C_2  and  N_3
REMARK    3  A    between atoms: N_3  and  C_4
REMARK    4  A    between atoms: N_3  and  C_6
REMARK    5  A    between atoms: C_4  and  C_5
REMARK    6  A    between atoms: C_6  and  C_8
REMARK    7  A    between atoms: C_6  and  C_28
REMARK    8  A    between atoms: C_8  and  N_9
REMARK    9  A    between atoms: C_10  and  C_12
REMARK   10  A    between atoms: C_12  and  C_13
REMARK   11  A    between atoms: C_13  and  N_14
REMARK   12  A    between atoms: C_32  and  O_34
REMARK   13  A    between atoms: O_34  and  C_35
REMARK                            x       y       z     vdW  Elec       q    Type
REMARK                         _______ _______ _______ _____ _____    ______ ____
ROOT
ATOM      1  N   UNL     1       3.808   4.074  -1.643  0.00  0.00    -0.316 N 
ATOM      2  C   UNL     1       4.022   4.034  -2.973  0.00  0.00    +0.215 C 
ATOM      3  O   UNL     1       3.083   3.947  -3.736  0.00  0.00    -0.276 OA
ATOM      4  H   UNL     1       4.651   4.236  -0.955  0.00  0.00    +0.149 HD
ENDROOT
BRANCH   1   5
ATOM      5  C   UNL     1       2.453   3.904  -1.113  0.00  0.00    +0.093 C 
BRANCH   5   6
ATOM      6  C   UNL     1       2.466   4.116   0.402  0.00  0.00    -0.020 C 
BRANCH   6   7
ATOM      7  C   UNL     1       1.109   3.788   0.967  0.00  0.00    -0.056 A 
ATOM      8  C   UNL     1       0.390   2.719   0.464  0.00  0.00    +0.002 A 
ATOM      9  C   UNL     1      -0.855   2.416   0.981  0.00  0.00    +0.004 A 
ATOM     10  C   UNL     1      -1.388   3.183   1.998  0.00  0.00    +0.045 A 
ATOM     11  C   UNL     1      -0.667   4.253   2.509  0.00  0.00    +0.120 A 
ATOM     12  C   UNL     1       0.583   4.555   1.989  0.00  0.00    +0.047 A 
BRANCH  11  13
ATOM     13  O   UNL     1      -1.187   5.006   3.514  0.00  0.00    -0.495 OA
ATOM     14  C   UNL     1      -2.479   4.637   4.000  0.00  0.00    +0.277 C 
ENDBRANCH  11  13
ENDBRANCH   6   7
BRANCH   6  15
ATOM     15  N   UNL     1       3.475   3.239   1.010  0.00  0.00    +0.385 N 
ATOM     16  H   UNL     1       4.441   3.450   0.529  0.00  0.00    -0.081 HD
BRANCH  15  18
ATOM     17  C   UNL     1       4.320   4.861   2.639  0.00  0.00    -0.017 C 
ATOM     18  C   UNL     1       3.617   3.515   2.446  0.00  0.00    -0.081 C 
ENDBRANCH  15  18
BRANCH  15  19
ATOM     19  C   UNL     1       3.153   1.825   0.776  0.00  0.00    -0.081 C 
ATOM     20  C   UNL     1       3.753   1.380  -0.560  0.00  0.00    -0.017 C 
ENDBRANCH  15  19
ENDBRANCH   6  15
ENDBRANCH   5   6
ENDBRANCH   1   5
BRANCH   2  21
ATOM     21  C   UNL     1       5.428   4.096  -3.512  0.00  0.00    +0.117 C 
BRANCH  21  22
ATOM     22  C   UNL     1       5.386   4.160  -5.040  0.00  0.00    +0.135 C 
BRANCH  22  23
ATOM     23  N   UNL     1       6.753   4.220  -5.564  0.00  0.00    -0.298 N 
ATOM     24  C   UNL     1       7.338   5.430  -5.757  0.00  0.00    +0.203 A 
ATOM     25  N   UNL     1       8.556   5.526  -6.218  0.00  0.00    -0.230 NA
ATOM     26  C   UNL     1       9.259   4.439  -6.524  0.00  0.00    +0.116 A 
ATOM     27  C   UNL     1       8.737   3.146  -6.363  0.00  0.00    +0.076 A 
ATOM     28  C   UNL     1       7.400   3.075  -5.850  0.00  0.00    +0.262 A 
ATOM     29  O   UNL     1       6.860   1.997  -5.674  0.00  0.00    -0.267 OA
ATOM     30  C   UNL     1       9.624   2.046  -6.739  0.00  0.00    -0.023 A 
ATOM     31  C   UNL     1      10.848   2.377  -7.200  0.00  0.00    -0.004 A 
ATOM     32  S   UNL     1      10.890   4.149  -7.161  0.00  0.00    -0.073 S 
ATOM     33  C   UNL     1      11.933   1.445  -7.647  0.00  0.00    +0.043 C 
ATOM     34  C   UNL     1      11.589   0.031  -7.157  0.00  0.00    +0.005 C 
ATOM     35  C   UNL     1      10.126  -0.266  -7.500  0.00  0.00    +0.005 C 
ATOM     36  C   UNL     1       9.204   0.583  -6.623  0.00  0.00    +0.037 C 
ENDBRANCH  22  23
ENDBRANCH  21  22
ENDBRANCH   2  21
TORSDOF 10
