REMARK  Name = ZINC13399460
REMARK  8 active torsions:
REMARK  status: ('A' for Active; 'I' for Inactive)
REMARK    1  A    between atoms: C_1  and  C_2
REMARK    2  A    between atoms: C_2  and  C_4
REMARK    3  A    between atoms: C_2  and  O_30
REMARK    4  A    between atoms: C_4  and  O_29
REMARK    5  A    between atoms: C_12  and  C_28
REMARK    6  A    between atoms: C_14  and  O_27
REMARK    7  A    between atoms: C_18  and  C_26
REMARK    8  A    between atoms: C_23  and  C_25
REMARK                            x       y       z     vdW  Elec       q    Type
REMARK                         _______ _______ _______ _____ _____    ______ ____
ROOT
ATOM      1  C   UNL     1       0.932  -1.339   5.245  0.00  0.00    +0.092 C 
ATOM      2  C   UNL     1       0.126  -1.467   3.935  0.00  0.00    +0.041 C 
ATOM      3  C   UNL     1       1.208  -1.727   2.865  0.00  0.00    +0.001 C 
ATOM      4  C   UNL     1       0.675  -1.472   1.476  0.00  0.00    -0.004 C 
ATOM      5  C   UNL     1       1.560  -2.091   0.397  0.00  0.00    +0.004 C 
ATOM      6  C   UNL     1       0.861  -1.964  -0.957  0.00  0.00    +0.007 C 
ATOM      7  C   UNL     1       0.607  -0.497  -1.300  0.00  0.00    -0.024 C 
ATOM      8  C   UNL     1      -0.162  -0.437  -2.629  0.00  0.00    +0.038 C 
ATOM      9  C   UNL     1      -1.561  -1.023  -2.478  0.00  0.00    +0.115 C 
ATOM     10  C   UNL     1      -2.323  -0.215  -1.424  0.00  0.00    +0.032 C 
ATOM     11  C   UNL     1      -1.589  -0.318  -0.093  0.00  0.00    +0.010 C 
ATOM     12  C   UNL     1      -0.148   0.212  -0.191  0.00  0.00    -0.023 C 
ATOM     13  C   UNL     1       0.469   0.013   1.192  0.00  0.00    -0.001 C 
ATOM     14  C   UNL     1       1.771   0.760   1.428  0.00  0.00    +0.005 C 
ATOM     15  C   UNL     1       2.144   0.625   2.909  0.00  0.00    +0.007 C 
ATOM     16  C   UNL     1       2.379  -0.836   3.291  0.00  0.00    -0.026 C 
ATOM     17  C   UNL     1       2.348  -0.895   4.844  0.00  0.00    +0.044 C 
ATOM     18  C   UNL     1       3.724  -1.351   2.766  0.00  0.00    +0.011 C 
ATOM     19  C   UNL     1      -0.215   1.716  -0.493  0.00  0.00    +0.012 C 
ATOM     20  C   UNL     1       1.951   0.202  -1.568  0.00  0.00    +0.012 C 
ENDROOT
BRANCH   1  22
ATOM     21  C   UNL     1      -1.131  -0.729   6.518  0.00  0.00    +0.040 C 
ATOM     22  C   UNL     1       0.290  -0.291   6.157  0.00  0.00    +0.143 C 
BRANCH  22  23
ATOM     23  O   UNL     1       1.064  -0.159   7.351  0.00  0.00    -0.389 OA
ATOM     24  H   UNL     1       1.139  -0.976   7.864  0.00  0.00    +0.210 HD
ENDBRANCH  22  23
ENDBRANCH   1  22
BRANCH   9  25
ATOM     25  O   UNL     1      -2.254  -0.942  -3.726  0.00  0.00    -0.392 OA
ATOM     26  H   UNL     1      -3.152  -1.299  -3.701  0.00  0.00    +0.210 HD
ENDBRANCH   9  25
BRANCH   1  27
ATOM     27  O   UNL     1       0.982  -2.601   5.916  0.00  0.00    -0.386 OA
ATOM     28  H   UNL     1       0.116  -2.944   6.174  0.00  0.00    +0.210 HD
ENDBRANCH   1  27
TORSDOF 4
