REMARK  Name = ZINC66368628
REMARK  9 active torsions:
REMARK  status: ('A' for Active; 'I' for Inactive)
REMARK    1  A    between atoms: C_1  and  C_2
REMARK    2  A    between atoms: C_2  and  C_3
REMARK    3  A    between atoms: C_3  and  C_5
REMARK    4  A    between atoms: C_3  and  N_8
REMARK    5  A    between atoms: C_5  and  C_6
REMARK    6  A    between atoms: C_5  and  C_7
REMARK    7  A    between atoms: N_14  and  C_17
REMARK    8  A    between atoms: C_20  and  S_23
REMARK    9  A    between atoms: S_23  and  N_26
REMARK                            x       y       z     vdW  Elec       q    Type
REMARK                         _______ _______ _______ _____ _____    ______ ____
ROOT
ATOM      1  N   UNL     1       2.119  -0.075  -1.198  0.00  0.00    -0.296 N 
ATOM      2  C   UNL     1       2.485   1.143  -1.643  0.00  0.00    +0.303 C 
ATOM      3  O   UNL     1       1.664   1.871  -2.168  0.00  0.00    -0.253 OA
ATOM      4  N   UNL     1       3.761   1.555  -1.507  0.00  0.00    -0.283 N 
ATOM      5  C   UNL     1       4.790   0.643  -0.987  0.00  0.00    +0.128 C 
ATOM      6  C   UNL     1       5.938   0.571  -2.002  0.00  0.00    +0.124 C 
ATOM      7  N   UNL     1       6.325   1.940  -2.370  0.00  0.00    -0.327 N 
ATOM      8  C   UNL     1       5.297   2.852  -2.890  0.00  0.00    +0.124 C 
ATOM      9  C   UNL     1       4.149   2.922  -1.881  0.00  0.00    +0.128 C 
ATOM     10  H   UNL     1       2.788  -0.686  -0.852  0.00  0.00    +0.151 HD
ENDROOT
BRANCH   7  11
ATOM     11  C   UNL     1       7.648   2.367  -2.229  0.00  0.00    +0.030 A 
ATOM     12  C   UNL     1       8.634   1.464  -1.851  0.00  0.00    +0.025 A 
ATOM     13  C   UNL     1       9.941   1.889  -1.713  0.00  0.00    +0.030 A 
ATOM     14  C   UNL     1      10.268   3.212  -1.949  0.00  0.00    +0.105 A 
ATOM     15  C   UNL     1       9.289   4.113  -2.326  0.00  0.00    +0.030 A 
ATOM     16  C   UNL     1       7.981   3.693  -2.471  0.00  0.00    +0.025 A 
BRANCH  14  17
ATOM     17  S   UNL     1      11.936   3.751  -1.771  0.00  0.00    +0.056 S 
ATOM     18  O   UNL     1      11.887   5.148  -1.518  0.00  0.00    -0.153 OA
ATOM     19  O   UNL     1      12.564   2.838  -0.881  0.00  0.00    -0.153 OA
BRANCH  17  20
ATOM     20  N   UNL     1      12.672   3.561  -3.242  0.00  0.00    -0.204 NA
ATOM     21  H   UNL     1      12.171   3.207  -3.993  0.00  0.00    +0.144 HD
ATOM     22  H   UNL     1      13.604   3.804  -3.353  0.00  0.00    +0.144 HD
ENDBRANCH  17  20
ENDBRANCH  14  17
ENDBRANCH   7  11
BRANCH   1  23
ATOM     23  C   UNL     1       0.710  -0.477  -1.238  0.00  0.00    +0.077 C 
BRANCH  23  24
ATOM     24  C   UNL     1       0.617  -2.003  -1.292  0.00  0.00    +0.003 C 
ATOM     25  C   UNL     1       1.169  -2.594   0.006  0.00  0.00    +0.009 C 
ATOM     26  C   UNL     1      -0.847  -2.418  -1.459  0.00  0.00    +0.009 C 
ENDBRANCH  23  24
BRANCH  23  28
ATOM     27  C   UNL     1      -0.016   1.564   0.007  0.00  0.00    +0.006 C 
ATOM     28  C   UNL     1      -0.001   0.034   0.017  0.00  0.00    +0.019 C 
ENDBRANCH  23  28
ENDBRANCH   1  23
TORSDOF 6
