REMARK  Name = ZINC09114403
REMARK  7 active torsions:
REMARK  status: ('A' for Active; 'I' for Inactive)
REMARK    1  A    between atoms: C_1  and  C_2
REMARK    2  A    between atoms: C_8  and  C_9
REMARK    3  A    between atoms: C_8  and  N_52
REMARK    4  A    between atoms: C_9  and  C_10
REMARK    5  A    between atoms: C_10  and  N_11
REMARK    6  A    between atoms: N_11  and  C_12
REMARK    7  A    between atoms: C_23  and  C_26
REMARK                            x       y       z     vdW  Elec       q    Type
REMARK                         _______ _______ _______ _____ _____    ______ ____
ROOT
ATOM      1  C   UNL     1       1.183   2.086   0.002  0.00  0.00    +0.071 A 
ATOM      2  C   UNL     1       2.396   1.363  -0.014  0.00  0.00    +0.158 A 
ATOM      3  N   UNL     1       2.386   0.059  -0.021  0.00  0.00    -0.168 NA
ATOM      4  N   UNL     1       1.183  -0.653  -0.013  0.00  0.00    -0.177 N 
ATOM      5  C   UNL     1       0.002  -0.004   0.002  0.00  0.00    +0.293 A 
ATOM      6  O   UNL     1      -1.045  -0.633   0.009  0.00  0.00    -0.264 OA
ATOM      7  C   UNL     1      -0.017   1.398   0.010  0.00  0.00    +0.129 A 
ATOM      8 CL   UNL     1      -1.525   2.259   0.022  0.00  0.00    -0.076 Cl
ATOM      9  C   UNL     1       1.205  -2.049  -0.021  0.00  0.00    +0.158 A 
ATOM     10  C   UNL     1       2.423  -2.719  -0.042  0.00  0.00    +0.049 A 
ATOM     11  C   UNL     1       2.430  -4.103  -0.044  0.00  0.00    +0.017 A 
ATOM     12  C   UNL     1       1.214  -4.771  -0.036  0.00  0.00    +0.073 A 
ATOM     13  C   UNL     1       0.041  -4.042  -0.021  0.00  0.00    +0.125 A 
ATOM     14  N   UNL     1       0.066  -2.723  -0.013  0.00  0.00    -0.235 NA
ENDROOT
BRANCH  12  15
ATOM     15  C   UNL     1       1.173  -6.278  -0.045  0.00  0.00    +0.419 C 
ATOM     16  F   UNL     1      -0.158  -6.708  -0.035  0.00  0.00    -0.166 F 
ATOM     17  F   UNL     1       1.809  -6.755  -1.196  0.00  0.00    -0.166 F 
ATOM     18  F   UNL     1       1.831  -6.769   1.088  0.00  0.00    -0.166 F 
ENDBRANCH  12  15
BRANCH   1  19
ATOM     19  N   UNL     1       1.196   3.470   0.009  0.00  0.00    -0.341 N 
ATOM     20  H   UNL     1       0.360   3.963   0.019  0.00  0.00    +0.146 HD
BRANCH  19  21
ATOM     21  C   UNL     1       2.471   4.192   0.001  0.00  0.00    +0.100 C 
BRANCH  21  22
ATOM     22  C   UNL     1       2.204   5.698   0.011  0.00  0.00    +0.000 C 
BRANCH  22  23
ATOM     23  C   UNL     1       3.536   6.452   0.002  0.00  0.00    -0.077 C 
BRANCH  23  30
ATOM     24  C   UNL     1       3.133   7.807  -2.431  0.00  0.00    -0.013 C 
ATOM     25  C   UNL     1       2.466   8.296  -1.143  0.00  0.00    -0.072 C 
ATOM     26  C   UNL     1       2.342   9.821  -1.181  0.00  0.00    -0.016 C 
ATOM     27  C   UNL     1       1.693  10.308   0.117  0.00  0.00    -0.003 C 
ATOM     28  C   UNL     1       2.534   9.839   1.307  0.00  0.00    -0.019 C 
ATOM     29  C   UNL     1       2.653   8.313   1.272  0.00  0.00    -0.078 C 
ATOM     30  N   UNL     1       3.307   7.911   0.009  0.00  0.00    +0.381 N 
ATOM     31  H   UNL     1       4.212   8.391  -0.064  0.00  0.00    -0.081 HD
ENDBRANCH  23  30
ENDBRANCH  22  23
ENDBRANCH  21  22
ENDBRANCH  19  21
ENDBRANCH   1  19
TORSDOF 6
