REMARK  Name = ZINC34759662
REMARK  10 active torsions:
REMARK  status: ('A' for Active; 'I' for Inactive)
REMARK    1  A    between atoms: C_1  and  C_2
REMARK    2  A    between atoms: C_3  and  C_32
REMARK    3  A    between atoms: C_7  and  N_18
REMARK    4  A    between atoms: C_9  and  S_11
REMARK    5  A    between atoms: S_11  and  C_12
REMARK    6  A    between atoms: C_12  and  C_13
REMARK    7  A    between atoms: N_15  and  C_16
REMARK    8  A    between atoms: N_15  and  C_17
REMARK    9  A    between atoms: N_21  and  C_24
REMARK   10  A    between atoms: C_24  and  C_25
REMARK                            x       y       z     vdW  Elec       q    Type
REMARK                         _______ _______ _______ _____ _____    ______ ____
ROOT
ATOM      1  C   UNL     1       2.883   1.002   2.839  0.00  0.00    +0.045 C 
ATOM      2  C   UNL     1       2.628  -0.457   2.562  0.00  0.00    -0.028 A 
ATOM      3  C   UNL     1       3.650  -1.288   2.311  0.00  0.00    -0.008 A 
ATOM      4  S   UNL     1       2.854  -2.862   2.055  0.00  0.00    -0.073 S 
ATOM      5  C   UNL     1       1.169  -2.362   2.293  0.00  0.00    +0.115 A 
ATOM      6  C   UNL     1       1.273  -0.981   2.571  0.00  0.00    +0.051 A 
ATOM      7  C   UNL     1       0.042  -0.311   2.813  0.00  0.00    +0.134 A 
ATOM      8  N   UNL     1      -1.088  -0.996   2.769  0.00  0.00    -0.206 NA
ATOM      9  C   UNL     1      -1.114  -2.298   2.506  0.00  0.00    +0.191 A 
ATOM     10  N   UNL     1       0.001  -2.973   2.264  0.00  0.00    -0.214 NA
ATOM     11  C   UNL     1       5.122  -0.967   2.257  0.00  0.00    +0.052 C 
ENDROOT
BRANCH   7  12
ATOM     12  N   UNL     1       0.027   1.044   3.091  0.00  0.00    -0.318 N 
ATOM     13  C   UNL     1      -0.219   2.031   2.029  0.00  0.00    +0.088 C 
ATOM     14  C   UNL     1      -1.319   2.988   2.500  0.00  0.00    -0.059 C 
ATOM     15  N   UNL     1      -0.939   3.571   3.793  0.00  0.00    +0.387 N 
ATOM     16  C   UNL     1      -0.867   2.518   4.814  0.00  0.00    -0.059 C 
ATOM     17  C   UNL     1       0.250   1.538   4.458  0.00  0.00    +0.088 C 
ATOM     18  H   UNL     1      -0.039   4.017   3.707  0.00  0.00    -0.081 HD
BRANCH  15  19
ATOM     19  C   UNL     1      -1.941   4.569   4.191  0.00  0.00    +0.019 C 
BRANCH  19  20
ATOM     20  C   UNL     1      -1.491   5.255   5.455  0.00  0.00    +0.199 C 
ATOM     21  O   UNL     1      -0.439   4.943   5.973  0.00  0.00    -0.278 OA
ATOM     22  N   UNL     1      -2.257   6.215   6.010  0.00  0.00    -0.303 N 
ATOM     23  C   UNL     1      -3.550   6.685   5.493  0.00  0.00    +0.108 C 
ATOM     24  C   UNL     1      -4.042   7.804   6.435  0.00  0.00    +0.020 C 
ATOM     25  C   UNL     1      -2.731   8.292   7.108  0.00  0.00    +0.020 C 
ATOM     26  C   UNL     1      -1.939   6.965   7.239  0.00  0.00    +0.108 C 
ENDBRANCH  19  20
ENDBRANCH  15  19
ENDBRANCH   7  12
BRANCH   9  27
ATOM     27  S   UNL     1      -2.661  -3.140   2.466  0.00  0.00    -0.077 S 
BRANCH  27  28
ATOM     28  C   UNL     1      -2.216  -4.856   2.078  0.00  0.00    +0.173 C 
BRANCH  28  29
ATOM     29  C   UNL     1      -3.465  -5.696   2.013  0.00  0.00    +0.225 C 
ATOM     30  O   UNL     1      -4.549  -5.188   2.209  0.00  0.00    -0.275 OA
ATOM     31  N   UNL     1      -3.378  -7.013   1.737  0.00  0.00    -0.307 N 
ATOM     32  C   UNL     1      -4.593  -7.830   1.674  0.00  0.00    +0.131 C 
ATOM     33  C   UNL     1      -2.069  -7.627   1.501  0.00  0.00    +0.131 C 
ENDBRANCH  28  29
ENDBRANCH  27  28
ENDBRANCH   9  27
TORSDOF 6
