REMARK  Name = ZINC20228870
REMARK  7 active torsions:
REMARK  status: ('A' for Active; 'I' for Inactive)
REMARK    1  A    between atoms: C_1  and  O_2
REMARK    2  A    between atoms: O_2  and  C_3
REMARK    3  A    between atoms: C_6  and  O_33
REMARK    4  A    between atoms: C_7  and  C_9
REMARK    5  A    between atoms: C_14  and  C_20
REMARK    6  A    between atoms: C_24  and  N_26
REMARK    7  A    between atoms: O_33  and  C_34
REMARK                            x       y       z     vdW  Elec       q    Type
REMARK                         _______ _______ _______ _____ _____    ______ ____
ROOT
ATOM      1  C   UNL     1      -1.293  -0.775   0.010  0.00  0.00    +0.036 C 
ATOM      2  C   UNL     1      -1.354  -1.664   1.254  0.00  0.00    +0.060 C 
ATOM      3  C   UNL     1      -2.627  -2.473   1.236  0.00  0.00    +0.018 C 
ATOM      4  C   UNL     1      -3.191  -2.849   0.070  0.00  0.00    +0.020 C 
ATOM      5  C   UNL     1      -4.463  -3.664   0.076  0.00  0.00    +0.063 C 
ATOM      6  C   UNL     1      -4.451  -4.615   1.274  0.00  0.00    +0.109 C 
ATOM      7  C   UNL     1      -4.072  -3.845   2.512  0.00  0.00    +0.218 C 
ATOM      8  O   UNL     1      -4.551  -4.148   3.584  0.00  0.00    -0.275 OA
ATOM      9  N   UNL     1      -3.203  -2.822   2.431  0.00  0.00    -0.289 N 
ATOM     10  C   UNL     1      -2.622  -2.497  -1.166  0.00  0.00    +0.162 C 
ATOM     11  O   UNL     1      -3.151  -2.865  -2.195  0.00  0.00    -0.292 OA
ATOM     12  C   UNL     1      -1.367  -1.669  -1.233  0.00  0.00    +0.088 C 
ATOM     13  H   UNL     1      -2.957  -2.261   3.345  0.00  0.00    +0.155 HD
ENDROOT
BRANCH   5  14
ATOM     14  C   UNL     1      -5.650  -2.742   0.179  0.00  0.00    -0.037 A 
ATOM     15  C   UNL     1      -5.786  -1.909   1.274  0.00  0.00    +0.006 A 
ATOM     16  C   UNL     1      -6.872  -1.059   1.367  0.00  0.00    +0.022 A 
ATOM     17  C   UNL     1      -7.829  -1.050   0.368  0.00  0.00    +0.071 A 
ATOM     18  C   UNL     1      -7.696  -1.887  -0.725  0.00  0.00    +0.145 A 
ATOM     19  C   UNL     1      -6.607  -2.733  -0.819  0.00  0.00    +0.038 A 
ATOM     20 CL   UNL     1      -9.197   0.013   0.487  0.00  0.00    -0.081 Cl
BRANCH  18  21
ATOM     21  N   UNL     1      -8.720  -1.878  -1.794  0.00  0.00    +0.058 N 
ATOM     22  O   UNL     1      -8.603  -2.615  -2.756  0.00  0.00    -0.126 OA
ATOM     23  O   UNL     1      -9.680  -1.133  -1.711  0.00  0.00    -0.126 OA
ENDBRANCH  18  21
ENDBRANCH   5  14
BRANCH   1  28
ATOM     24  C   UNL     1       2.399   0.031  -0.021  0.00  0.00    +0.121 A 
ATOM     25  C   UNL     1       2.380   1.418  -0.013  0.00  0.00    +0.049 A 
ATOM     26  C   UNL     1       1.175   2.092   0.002  0.00  0.00    +0.049 A 
ATOM     27  C   UNL     1      -0.017   1.383   0.010  0.00  0.00    +0.124 A 
ATOM     28  C   UNL     1       0.002  -0.004   0.002  0.00  0.00    +0.002 A 
ATOM     29  C   UNL     1       1.208  -0.678  -0.013  0.00  0.00    +0.053 A 
BRANCH  24  31
ATOM     30  C   UNL     1       4.774   0.162  -0.043  0.00  0.00    +0.277 C 
ATOM     31  O   UNL     1       3.586  -0.633  -0.035  0.00  0.00    -0.495 OA
ENDBRANCH  24  31
BRANCH  27  32
ATOM     32  O   UNL     1      -1.204   2.046   0.019  0.00  0.00    -0.495 OA
ATOM     33  C   UNL     1      -1.148   3.474   0.026  0.00  0.00    +0.277 C 
ENDBRANCH  27  32
ENDBRANCH   1  28
TORSDOF 5
