REMARK  Name = ZINC04483473
REMARK  3 active torsions:
REMARK  status: ('A' for Active; 'I' for Inactive)
REMARK    1  A    between atoms: N_14  and  C_15
REMARK    2  A    between atoms: C_22  and  C_30
REMARK    3  A    between atoms: C_23  and  C_25
REMARK                            x       y       z     vdW  Elec       q    Type
REMARK                         _______ _______ _______ _____ _____    ______ ____
ROOT
ATOM      1  C   UNL     1      -5.249  -3.764   3.535  0.00  0.00    +0.037 A 
ATOM      2  C   UNL     1      -4.964  -5.130   3.421  0.00  0.00    +0.025 A 
ATOM      3  C   UNL     1      -5.535  -6.034   4.260  0.00  0.00    +0.032 A 
ATOM      4  C   UNL     1      -6.425  -5.602   5.261  0.00  0.00    +0.090 A 
ATOM      5  C   UNL     1      -6.720  -4.221   5.383  0.00  0.00    +0.092 A 
ATOM      6  C   UNL     1      -6.113  -3.307   4.506  0.00  0.00    +0.053 A 
ATOM      7  N   UNL     1      -7.565  -3.789   6.328  0.00  0.00    -0.242 NA
ATOM      8  C   UNL     1      -8.130  -4.654   7.155  0.00  0.00    +0.105 A 
ATOM      9  C   UNL     1      -7.825  -6.082   7.028  0.00  0.00    +0.105 A 
ATOM     10  N   UNL     1      -6.988  -6.491   6.089  0.00  0.00    -0.242 NA
ENDROOT
BRANCH   1  24
ATOM     11  C   UNL     1       1.700   0.639  -0.925  0.00  0.00    +0.005 A 
ATOM     12  C   UNL     1       2.486  -0.377  -1.454  0.00  0.00    +0.018 A 
ATOM     13  C   UNL     1       1.927  -1.620  -1.673  0.00  0.00    +0.084 A 
ATOM     14  C   UNL     1      -0.121  -0.911  -0.880  0.00  0.00    +0.099 A 
ATOM     15  C   UNL     1       0.376   0.365  -0.634  0.00  0.00    +0.042 A 
ATOM     16  N   UNL     1      -1.450  -1.201  -0.591  0.00  0.00    -0.314 N 
ATOM     17  C   UNL     1      -1.760  -0.903   0.813  0.00  0.00    +0.125 C 
ATOM     18  C   UNL     1      -3.267  -1.062   1.045  0.00  0.00    +0.128 C 
ATOM     19  N   UNL     1      -3.671  -2.400   0.588  0.00  0.00    -0.282 N 
ATOM     20  C   UNL     1      -3.276  -2.824  -0.764  0.00  0.00    +0.128 C 
ATOM     21  C   UNL     1      -1.769  -2.596  -0.924  0.00  0.00    +0.125 C 
ATOM     22  C   UNL     1      -4.385  -3.217   1.388  0.00  0.00    +0.307 C 
ATOM     23  O   UNL     1      -4.792  -4.281   0.962  0.00  0.00    -0.252 OA
ATOM     24  N   UNL     1      -4.648  -2.855   2.659  0.00  0.00    -0.269 N 
ATOM     25  H   UNL     1      -4.420  -1.964   2.966  0.00  0.00    +0.156 HD
ATOM     26  N   UNL     1       0.630  -1.925  -1.399  0.00  0.00    -0.350 N 
ATOM     27  H   UNL     1       0.242  -2.859  -1.572  0.00  0.00    +0.166 HD
ENDBRANCH   1  24
BRANCH   9  28
ATOM     28  C   UNL     1      -8.446  -7.056   7.942  0.00  0.00    +0.040 A 
ATOM     29  C   UNL     1      -8.854  -8.341   7.689  0.00  0.00    +0.018 A 
ATOM     30  C   UNL     1      -9.414  -9.070   8.711  0.00  0.00    +0.008 A 
ATOM     31  C   UNL     1      -9.547  -8.499   9.938  0.00  0.00    +0.046 A 
ATOM     32  S   UNL     1      -8.857  -6.874   9.670  0.00  0.00    -0.095 S 
ENDBRANCH   9  28
BRANCH   8  33
ATOM     33  C   UNL     1      -9.061  -4.185   8.196  0.00  0.00    +0.040 A 
ATOM     34  C   UNL     1      -9.029  -3.022   8.924  0.00  0.00    +0.018 A 
ATOM     35  C   UNL     1     -10.018  -2.796   9.852  0.00  0.00    +0.008 A 
ATOM     36  C   UNL     1     -10.993  -3.728  10.021  0.00  0.00    +0.046 A 
ATOM     37  S   UNL     1     -10.528  -4.978   8.834  0.00  0.00    -0.095 S 
ENDBRANCH   8  33
TORSDOF 3
