REMARK  Name = ZINC61272452
REMARK  11 active torsions:
REMARK  status: ('A' for Active; 'I' for Inactive)
REMARK    1  A    between atoms: C_1  and  C_2
REMARK    2  A    between atoms: C_2  and  N_3
REMARK    3  A    between atoms: N_3  and  C_4
REMARK    4  A    between atoms: C_4  and  C_6
REMARK    5  A    between atoms: C_4  and  C_7
REMARK    6  A    between atoms: C_7  and  C_8
REMARK    7  A    between atoms: N_10  and  C_11
REMARK    8  A    between atoms: N_10  and  C_20
REMARK    9  A    between atoms: C_11  and  C_12
REMARK   10  A    between atoms: C_20  and  C_21
REMARK   11  A    between atoms: C_20  and  C_22
REMARK                            x       y       z     vdW  Elec       q    Type
REMARK                         _______ _______ _______ _____ _____    ______ ____
ROOT
ATOM      1  C   UNL     1       2.314  -2.088   1.910  0.00  0.00    +0.215 C 
ATOM      2  O   UNL     1       2.500  -1.628   0.803  0.00  0.00    -0.276 OA
ATOM      3  N   UNL     1       3.364  -2.363   2.710  0.00  0.00    -0.295 N 
ENDROOT
BRANCH   3   4
ATOM      4  C   UNL     1       3.139  -2.918   4.047  0.00  0.00    +0.070 C 
ATOM      5  C   UNL     1       3.922  -4.225   4.195  0.00  0.00    +0.028 C 
ATOM      6  C   UNL     1       3.615  -1.917   5.102  0.00  0.00    +0.028 C 
ENDBRANCH   3   4
BRANCH   1   7
ATOM      7  C   UNL     1       0.911  -2.352   2.391  0.00  0.00    +0.080 C 
BRANCH   7   8
ATOM      8  C   UNL     1      -0.085  -1.955   1.299  0.00  0.00    -0.066 C 
ATOM      9  C   UNL     1      -1.500  -2.338   1.736  0.00  0.00    -0.013 C 
BRANCH   8  10
ATOM     10  N   UNL     1      -0.016  -0.505   1.077  0.00  0.00    +0.381 N 
ATOM     11  H   UNL     1       0.935  -0.241   0.869  0.00  0.00    -0.086 HD
ATOM     12  H   UNL     1      -0.325  -0.022   1.907  0.00  0.00    -0.086 HD
BRANCH  10  14
ATOM     13  C   UNL     1      -0.812   1.370  -0.283  0.00  0.00    -0.017 C 
ATOM     14  C   UNL     1      -0.884  -0.141  -0.052  0.00  0.00    -0.086 C 
ENDBRANCH  10  14
ENDBRANCH   8  10
ENDBRANCH   7   8
ENDBRANCH   1   7
BRANCH   3  15
ATOM     15  C   UNL     1       4.728  -2.107   2.243  0.00  0.00    +0.143 C 
BRANCH  15  16
ATOM     16  C   UNL     1       5.204  -3.274   1.418  0.00  0.00    -0.029 A 
ATOM     17  C   UNL     1       5.967  -4.268   2.002  0.00  0.00    +0.007 A 
ATOM     18  C   UNL     1       6.405  -5.340   1.246  0.00  0.00    +0.022 A 
ATOM     19  C   UNL     1       6.079  -5.418  -0.096  0.00  0.00    +0.059 A 
ATOM     20  C   UNL     1       5.315  -4.423  -0.681  0.00  0.00    +0.060 A 
ATOM     21  C   UNL     1       4.873  -3.354   0.078  0.00  0.00    +0.026 A 
ATOM     22 CL   UNL     1       4.905  -4.519  -2.365  0.00  0.00    -0.082 Cl
ATOM     23 CL   UNL     1       6.629  -6.763  -1.046  0.00  0.00    -0.082 Cl
ENDBRANCH  15  16
ENDBRANCH   3  15
TORSDOF 7
