REMARK  Name = ZINC58846135
REMARK  10 active torsions:
REMARK  status: ('A' for Active; 'I' for Inactive)
REMARK    1  A    between atoms: C_1  and  C_2
REMARK    2  A    between atoms: C_2  and  C_3
REMARK    3  A    between atoms: C_8  and  N_9
REMARK    4  A    between atoms: N_9  and  S_10
REMARK    5  A    between atoms: S_10  and  C_13
REMARK    6  A    between atoms: C_26  and  C_29
REMARK    7  A    between atoms: C_33  and  O_37
REMARK    8  A    between atoms: C_34  and  O_35
REMARK    9  A    between atoms: O_35  and  C_36
REMARK   10  A    between atoms: O_37  and  C_38
REMARK                            x       y       z     vdW  Elec       q    Type
REMARK                         _______ _______ _______ _____ _____    ______ ____
ROOT
ATOM      1  C   UNL     1       6.493   2.385  -0.100  0.00  0.00    +0.109 A 
ATOM      2  C   UNL     1       6.461   2.326  -1.482  0.00  0.00    +0.030 A 
ATOM      3  C   UNL     1       6.021   3.416  -2.204  0.00  0.00    +0.025 A 
ATOM      4  C   UNL     1       5.609   4.570  -1.546  0.00  0.00    +0.031 A 
ATOM      5  C   UNL     1       5.628   4.626  -0.161  0.00  0.00    -0.018 A 
ATOM      6  C   UNL     1       6.075   3.525   0.555  0.00  0.00    +0.034 A 
ATOM      7  C   UNL     1       5.157   5.831   0.582  0.00  0.00    +0.049 C 
ATOM      8  C   UNL     1       6.302   6.649   1.121  0.00  0.00    -0.023 C 
ATOM      9  C   UNL     1       6.015   7.925   1.060  0.00  0.00    -0.030 C 
ATOM     10  C   UNL     1       4.640   8.142   0.467  0.00  0.00    +0.033 C 
ATOM     11  C   UNL     1       4.335   6.809  -0.255  0.00  0.00    +0.029 C 
ATOM     12  C   UNL     1       4.804   6.929  -1.690  0.00  0.00    +0.109 C 
ATOM     13  N   UNL     1       5.186   5.667  -2.287  0.00  0.00    -0.336 N 
ATOM     14  H   UNL     1       5.168   5.590  -3.254  0.00  0.00    +0.147 HD
ENDROOT
BRANCH  12  15
ATOM     15  C   UNL     1       5.969   7.884  -1.734  0.00  0.00    +0.018 A 
ATOM     16  C   UNL     1       7.204   7.491  -1.253  0.00  0.00    +0.009 A 
ATOM     17  C   UNL     1       8.274   8.364  -1.292  0.00  0.00    +0.004 A 
ATOM     18  C   UNL     1       8.115   9.636  -1.812  0.00  0.00    +0.049 A 
ATOM     19  C   UNL     1       6.880  10.036  -2.295  0.00  0.00    +0.162 A 
ATOM     20  C   UNL     1       5.803   9.154  -2.262  0.00  0.00    +0.166 A 
BRANCH  20  21
ATOM     21  O   UNL     1       4.591   9.541  -2.740  0.00  0.00    -0.491 OA
ATOM     22  C   UNL     1       3.753  10.288  -1.856  0.00  0.00    +0.277 C 
ENDBRANCH  20  21
BRANCH  19  23
ATOM     23  O   UNL     1       6.721  11.286  -2.807  0.00  0.00    -0.491 OA
ATOM     24  C   UNL     1       7.871  12.135  -2.815  0.00  0.00    +0.277 C 
ENDBRANCH  19  23
ENDBRANCH  12  15
BRANCH   1  25
ATOM     25  S   UNL     1       7.063   0.998   0.825  0.00  0.00    +0.072 S 
ATOM     26  O   UNL     1       7.504   1.500   2.079  0.00  0.00    -0.150 OA
ATOM     27  O   UNL     1       7.911   0.254  -0.039  0.00  0.00    -0.150 OA
BRANCH  25  28
ATOM     28  N   UNL     1       5.747   0.042   1.135  0.00  0.00    -0.216 N 
ATOM     29  H   UNL     1       5.474  -0.126   2.050  0.00  0.00    +0.174 HD
BRANCH  28  35
ATOM     30  C   UNL     1       3.651  -0.668   0.171  0.00  0.00    -0.025 A 
ATOM     31  C   UNL     1       2.944  -1.221  -0.879  0.00  0.00    +0.005 A 
ATOM     32  C   UNL     1       3.608  -1.636  -2.019  0.00  0.00    +0.000 A 
ATOM     33  C   UNL     1       4.981  -1.498  -2.112  0.00  0.00    +0.002 A 
ATOM     34  C   UNL     1       5.694  -0.946  -1.067  0.00  0.00    +0.025 A 
ATOM     35  C   UNL     1       5.029  -0.523   0.078  0.00  0.00    +0.051 A 
BRANCH  30  37
ATOM     36  C   UNL     1       2.615   1.278   1.306  0.00  0.00    +0.009 C 
ATOM     37  C   UNL     1       2.927  -0.216   1.413  0.00  0.00    +0.033 C 
ENDBRANCH  30  37
ENDBRANCH  28  35
ENDBRANCH  25  28
ENDBRANCH   1  25
TORSDOF 7
