REMARK  Name = ZINC01047960
REMARK  8 active torsions:
REMARK  status: ('A' for Active; 'I' for Inactive)
REMARK    1  A    between atoms: C_1  and  O_2
REMARK    2  A    between atoms: O_2  and  C_3
REMARK    3  A    between atoms: C_3  and  C_4
REMARK    4  A    between atoms: C_3  and  O_23
REMARK    5  A    between atoms: C_8  and  N_22
REMARK    6  A    between atoms: C_9  and  C_13
REMARK    7  A    between atoms: C_13  and  C_15
REMARK    8  A    between atoms: O_23  and  C_24
REMARK                            x       y       z     vdW  Elec       q    Type
REMARK                         _______ _______ _______ _____ _____    ______ ____
ROOT
ATOM      1  C   UNL     1      -0.070   2.277   1.699  0.00  0.00    +0.098 A 
ATOM      2  C   UNL     1       0.373   3.547   2.038  0.00  0.00    +0.029 A 
ATOM      3  C   UNL     1       0.031   4.103   3.248  0.00  0.00    +0.014 A 
ATOM      4  C   UNL     1      -0.779   3.359   4.142  0.00  0.00    +0.029 A 
ATOM      5  C   UNL     1      -1.262   3.739   5.460  0.00  0.00    +0.052 A 
ATOM      6  C   UNL     1      -2.047   2.838   6.153  0.00  0.00    +0.083 A 
ATOM      7  S   UNL     1      -2.159   1.449   5.043  0.00  0.00    -0.064 S 
ATOM      8  C   UNL     1      -1.178   2.076   3.702  0.00  0.00    +0.111 A 
ATOM      9  N   UNL     1      -0.829   1.590   2.531  0.00  0.00    -0.239 NA
ENDROOT
BRANCH   5  10
ATOM     10  N   UNL     1      -0.941   4.971   6.007  0.00  0.00    -0.356 N 
ATOM     11  H   UNL     1      -0.388   5.593   5.509  0.00  0.00    +0.142 HD
ATOM     12  H   UNL     1      -1.270   5.211   6.887  0.00  0.00    +0.142 HD
ENDBRANCH   5  10
BRANCH   6  13
ATOM     13  C   UNL     1      -2.624   2.984   7.437  0.00  0.00    +0.202 C 
ATOM     14  O   UNL     1      -2.344   3.950   8.124  0.00  0.00    -0.286 OA
BRANCH  13  15
ATOM     15  C   UNL     1      -3.567   1.964   7.944  0.00  0.00    +0.023 A 
ATOM     16  C   UNL     1      -3.670   1.724   9.315  0.00  0.00    +0.013 A 
ATOM     17  C   UNL     1      -4.555   0.776   9.783  0.00  0.00    +0.021 A 
ATOM     18  C   UNL     1      -5.333   0.053   8.893  0.00  0.00    +0.041 A 
ATOM     19  C   UNL     1      -5.231   0.281   7.531  0.00  0.00    +0.021 A 
ATOM     20  C   UNL     1      -4.354   1.232   7.052  0.00  0.00    +0.013 A 
ATOM     21 CL   UNL     1      -6.440  -1.145   9.489  0.00  0.00    -0.084 Cl
ENDBRANCH  13  15
ENDBRANCH   6  13
BRANCH   1  22
ATOM     22  C   UNL     1       0.312   1.681   0.369  0.00  0.00    +0.300 C 
BRANCH  22  24
ATOM     23  C   UNL     1       0.301  -0.433  -0.760  0.00  0.00    +0.197 C 
ATOM     24  O   UNL     1       0.386   0.259   0.487  0.00  0.00    -0.349 OA
ENDBRANCH  22  24
BRANCH  22  25
ATOM     25  O   UNL     1       1.584   2.193  -0.034  0.00  0.00    -0.349 OA
ATOM     26  C   UNL     1       1.875   2.001  -1.420  0.00  0.00    +0.197 C 
ENDBRANCH  22  25
ENDBRANCH   1  22
TORSDOF 6
