REMARK  Name = ZINC09809559
REMARK  10 active torsions:
REMARK  status: ('A' for Active; 'I' for Inactive)
REMARK    1  A    between atoms: C_1  and  C_2
REMARK    2  A    between atoms: C_2  and  O_3
REMARK    3  A    between atoms: O_3  and  C_4
REMARK    4  A    between atoms: C_4  and  C_6
REMARK    5  A    between atoms: C_6  and  N_7
REMARK    6  A    between atoms: C_11  and  S_32
REMARK    7  A    between atoms: N_16  and  C_17
REMARK    8  A    between atoms: C_17  and  C_19
REMARK    9  A    between atoms: C_22  and  N_25
REMARK   10  A    between atoms: S_32  and  N_35
REMARK                            x       y       z     vdW  Elec       q    Type
REMARK                         _______ _______ _______ _____ _____    ______ ____
ROOT
ATOM      1  N   UNL     1      -5.852   3.079   0.042  0.00  0.00    -0.310 N 
ATOM      2  C   UNL     1      -6.829   3.960   0.468  0.00  0.00    +0.058 A 
ATOM      3  C   UNL     1      -8.202   3.721   0.638  0.00  0.00    +0.029 A 
ATOM      4  C   UNL     1      -9.040   4.721   1.073  0.00  0.00    +0.030 A 
ATOM      5  C   UNL     1      -8.559   5.988   1.357  0.00  0.00    +0.106 A 
ATOM      6  C   UNL     1      -7.210   6.250   1.198  0.00  0.00    +0.045 A 
ATOM      7  C   UNL     1      -6.371   5.252   0.763  0.00  0.00    +0.041 A 
ATOM      8  S   UNL     1      -4.629   5.151   0.438  0.00  0.00    -0.052 S 
ATOM      9  C   UNL     1      -4.560   3.492  -0.063  0.00  0.00    +0.167 A 
ATOM     10  N   UNL     1      -3.500   2.792  -0.450  0.00  0.00    -0.152 NA
ENDROOT
BRANCH   5  11
ATOM     11  S   UNL     1      -9.653   7.252   1.914  0.00  0.00    +0.056 S 
ATOM     12  O   UNL     1     -10.769   6.594   2.499  0.00  0.00    -0.153 OA
ATOM     13  O   UNL     1      -8.861   8.189   2.630  0.00  0.00    -0.153 OA
BRANCH  11  14
ATOM     14  N   UNL     1     -10.218   8.038   0.571  0.00  0.00    -0.204 NA
ATOM     15  H   UNL     1     -11.102   8.439   0.579  0.00  0.00    +0.144 HD
ATOM     16  H   UNL     1      -9.666   8.098  -0.224  0.00  0.00    +0.144 HD
ENDBRANCH  11  14
ENDBRANCH   5  11
BRANCH  10  17
ATOM     17  C   UNL     1      -2.295   3.371  -0.492  0.00  0.00    +0.269 C 
ATOM     18  O   UNL     1      -2.170   4.541  -0.174  0.00  0.00    -0.268 OA
BRANCH  17  19
ATOM     19  C   UNL     1      -1.114   2.591  -0.923  0.00  0.00    +0.039 A 
ATOM     20  C   UNL     1      -1.257   1.252  -1.291  0.00  0.00    +0.015 A 
ATOM     21  C   UNL     1      -0.154   0.526  -1.687  0.00  0.00    +0.025 A 
ATOM     22  C   UNL     1       1.098   1.129  -1.729  0.00  0.00    +0.044 A 
ATOM     23  C   UNL     1       1.242   2.464  -1.368  0.00  0.00    +0.025 A 
ATOM     24  C   UNL     1       0.144   3.193  -0.967  0.00  0.00    +0.015 A 
BRANCH  22  25
ATOM     25  N   UNL     1       2.214   0.392  -2.136  0.00  0.00    -0.210 N 
ATOM     26  C   UNL     1       2.745  -0.587  -1.394  0.00  0.00    +0.227 C 
ATOM     27  O   UNL     1       2.339  -0.946  -0.310  0.00  0.00    -0.275 OA
ATOM     28  C   UNL     1       3.932  -1.178  -2.124  0.00  0.00    +0.106 C 
ATOM     29  C   UNL     1       4.001  -0.354  -3.427  0.00  0.00    +0.106 C 
ATOM     30  C   UNL     1       2.843   0.611  -3.298  0.00  0.00    +0.227 C 
ATOM     31  O   UNL     1       2.534   1.450  -4.117  0.00  0.00    -0.275 OA
ENDBRANCH  22  25
ENDBRANCH  17  19
ENDBRANCH  10  17
BRANCH   1  32
ATOM     32  C   UNL     1      -6.208   1.699  -0.296  0.00  0.00    +0.244 C 
BRANCH  32  33
ATOM     33  C   UNL     1      -5.428   1.262  -1.509  0.00  0.00    +0.327 C 
ATOM     34  O   UNL     1      -4.757   2.062  -2.117  0.00  0.00    -0.249 OA
BRANCH  33  35
ATOM     35  O   UNL     1      -5.478  -0.017  -1.915  0.00  0.00    -0.464 OA
BRANCH  35  37
ATOM     36  C   UNL     1      -4.882  -1.855  -3.397  0.00  0.00    +0.048 C 
ATOM     37  C   UNL     1      -4.701  -0.367  -3.090  0.00  0.00    +0.229 C 
ENDBRANCH  35  37
ENDBRANCH  33  35
ENDBRANCH  32  33
ENDBRANCH   1  32
TORSDOF 9
