REMARK  Name = ZINC65491109
REMARK  8 active torsions:
REMARK  status: ('A' for Active; 'I' for Inactive)
REMARK    1  A    between atoms: C_1  and  C_2
REMARK    2  A    between atoms: C_7  and  C_13
REMARK    3  A    between atoms: C_11  and  C_12
REMARK    4  A    between atoms: C_13  and  N_14
REMARK    5  A    between atoms: N_14  and  C_15
REMARK    6  A    between atoms: C_15  and  C_16
REMARK    7  A    between atoms: C_17  and  C_24
REMARK    8  A    between atoms: C_19  and  C_22
REMARK                            x       y       z     vdW  Elec       q    Type
REMARK                         _______ _______ _______ _____ _____    ______ ____
ROOT
ATOM      1  C   UNL     1      -1.502  -5.508   2.686  0.00  0.00    +0.128 C 
ENDROOT
BRANCH   1   8
ATOM      2  C   UNL     1       0.342   1.169   1.651  0.00  0.00    +0.044 C 
ATOM      3  C   UNL     1       0.288  -0.329   1.497  0.00  0.00    -0.045 A 
ATOM      4  C   UNL     1       0.497  -0.885   0.223  0.00  0.00    +0.006 A 
ATOM      5  C   UNL     1       0.466  -2.213  -0.005  0.00  0.00    +0.027 A 
ATOM      6  C   UNL     1       0.205  -3.134   1.110  0.00  0.00    +0.060 A 
ATOM      7  N   UNL     1       0.118  -4.430   1.185  0.00  0.00    -0.362 N 
ATOM      8  C   UNL     1      -0.164  -4.772   2.585  0.00  0.00    +0.188 C 
ATOM      9  N   UNL     1      -0.231  -3.501   3.317  0.00  0.00    -0.362 N 
ATOM     10  C   UNL     1      -0.016  -2.545   2.459  0.00  0.00    +0.063 A 
ATOM     11  C   UNL     1       0.047  -1.083   2.588  0.00  0.00    -0.023 A 
ATOM     12  C   UNL     1      -0.164  -0.430   3.930  0.00  0.00    +0.046 C 
ATOM     13  H   UNL     1      -0.403  -3.393   4.265  0.00  0.00    +0.162 HD
ATOM     14  H   UNL     1       0.221  -5.056   0.451  0.00  0.00    +0.162 HD
ENDBRANCH   1   8
BRANCH   1  15
ATOM     15  N   UNL     1      -2.570  -4.659   2.142  0.00  0.00    -0.307 NA
ATOM     16  H   UNL     1      -2.596  -3.766   2.611  0.00  0.00    +0.122 HD
BRANCH  15  17
ATOM     17  C   UNL     1      -3.872  -5.335   2.223  0.00  0.00    +0.135 C 
BRANCH  17  18
ATOM     18  C   UNL     1      -4.941  -4.435   1.657  0.00  0.00    +0.037 A 
ATOM     19  C   UNL     1      -5.585  -4.793   0.525  0.00  0.00    +0.017 A 
ATOM     20  C   UNL     1      -6.587  -3.943   0.001  0.00  0.00    +0.188 A 
ATOM     21  C   UNL     1      -6.881  -2.740   0.686  0.00  0.00    +0.012 A 
ATOM     22  C   UNL     1      -6.201  -2.439   1.814  0.00  0.00    +0.089 A 
ATOM     23  N   UNL     1      -5.250  -3.278   2.293  0.00  0.00    -0.363 N 
ATOM     24  C   UNL     1      -7.941  -1.805   0.163  0.00  0.00    +0.049 C 
ATOM     25  O   UNL     1      -7.186  -4.240  -1.022  0.00  0.00    -0.287 OA
ATOM     26  C   UNL     1      -5.239  -6.083  -0.173  0.00  0.00    +0.049 C 
ATOM     27  H   UNL     1      -4.777  -3.044   3.107  0.00  0.00    +0.165 HD
ENDBRANCH  17  18
ENDBRANCH  15  17
ENDBRANCH   1  15
TORSDOF 4
