REMARK  Name = ZINC00545507
REMARK  7 active torsions:
REMARK  status: ('A' for Active; 'I' for Inactive)
REMARK    1  A    between atoms: C_1  and  C_2
REMARK    2  A    between atoms: C_4  and  C_26
REMARK    3  A    between atoms: C_5  and  N_9
REMARK    4  A    between atoms: C_6  and  C_8
REMARK    5  A    between atoms: C_10  and  C_12
REMARK    6  A    between atoms: C_12  and  C_24
REMARK    7  A    between atoms: C_13  and  C_14
REMARK                            x       y       z     vdW  Elec       q    Type
REMARK                         _______ _______ _______ _____ _____    ______ ____
ROOT
ATOM      1  C   UNL     1      -1.032   2.259  -0.946  0.00  0.00    +0.114 C 
ATOM      2  C   UNL     1      -2.178   1.637  -1.411  0.00  0.00    +0.034 C 
ENDROOT
BRANCH   2   3
ATOM      3  C   UNL     1      -3.397   2.348  -1.461  0.00  0.00    +0.001 A 
ATOM      4  C   UNL     1      -3.562   3.719  -1.400  0.00  0.00    +0.091 A 
ATOM      5  N   UNL     1      -4.873   4.020  -1.480  0.00  0.00    -0.360 N 
ATOM      6  H   UNL     1      -5.234   4.920  -1.458  0.00  0.00    +0.165 HD
ATOM      7  C   UNL     1      -5.631   2.872  -1.596  0.00  0.00    +0.047 A 
ATOM      8  C   UNL     1      -4.753   1.777  -1.597  0.00  0.00    +0.007 A 
ATOM      9  C   UNL     1      -5.249   0.482  -1.709  0.00  0.00    +0.010 A 
ATOM     10  C   UNL     1      -6.607   0.280  -1.824  0.00  0.00    +0.001 A 
ATOM     11  C   UNL     1      -7.478   1.359  -1.827  0.00  0.00    +0.002 A 
ATOM     12  C   UNL     1      -7.000   2.647  -1.708  0.00  0.00    +0.026 A 
ENDBRANCH   2   3
BRANCH   1  14
ATOM     13  N   UNL     1       1.377   2.176  -0.575  0.00  0.00    -0.280 N 
ATOM     14  C   UNL     1       0.261   1.568  -1.023  0.00  0.00    +0.259 C 
ATOM     15  O   UNL     1       0.326   0.449  -1.496  0.00  0.00    -0.269 OA
ATOM     16  H   UNL     1       1.337   3.093  -0.261  0.00  0.00    +0.155 HD
BRANCH  13  21
ATOM     17  C   UNL     1       6.309  -0.626  -0.526  0.00  0.00    +0.044 C 
ATOM     18  C   UNL     1       4.998   0.118  -0.539  0.00  0.00    -0.050 A 
ATOM     19  C   UNL     1       3.878  -0.447   0.042  0.00  0.00    +0.008 A 
ATOM     20  C   UNL     1       2.676   0.233   0.032  0.00  0.00    -0.029 A 
ATOM     21  C   UNL     1       2.593   1.485  -0.563  0.00  0.00    +0.040 A 
ATOM     22  C   UNL     1       3.719   2.047  -1.151  0.00  0.00    -0.029 A 
ATOM     23  C   UNL     1       4.919   1.365  -1.132  0.00  0.00    +0.008 A 
ATOM     24  C   UNL     1       3.632   3.403  -1.803  0.00  0.00    +0.045 C 
ATOM     25  C   UNL     1       1.455  -0.383   0.666  0.00  0.00    +0.045 C 
ENDBRANCH  13  21
ENDBRANCH   1  14
BRANCH   1  26
ATOM     26  C   UNL     1      -1.109   3.576  -0.389  0.00  0.00    +0.104 C 
ATOM     27  N   UNL     1      -1.169   4.620   0.053  0.00  0.00    -0.191 NA
ENDBRANCH   1  26
TORSDOF 4
