REMARK  Name = ZINC62497534
REMARK  7 active torsions:
REMARK  status: ('A' for Active; 'I' for Inactive)
REMARK    1  A    between atoms: C_1  and  C_2
REMARK    2  A    between atoms: C_6  and  C_9
REMARK    3  A    between atoms: C_7  and  C_8
REMARK    4  A    between atoms: C_9  and  C_10
REMARK    5  A    between atoms: N_14  and  C_23
REMARK    6  A    between atoms: C_17  and  N_22
REMARK    7  A    between atoms: C_23  and  C_24
REMARK                            x       y       z     vdW  Elec       q    Type
REMARK                         _______ _______ _______ _____ _____    ______ ____
ROOT
ATOM      1  C   UNL     1      -1.379  -3.012   2.999  0.00  0.00    +0.263 C 
ATOM      2  C   UNL     1      -1.353  -3.662   4.360  0.00  0.00    +0.262 C 
ATOM      3  O   UNL     1      -1.346  -2.978   5.362  0.00  0.00    -0.271 OA
ATOM      4  N   UNL     1      -1.339  -5.008   4.458  0.00  0.00    -0.253 N 
ATOM      5  C   UNL     1      -1.475  -5.780   3.297  0.00  0.00    +0.081 A 
ATOM      6  C   UNL     1      -1.238  -7.145   3.329  0.00  0.00    +0.050 A 
ATOM      7  C   UNL     1      -1.365  -7.895   2.167  0.00  0.00    +0.027 A 
ATOM      8  C   UNL     1      -1.726  -7.277   0.977  0.00  0.00    +0.026 A 
ATOM      9  C   UNL     1      -1.968  -5.916   0.947  0.00  0.00    +0.049 A 
ATOM     10  C   UNL     1      -1.849  -5.166   2.104  0.00  0.00    +0.143 A 
ATOM     11  O   UNL     1      -2.115  -3.832   2.090  0.00  0.00    -0.477 OA
ENDROOT
BRANCH   7  12
ATOM     12  N   UNL     1      -1.127  -9.273   2.195  0.00  0.00    -0.358 N 
ATOM     13  H   UNL     1      -0.874  -9.705   3.026  0.00  0.00    +0.142 HD
ATOM     14  H   UNL     1      -1.215  -9.797   1.384  0.00  0.00    +0.142 HD
ENDBRANCH   7  12
BRANCH   1  15
ATOM     15  C   UNL     1       0.054  -2.845   2.489  0.00  0.00    +0.089 C 
BRANCH  15  21
ATOM     16  C   UNL     1      -0.018   1.503   0.010  0.00  0.00    +0.044 C 
ATOM     17  C   UNL     1       0.002  -0.004   0.002  0.00  0.00    -0.047 A 
ATOM     18  C   UNL     1       0.006  -0.689  -1.199  0.00  0.00    +0.003 A 
ATOM     19  C   UNL     1       0.025  -2.071  -1.207  0.00  0.00    +0.001 A 
ATOM     20  C   UNL     1       0.040  -2.768  -0.013  0.00  0.00    +0.004 A 
ATOM     21  C   UNL     1       0.037  -2.084   1.188  0.00  0.00    -0.040 A 
ATOM     22  C   UNL     1       0.023  -0.702   1.195  0.00  0.00    -0.044 A 
ATOM     23  C   UNL     1       0.025   0.045   2.504  0.00  0.00    +0.044 C 
ENDBRANCH  15  21
ENDBRANCH   1  15
BRANCH   4  24
ATOM     24  C   UNL     1      -1.182  -5.653   5.764  0.00  0.00    +0.202 C 
BRANCH  24  25
ATOM     25  C   UNL     1      -2.508  -5.872   6.365  0.00  0.00    -0.086 C 
ATOM     26  C   UNL     1      -3.565  -6.047   6.845  0.00  0.00    +0.005 C 
ENDBRANCH  24  25
ENDBRANCH   4  24
TORSDOF 5
