REMARK  Name = ZINC11514879
REMARK  5 active torsions:
REMARK  status: ('A' for Active; 'I' for Inactive)
REMARK    1  A    between atoms: C_1  and  C_2
REMARK    2  A    between atoms: C_5  and  C_7
REMARK    3  A    between atoms: C_13  and  C_15
REMARK    4  A    between atoms: C_15  and  N_16
REMARK    5  A    between atoms: C_17  and  C_19
REMARK                            x       y       z     vdW  Elec       q    Type
REMARK                         _______ _______ _______ _____ _____    ______ ____
ROOT
ATOM      1  C   UNL     1      -3.510   1.964   0.030  0.00  0.00    +0.087 A 
ATOM      2  C   UNL     1      -3.319   3.319   0.036  0.00  0.00    +0.077 A 
ATOM      3  S   UNL     1      -1.533   3.404   0.027  0.00  0.00    -0.060 S 
ATOM      4  C   UNL     1      -1.224   1.644   0.017  0.00  0.00    +0.165 A 
ATOM      5  N   UNL     1      -2.451   1.159   0.015  0.00  0.00    -0.224 NA
ATOM      6  N   UNL     1      -0.011   0.966   0.007  0.00  0.00    -0.263 N 
ATOM      7  C   UNL     1       1.147   1.655   0.000  0.00  0.00    +0.236 C 
ATOM      8  O   UNL     1       1.130   2.868   0.007  0.00  0.00    -0.274 OA
ATOM      9  H   UNL     1       0.002  -0.004   0.002  0.00  0.00    +0.157 HD
ENDROOT
BRANCH   1  14
ATOM     10  C   UNL     1      -9.019   0.766   0.047  0.00  0.00    +0.051 C 
ATOM     11  C   UNL     1      -7.513   0.824   0.041  0.00  0.00    -0.013 A 
ATOM     12  C   UNL     1      -6.620  -0.197   0.033  0.00  0.00    +0.011 A 
ATOM     13  C   UNL     1      -5.271   0.090   0.023  0.00  0.00    +0.018 A 
ATOM     14  C   UNL     1      -4.878   1.401   0.033  0.00  0.00    +0.038 A 
ATOM     15  S   UNL     1      -6.446   2.255   0.044  0.00  0.00    -0.092 S 
ENDBRANCH   1  14
BRANCH   7  16
ATOM     16  C   UNL     1       2.462   0.920  -0.017  0.00  0.00    +0.200 C 
BRANCH  16  17
ATOM     17  N   UNL     1       3.562   1.887  -0.022  0.00  0.00    -0.303 N 
ATOM     18  C   UNL     1       4.839   1.455  -0.036  0.00  0.00    +0.247 C 
ATOM     19  O   UNL     1       5.077   0.263  -0.045  0.00  0.00    -0.270 OA
ATOM     20  H   UNL     1       3.372   2.838  -0.015  0.00  0.00    +0.150 HD
BRANCH  18  21
ATOM     21  C   UNL     1       5.948   2.430  -0.042  0.00  0.00    +0.072 A 
ATOM     22  C   UNL     1       5.679   3.800  -0.037  0.00  0.00    +0.016 A 
ATOM     23  C   UNL     1       6.719   4.705  -0.037  0.00  0.00    +0.001 A 
ATOM     24  C   UNL     1       8.030   4.260  -0.052  0.00  0.00    +0.003 A 
ATOM     25  C   UNL     1       8.307   2.906  -0.062  0.00  0.00    +0.039 A 
ATOM     26  C   UNL     1       7.274   1.986  -0.057  0.00  0.00    +0.135 A 
ATOM     27  F   UNL     1       7.545   0.662  -0.067  0.00  0.00    -0.205 F 
ENDBRANCH  18  21
ENDBRANCH  16  17
ENDBRANCH   7  16
TORSDOF 4
