REMARK  Name = ZINC39520975
REMARK  7 active torsions:
REMARK  status: ('A' for Active; 'I' for Inactive)
REMARK    1  A    between atoms: C_1  and  C_2
REMARK    2  A    between atoms: C_2  and  O_3
REMARK    3  A    between atoms: O_3  and  C_4
REMARK    4  A    between atoms: N_10  and  C_11
REMARK    5  A    between atoms: C_11  and  C_12
REMARK    6  A    between atoms: C_21  and  C_24
REMARK    7  A    between atoms: C_29  and  O_30
REMARK                            x       y       z     vdW  Elec       q    Type
REMARK                         _______ _______ _______ _____ _____    ______ ____
ROOT
ATOM      1  C   UNL     1       0.374  -2.179  -2.505  0.00  0.00    +0.067 C 
ATOM      2  C   UNL     1       0.700  -2.513  -3.963  0.00  0.00    +0.012 C 
ATOM      3  C   UNL     1       0.525  -4.017  -4.187  0.00  0.00    -0.001 C 
ATOM      4  C   UNL     1      -0.904  -4.417  -3.806  0.00  0.00    -0.012 C 
ATOM      5  C   UNL     1      -1.171  -4.013  -2.355  0.00  0.00    -0.061 C 
ATOM      6  N   UNL     1      -1.012  -2.560  -2.212  0.00  0.00    +0.403 N 
ATOM      7  C   UNL     1      -2.599  -4.409  -1.972  0.00  0.00    -0.012 C 
ATOM      8  C   UNL     1      -2.766  -5.922  -2.122  0.00  0.00    -0.001 C 
ATOM      9  C   UNL     1      -1.775  -6.638  -1.203  0.00  0.00    +0.008 C 
ATOM     10  C   UNL     1      -0.348  -6.242  -1.585  0.00  0.00    +0.021 C 
ATOM     11  C   UNL     1      -0.180  -4.729  -1.435  0.00  0.00    -0.004 C 
ATOM     12  H   UNL     1      -1.633  -2.090  -2.853  0.00  0.00    -0.077 HD
ENDROOT
BRANCH  10  13
ATOM     13  C   UNL     1       0.629  -6.948  -0.680  0.00  0.00    -0.003 A 
ATOM     14  C   UNL     1       0.576  -6.745   0.686  0.00  0.00    +0.007 A 
ATOM     15  C   UNL     1       1.472  -7.392   1.517  0.00  0.00    +0.001 A 
ATOM     16  C   UNL     1       2.423  -8.243   0.984  0.00  0.00    +0.004 A 
ATOM     17  C   UNL     1       2.479  -8.449  -0.381  0.00  0.00    +0.046 A 
ATOM     18  C   UNL     1       1.578  -7.806  -1.216  0.00  0.00    +0.120 A 
BRANCH  18  19
ATOM     19  O   UNL     1       1.628  -8.011  -2.559  0.00  0.00    -0.506 OA
ATOM     20  H   UNL     1       2.206  -7.396  -3.030  0.00  0.00    +0.292 HD
ENDBRANCH  18  19
ENDBRANCH  10  13
BRANCH   1  21
ATOM     21  O   UNL     1       0.538  -0.776  -2.291  0.00  0.00    -0.395 OA
BRANCH  21  23
ATOM     22  C   UNL     1       0.310   1.504  -3.059  0.00  0.00    +0.034 C 
ATOM     23  C   UNL     1      -0.067   0.041  -3.295  0.00  0.00    +0.154 C 
ENDBRANCH  21  23
ENDBRANCH   1  21
BRANCH   6  24
ATOM     24  C   UNL     1      -1.345  -2.167  -0.836  0.00  0.00    -0.039 C 
BRANCH  24  25
ATOM     25  C   UNL     1      -1.525  -0.672  -0.771  0.00  0.00    -0.064 A 
ATOM     26  C   UNL     1      -0.728   0.084   0.070  0.00  0.00    +0.002 A 
ATOM     27  C   UNL     1      -0.893   1.455   0.130  0.00  0.00    +0.000 A 
ATOM     28  C   UNL     1      -1.853   2.071  -0.651  0.00  0.00    +0.000 A 
ATOM     29  C   UNL     1      -2.648   1.316  -1.492  0.00  0.00    +0.000 A 
ATOM     30  C   UNL     1      -2.481  -0.055  -1.555  0.00  0.00    +0.002 A 
ENDBRANCH  24  25
ENDBRANCH   6  24
TORSDOF 6
