REMARK  Name = ZINC39608264
REMARK  8 active torsions:
REMARK  status: ('A' for Active; 'I' for Inactive)
REMARK    1  A    between atoms: C_1  and  C_2
REMARK    2  A    between atoms: C_2  and  C_4
REMARK    3  A    between atoms: C_2  and  N_7
REMARK    4  A    between atoms: C_4  and  C_5
REMARK    5  A    between atoms: C_4  and  C_6
REMARK    6  A    between atoms: C_8  and  C_10
REMARK    7  A    between atoms: C_21  and  C_23
REMARK    8  A    between atoms: C_26  and  C_28
REMARK                            x       y       z     vdW  Elec       q    Type
REMARK                         _______ _______ _______ _____ _____    ______ ____
ROOT
ATOM      1  C   UNL     1      -3.442  -1.177   1.191  0.00  0.00    +0.100 C 
ATOM      2  C   UNL     1      -4.400  -0.149   0.548  0.00  0.00    +0.121 C 
ATOM      3  N   UNL     1      -5.639  -0.235   1.355  0.00  0.00    -0.294 N 
ATOM      4  C   UNL     1      -5.161  -0.393   2.749  0.00  0.00    +0.115 C 
ATOM      5  C   UNL     1      -3.945  -1.333   2.637  0.00  0.00    -0.004 C 
ATOM      6  C   UNL     1      -2.859  -0.911   3.622  0.00  0.00    -0.010 C 
ATOM      7  C   UNL     1      -3.360  -1.131   5.052  0.00  0.00    -0.082 C 
ATOM      8  N   UNL     1      -3.699  -2.546   5.242  0.00  0.00    +0.379 N 
ATOM      9  C   UNL     1      -4.807  -2.920   4.356  0.00  0.00    -0.082 C 
ATOM     10  C   UNL     1      -4.367  -2.776   2.896  0.00  0.00    -0.010 C 
ATOM     11  C   UNL     1      -6.914  -0.183   0.920  0.00  0.00    +0.282 C 
ATOM     12  O   UNL     1      -7.832  -0.268   1.715  0.00  0.00    -0.267 OA
ATOM     13  H   UNL     1      -2.893  -3.115   5.029  0.00  0.00    -0.086 HD
ATOM     14  H   UNL     1      -3.970  -2.700   6.202  0.00  0.00    -0.086 HD
ENDROOT
BRANCH  11  15
ATOM     15  C   UNL     1      -7.194  -0.023  -0.509  0.00  0.00    +0.190 A 
ATOM     16  C   UNL     1      -8.444   0.051  -1.085  0.00  0.00    +0.055 A 
ATOM     17  C   UNL     1      -8.246   0.201  -2.461  0.00  0.00    +0.051 A 
ATOM     18  C   UNL     1      -6.897   0.213  -2.673  0.00  0.00    +0.139 A 
ATOM     19  O   UNL     1      -6.274   0.083  -1.490  0.00  0.00    -0.450 OA
BRANCH  18  20
ATOM     20  C   UNL     1      -6.233   0.353  -3.985  0.00  0.00    +0.052 A 
ATOM     21  C   UNL     1      -6.622  -0.453  -5.057  0.00  0.00    +0.014 A 
ATOM     22  C   UNL     1      -5.999  -0.317  -6.279  0.00  0.00    +0.001 A 
ATOM     23  C   UNL     1      -4.988   0.614  -6.447  0.00  0.00    +0.003 A 
ATOM     24  C   UNL     1      -4.596   1.415  -5.390  0.00  0.00    +0.039 A 
ATOM     25  C   UNL     1      -5.216   1.296  -4.161  0.00  0.00    +0.134 A 
ATOM     26  F   UNL     1      -4.836   2.083  -3.131  0.00  0.00    -0.205 F 
ENDBRANCH  18  20
ENDBRANCH  11  15
BRANCH   1  28
ATOM     27  N   UNL     1      -0.993  -1.516   1.136  0.00  0.00    -0.312 N 
ATOM     28  C   UNL     1      -2.029  -0.655   1.181  0.00  0.00    +0.218 C 
ATOM     29  O   UNL     1      -1.823   0.540   1.212  0.00  0.00    -0.275 OA
ATOM     30  H   UNL     1      -1.157  -2.472   1.111  0.00  0.00    +0.149 HD
BRANCH  27  32
ATOM     31  C   UNL     1       0.790  -0.672  -0.310  0.00  0.00    +0.028 C 
ATOM     32  C   UNL     1       0.382  -1.009   1.125  0.00  0.00    +0.072 C 
BRANCH  32  33
ATOM     33  C   UNL     1       1.323  -2.077   1.686  0.00  0.00    +0.003 C 
ATOM     34  C   UNL     1       1.332  -3.290   0.754  0.00  0.00    +0.009 C 
ATOM     35  C   UNL     1       2.738  -1.504   1.792  0.00  0.00    +0.009 C 
ENDBRANCH  32  33
ENDBRANCH  27  32
ENDBRANCH   1  28
TORSDOF 5
