REMARK  Name = ZINC36545047
REMARK  14 active torsions:
REMARK  status: ('A' for Active; 'I' for Inactive)
REMARK    1  A    between atoms: C_1  and  C_2
REMARK    2  A    between atoms: C_2  and  C_3
REMARK    3  A    between atoms: C_2  and  C_4
REMARK    4  A    between atoms: C_2  and  C_5
REMARK    5  A    between atoms: C_5  and  C_6
REMARK    6  A    between atoms: C_6  and  C_7
REMARK    7  A    between atoms: C_6  and  C_8
REMARK    8  A    between atoms: C_6  and  N_9
REMARK    9  A    between atoms: C_10  and  C_12
REMARK   10  A    between atoms: C_12  and  C_14
REMARK   11  A    between atoms: C_12  and  N_19
REMARK   12  A    between atoms: N_19  and  C_20
REMARK   13  A    between atoms: C_27  and  C_29
REMARK   14  A    between atoms: C_32  and  O_35
REMARK                            x       y       z     vdW  Elec       q    Type
REMARK                         _______ _______ _______ _____ _____    ______ ____
ROOT
ATOM      1  C   UNL     1       5.178  -0.015  -4.600  0.00  0.00    +0.233 C 
ENDROOT
BRANCH   1   2
ATOM      2  C   UNL     1       5.106  -1.511  -4.436  0.00  0.00    +0.135 A 
ATOM      3  C   UNL     1       4.295  -2.339  -5.120  0.00  0.00    +0.047 A 
ATOM      4  C   UNL     1       4.557  -3.647  -4.651  0.00  0.00    +0.041 A 
ATOM      5  C   UNL     1       5.512  -3.540  -3.709  0.00  0.00    +0.195 A 
ATOM      6  O   UNL     1       5.845  -2.245  -3.588  0.00  0.00    -0.465 OA
ENDBRANCH   1   2
BRANCH   1   8
ATOM      7  N   UNL     1       3.101   0.333  -3.302  0.00  0.00    -0.308 N 
ATOM      8  C   UNL     1       4.397   0.650  -3.495  0.00  0.00    +0.242 C 
ATOM      9  O   UNL     1       4.935   1.469  -2.781  0.00  0.00    -0.273 OA
ATOM     10  H   UNL     1       2.671  -0.322  -3.873  0.00  0.00    +0.149 HD
BRANCH   7  11
ATOM     11  C   UNL     1       2.342   0.979  -2.228  0.00  0.00    +0.030 C 
ATOM     12  C   UNL     1       2.636   2.481  -2.228  0.00  0.00    +0.031 C 
ATOM     13  C   UNL     1       2.753   0.379  -0.881  0.00  0.00    +0.031 C 
BRANCH  11  14
ATOM     14  C   UNL     1       0.846   0.751  -2.453  0.00  0.00    +0.031 C 
BRANCH  14  16
ATOM     15  C   UNL     1       0.849  -0.271  -4.732  0.00  0.00    +0.010 C 
ATOM     16  C   UNL     1       0.511   0.985  -3.927  0.00  0.00    -0.036 C 
ATOM     17  C   UNL     1       1.328   2.166  -4.455  0.00  0.00    +0.010 C 
ATOM     18  C   UNL     1      -0.981   1.294  -4.067  0.00  0.00    +0.010 C 
ENDBRANCH  14  16
ENDBRANCH  11  14
ENDBRANCH   7  11
ENDBRANCH   1   8
BRANCH   1  19
ATOM     19  N   UNL     1       6.576   0.417  -4.537  0.00  0.00    -0.247 N 
ATOM     20  C   UNL     1       7.042   1.323  -5.420  0.00  0.00    +0.252 C 
ATOM     21  O   UNL     1       6.313   1.751  -6.294  0.00  0.00    -0.270 OA
BRANCH  19  22
ATOM     22  C   UNL     1       7.428  -0.111  -3.562  0.00  0.00    +0.056 A 
ATOM     23  C   UNL     1       7.636   0.576  -2.373  0.00  0.00    +0.025 A 
ATOM     24  C   UNL     1       8.477   0.052  -1.411  0.00  0.00    +0.002 A 
ATOM     25  C   UNL     1       9.114  -1.156  -1.631  0.00  0.00    +0.002 A 
ATOM     26  C   UNL     1       8.910  -1.844  -2.813  0.00  0.00    +0.022 A 
ATOM     27  C   UNL     1       8.065  -1.328  -3.777  0.00  0.00    +0.062 A 
ATOM     28 CL   UNL     1       7.804  -2.195  -5.258  0.00  0.00    -0.082 Cl
ENDBRANCH  19  22
BRANCH  20  29
ATOM     29  C   UNL     1       8.437   1.795  -5.325  0.00  0.00    +0.037 A 
ATOM     30  C   UNL     1       9.455   0.908  -4.965  0.00  0.00    +0.016 A 
ATOM     31  C   UNL     1      10.755   1.352  -4.878  0.00  0.00    +0.046 A 
ATOM     32  C   UNL     1      11.056   2.682  -5.149  0.00  0.00    +0.117 A 
ATOM     33  C   UNL     1      10.047   3.568  -5.507  0.00  0.00    +0.046 A 
ATOM     34  C   UNL     1       8.745   3.130  -5.602  0.00  0.00    +0.016 A 
BRANCH  32  35
ATOM     35  O   UNL     1      12.339   3.116  -5.062  0.00  0.00    -0.507 OA
ATOM     36  H   UNL     1      12.836   3.041  -5.888  0.00  0.00    +0.292 HD
ENDBRANCH  32  35
ENDBRANCH  20  29
ENDBRANCH   1  19
TORSDOF 9
