REMARK  Name = ZINC66784245
REMARK  5 active torsions:
REMARK  status: ('A' for Active; 'I' for Inactive)
REMARK    1  A    between atoms: C_5  and  C_7
REMARK    2  A    between atoms: C_7  and  C_8
REMARK    3  A    between atoms: N_10  and  N_11
REMARK    4  A    between atoms: C_12  and  C_14
REMARK    5  A    between atoms: C_17  and  C_19
REMARK                            x       y       z     vdW  Elec       q    Type
REMARK                         _______ _______ _______ _____ _____    ______ ____
ROOT
ATOM      1  N   UNL     1       1.548  -4.494   2.938  0.00  0.00    -0.228 N 
ATOM      2  C   UNL     1       1.590  -5.820   3.176  0.00  0.00    +0.295 C 
ATOM      3  O   UNL     1       1.511  -6.607   2.250  0.00  0.00    -0.265 OA
ATOM      4  H   UNL     1       1.611  -3.867   3.676  0.00  0.00    +0.173 HD
ENDROOT
BRANCH   2   5
ATOM      5  C   UNL     1       1.730  -6.314   4.548  0.00  0.00    +0.191 A 
ATOM      6  C   UNL     1       1.791  -7.637   4.929  0.00  0.00    +0.055 A 
ATOM      7  C   UNL     1       1.925  -7.651   6.321  0.00  0.00    +0.051 A 
ATOM      8  C   UNL     1       1.941  -6.349   6.735  0.00  0.00    +0.137 A 
ATOM      9  O   UNL     1       1.828  -5.554   5.658  0.00  0.00    -0.450 OA
BRANCH   8  10
ATOM     10  C   UNL     1       2.066  -5.893   8.134  0.00  0.00    +0.036 A 
ATOM     11  C   UNL     1       1.245  -6.435   9.125  0.00  0.00    +0.013 A 
ATOM     12  C   UNL     1       1.368  -6.005  10.429  0.00  0.00    +0.001 A 
ATOM     13  C   UNL     1       2.302  -5.037  10.758  0.00  0.00    +0.001 A 
ATOM     14  C   UNL     1       3.119  -4.495   9.782  0.00  0.00    +0.021 A 
ATOM     15  C   UNL     1       3.011  -4.921   8.473  0.00  0.00    +0.052 A 
ATOM     16 CL   UNL     1       4.041  -4.244   7.250  0.00  0.00    -0.083 Cl
ENDBRANCH   8  10
ENDBRANCH   2   5
BRANCH   1  19
ATOM     17  C   UNL     1       1.372  -2.695   1.389  0.00  0.00    +0.233 C 
ATOM     18  O   UNL     1       1.451  -1.911   2.311  0.00  0.00    -0.274 OA
ATOM     19  N   UNL     1       1.414  -4.021   1.627  0.00  0.00    -0.234 N 
ATOM     20  H   UNL     1       1.351  -4.648   0.889  0.00  0.00    +0.173 HD
BRANCH  17  21
ATOM     21  C   UNL     1       1.228  -2.186  -0.022  0.00  0.00    +0.135 C 
BRANCH  21  26
ATOM     22  C   UNL     1      -0.017   1.378   0.010  0.00  0.00    +0.000 A 
ATOM     23  C   UNL     1       1.171   2.087   0.002  0.00  0.00    +0.003 A 
ATOM     24  C   UNL     1       2.377   1.414  -0.013  0.00  0.00    +0.038 A 
ATOM     25  C   UNL     1       2.397   0.029  -0.021  0.00  0.00    +0.127 A 
ATOM     26  C   UNL     1       1.208  -0.679  -0.013  0.00  0.00    -0.003 A 
ATOM     27  C   UNL     1       0.002  -0.004   0.002  0.00  0.00    +0.007 A 
ATOM     28  F   UNL     1       3.577  -0.630  -0.036  0.00  0.00    -0.205 F 
ENDBRANCH  21  26
ENDBRANCH  17  21
ENDBRANCH   1  19
TORSDOF 5
