REMARK  Name = ZINC20437575
REMARK  3 active torsions:
REMARK  status: ('A' for Active; 'I' for Inactive)
REMARK    1  A    between atoms: C_3  and  N_8
REMARK    2  A    between atoms: N_18  and  C_21
REMARK    3  A    between atoms: C_21  and  C_22
REMARK                            x       y       z     vdW  Elec       q    Type
REMARK                         _______ _______ _______ _____ _____    ______ ____
ROOT
ATOM      1  N   UNL     1       1.181   2.043   0.002  0.00  0.00    -0.277 N 
ATOM      2  C   UNL     1       0.092   1.359   0.502  0.00  0.00    +0.116 A 
ATOM      3  C   UNL     1       0.105  -0.003   0.489  0.00  0.00    +0.069 A 
ATOM      4  C   UNL     1       1.230  -0.674  -0.022  0.00  0.00    +0.258 A 
ATOM      5  O   UNL     1       1.260  -1.893  -0.039  0.00  0.00    -0.267 OA
ATOM      6  N   UNL     1       2.274   0.034  -0.494  0.00  0.00    -0.302 N 
ATOM      7  H   UNL     1       3.158  -0.487  -0.891  0.00  0.00    +0.171 HD
ATOM      8  C   UNL     1       2.244   1.379  -0.483  0.00  0.00    +0.166 A 
ATOM      9  S   UNL     1       3.581   2.257  -1.093  0.00  0.00    -0.012 S 
ATOM     10  C   UNL     1      -1.058  -0.811   1.002  0.00  0.00    +0.130 C 
ATOM     11  N   UNL     1      -1.942   0.053   1.797  0.00  0.00    -0.275 NA
ATOM     12  C   UNL     1      -2.200   1.303   1.063  0.00  0.00    +0.191 C 
ATOM     13  N   UNL     1      -0.959   2.080   1.001  0.00  0.00    -0.317 N 
ATOM     14  H   UNL     1      -0.948   3.127   1.337  0.00  0.00    +0.149 HD
ENDROOT
BRANCH   1  17
ATOM     15  C   UNL     1       1.687   5.524   1.079  0.00  0.00    +0.003 A 
ATOM     16  C   UNL     1       1.686   4.143   1.086  0.00  0.00    +0.026 A 
ATOM     17  C   UNL     1       1.179   3.444  -0.001  0.00  0.00    +0.052 A 
ATOM     18  C   UNL     1       0.664   4.136  -1.089  0.00  0.00    +0.046 A 
ATOM     19  C   UNL     1       0.662   5.518  -1.089  0.00  0.00    +0.043 A 
ATOM     20  C   UNL     1       1.174   6.212  -0.005  0.00  0.00    +0.020 A 
ATOM     21 CL   UNL     1       0.019   6.385  -2.449  0.00  0.00    -0.083 Cl
ENDBRANCH   1  17
BRANCH  11  22
ATOM     22  C   UNL     1      -3.199  -0.636   2.121  0.00  0.00    +0.160 C 
BRANCH  22  23
ATOM     23  C   UNL     1      -3.970   0.174   3.131  0.00  0.00    +0.119 A 
ATOM     24  C   UNL     1      -4.869   1.134   2.849  0.00  0.00    +0.046 A 
ATOM     25  C   UNL     1      -5.346   1.625   4.086  0.00  0.00    +0.041 A 
ATOM     26  C   UNL     1      -4.703   0.942   5.051  0.00  0.00    +0.195 A 
ATOM     27  O   UNL     1      -3.871   0.065   4.466  0.00  0.00    -0.467 OA
ENDBRANCH  22  23
ENDBRANCH  11  22
TORSDOF 3
