REMARK  Name = ZINC00109508
REMARK  8 active torsions:
REMARK  status: ('A' for Active; 'I' for Inactive)
REMARK    1  A    between atoms: C_1  and  C_2
REMARK    2  A    between atoms: C_2  and  O_3
REMARK    3  A    between atoms: O_3  and  C_4
REMARK    4  A    between atoms: C_4  and  C_6
REMARK    5  A    between atoms: C_7  and  C_26
REMARK    6  A    between atoms: C_11  and  C_15
REMARK    7  A    between atoms: N_16  and  C_17
REMARK    8  A    between atoms: C_23  and  C_25
REMARK                            x       y       z     vdW  Elec       q    Type
REMARK                         _______ _______ _______ _____ _____    ______ ____
ROOT
ATOM      1  C   UNL     1       4.580   1.124  -0.391  0.00  0.00    +0.102 A 
ATOM      2  C   UNL     1       3.533   1.934  -0.068  0.00  0.00    -0.017 A 
ATOM      3  C   UNL     1       2.294   1.372   0.263  0.00  0.00    +0.051 A 
ATOM      4  C   UNL     1       1.077   2.021   0.629  0.00  0.00    +0.131 A 
ATOM      5  N   UNL     1       0.012   1.286   0.905  0.00  0.00    -0.217 NA
ATOM      6  C   UNL     1       0.033  -0.033   0.854  0.00  0.00    +0.129 A 
ATOM      7  N   UNL     1       1.126  -0.693   0.523  0.00  0.00    -0.225 NA
ATOM      8  C   UNL     1       2.235  -0.043   0.231  0.00  0.00    +0.115 A 
ATOM      9  S   UNL     1       3.877  -0.510  -0.249  0.00  0.00    -0.062 S 
ATOM     10  C   UNL     1      -1.221  -0.803   1.182  0.00  0.00    +0.088 C 
ATOM     11  N   UNL     1       1.012   3.398   0.695  0.00  0.00    -0.325 N 
ATOM     12  C   UNL     1       3.708   3.431  -0.066  0.00  0.00    +0.046 C 
ATOM     13  H   UNL     1       1.816   3.927   0.582  0.00  0.00    +0.148 HD
ENDROOT
BRANCH  11  14
ATOM     14  C   UNL     1      -0.273   4.060   0.937  0.00  0.00    +0.075 C 
ATOM     15  C   UNL     1      -1.014   4.235  -0.391  0.00  0.00    +0.022 C 
ATOM     16  C   UNL     1      -0.169   5.090  -1.337  0.00  0.00    +0.002 C 
ATOM     17  C   UNL     1       0.075   6.462  -0.705  0.00  0.00    +0.000 C 
ATOM     18  C   UNL     1       0.816   6.287   0.623  0.00  0.00    +0.005 C 
ATOM     19  C   UNL     1      -0.029   5.431   1.569  0.00  0.00    +0.006 C 
ATOM     20  C   UNL     1       0.712   5.256   2.897  0.00  0.00    +0.009 C 
ENDBRANCH  11  14
BRANCH   1  21
ATOM     21  C   UNL     1       5.947   1.502  -0.764  0.00  0.00    +0.346 C 
ATOM     22  O   UNL     1       6.261   2.676  -0.813  0.00  0.00    -0.244 OA
BRANCH  21  23
ATOM     23  O   UNL     1       6.855   0.548  -1.053  0.00  0.00    -0.461 OA
BRANCH  23  25
ATOM     24  C   UNL     1       9.072  -0.219  -1.706  0.00  0.00    +0.048 C 
ATOM     25  C   UNL     1       8.188   0.996  -1.415  0.00  0.00    +0.229 C 
ENDBRANCH  23  25
ENDBRANCH  21  23
ENDBRANCH   1  21
TORSDOF 4
