REMARK  Name = ZINC59385944
REMARK  7 active torsions:
REMARK  status: ('A' for Active; 'I' for Inactive)
REMARK    1  A    between atoms: C_4  and  C_7
REMARK    2  A    between atoms: C_7  and  C_13
REMARK    3  A    between atoms: C_13  and  N_14
REMARK    4  A    between atoms: C_15  and  C_17
REMARK    5  A    between atoms: C_17  and  N_18
REMARK    6  A    between atoms: N_21  and  C_24
REMARK    7  A    between atoms: C_24  and  C_25
REMARK                            x       y       z     vdW  Elec       q    Type
REMARK                         _______ _______ _______ _____ _____    ______ ____
ROOT
ATOM      1  C   UNL     1       6.417   2.906  -2.455  0.00  0.00    +0.180 C 
ENDROOT
BRANCH   1   2
ATOM      2  N   UNL     1       6.844   3.243  -3.819  0.00  0.00    -0.298 NA
ATOM      3  C   UNL     1       5.754   3.025  -4.781  0.00  0.00    +0.066 C 
ATOM      4  C   UNL     1       6.256   3.331  -6.194  0.00  0.00    -0.063 C 
ATOM      5  N   UNL     1       6.719   4.723  -6.259  0.00  0.00    +0.384 N 
ATOM      6  C   UNL     1       7.823   4.919  -5.311  0.00  0.00    -0.063 C 
ATOM      7  C   UNL     1       7.334   4.627  -3.890  0.00  0.00    +0.066 C 
ATOM      8  H   UNL     1       5.958   5.342  -6.021  0.00  0.00    -0.081 HD
BRANCH   5   9
ATOM      9  C   UNL     1       7.184   5.021  -7.620  0.00  0.00    -0.042 C 
BRANCH   9  10
ATOM     10  C   UNL     1       7.531   6.484  -7.723  0.00  0.00    -0.056 A 
ATOM     11  C   UNL     1       8.832   6.883  -7.698  0.00  0.00    +0.002 A 
ATOM     12  C   UNL     1       9.172   8.230  -7.792  0.00  0.00    +0.001 A 
ATOM     13  C   UNL     1       8.212   9.188  -7.912  0.00  0.00    +0.008 A 
ATOM     14  C   UNL     1       6.858   8.816  -7.942  0.00  0.00    -0.018 A 
ATOM     15  C   UNL     1       6.513   7.444  -7.852  0.00  0.00    -0.017 A 
ATOM     16  C   UNL     1       5.158   7.071  -7.888  0.00  0.00    +0.009 A 
ATOM     17  C   UNL     1       4.199   8.028  -8.014  0.00  0.00    +0.001 A 
ATOM     18  C   UNL     1       4.539   9.376  -8.109  0.00  0.00    +0.001 A 
ATOM     19  C   UNL     1       5.839   9.776  -8.064  0.00  0.00    +0.008 A 
ENDBRANCH   9  10
ENDBRANCH   5   9
ENDBRANCH   1   2
BRANCH   1  21
ATOM     20  N   UNL     1       5.750   0.883  -1.196  0.00  0.00    -0.313 N 
ATOM     21  C   UNL     1       6.155   1.424  -2.362  0.00  0.00    +0.227 C 
ATOM     22  O   UNL     1       6.309   0.719  -3.337  0.00  0.00    -0.274 OA
ATOM     23  H   UNL     1       5.627   1.447  -0.417  0.00  0.00    +0.149 HD
BRANCH  20  24
ATOM     24  C   UNL     1       5.495  -0.557  -1.107  0.00  0.00    +0.116 C 
BRANCH  24  25
ATOM     25  C   UNL     1       5.008  -0.902   0.302  0.00  0.00    +0.015 C 
ATOM     26  C   UNL     1       6.107  -0.580   1.320  0.00  0.00    +0.041 C 
ATOM     27  C   UNL     1       7.328  -1.460   1.036  0.00  0.00    +0.160 C 
ATOM     28  O   UNL     1       6.945  -2.836   1.093  0.00  0.00    -0.380 OA
ATOM     29  C   UNL     1       5.954  -3.205   0.132  0.00  0.00    +0.160 C 
ATOM     30  C   UNL     1       4.678  -2.396   0.379  0.00  0.00    +0.041 C 
BRANCH  25  34
ATOM     31  C   UNL     1       1.512   1.381   1.206  0.00  0.00    +0.000 A 
ATOM     32  C   UNL     1       1.479   0.435   0.199  0.00  0.00    +0.000 A 
ATOM     33  C   UNL     1       2.610  -0.304  -0.094  0.00  0.00    +0.004 A 
ATOM     34  C   UNL     1       3.775  -0.096   0.621  0.00  0.00    -0.040 A 
ATOM     35  C   UNL     1       3.809   0.850   1.628  0.00  0.00    +0.004 A 
ATOM     36  C   UNL     1       2.677   1.588   1.921  0.00  0.00    +0.000 A 
ENDBRANCH  25  34
ENDBRANCH  24  25
ENDBRANCH  20  24
ENDBRANCH   1  21
TORSDOF 7
