REMARK  Name = ZINC45008953
REMARK  6 active torsions:
REMARK  status: ('A' for Active; 'I' for Inactive)
REMARK    1  A    between atoms: C_6  and  N_7
REMARK    2  A    between atoms: C_8  and  C_10
REMARK    3  A    between atoms: C_10  and  C_11
REMARK    4  A    between atoms: C_11  and  S_12
REMARK    5  A    between atoms: S_12  and  C_13
REMARK    6  A    between atoms: C_13  and  C_14
REMARK                            x       y       z     vdW  Elec       q    Type
REMARK                         _______ _______ _______ _____ _____    ______ ____
ROOT
ATOM      1  C   UNL     1      -3.657  -0.849   0.249  0.00  0.00    +0.107 C 
ENDROOT
BRANCH   1   3
ATOM      2  N   UNL     1      -1.199  -0.722   0.010  0.00  0.00    -0.285 N 
ATOM      3  C   UNL     1      -2.373  -0.071   0.127  0.00  0.00    +0.218 C 
ATOM      4  O   UNL     1      -2.396   1.142   0.134  0.00  0.00    -0.275 OA
ATOM      5  H   UNL     1      -1.186  -1.689  -0.072  0.00  0.00    +0.155 HD
BRANCH   2  11
ATOM      6  C   UNL     1       0.122   1.156   0.761  0.00  0.00    +0.023 A 
ATOM      7  C   UNL     1       1.309   1.860   0.755  0.00  0.00    +0.006 A 
ATOM      8  C   UNL     1       2.382   1.414   0.002  0.00  0.00    -0.044 A 
ATOM      9  C   UNL     1       2.266   0.258  -0.750  0.00  0.00    -0.042 A 
ATOM     10  C   UNL     1       1.078  -0.450  -0.747  0.00  0.00    +0.027 A 
ATOM     11  C   UNL     1       0.002  -0.004   0.008  0.00  0.00    +0.034 A 
ATOM     12  C   UNL     1       3.567  -0.011  -1.477  0.00  0.00    +0.036 C 
ATOM     13  C   UNL     1       4.336   1.326  -1.438  0.00  0.00    +0.009 C 
ATOM     14  C   UNL     1       3.768   1.998  -0.170  0.00  0.00    +0.036 C 
ENDBRANCH   2  11
ENDBRANCH   1   3
BRANCH   1  15
ATOM     15  C   UNL     1      -4.833   0.122   0.367  0.00  0.00    +0.078 C 
BRANCH  15  16
ATOM     16  S   UNL     1      -6.380  -0.815   0.514  0.00  0.00    -0.154 S 
BRANCH  16  17
ATOM     17  C   UNL     1      -7.658   0.466   0.644  0.00  0.00    +0.124 C 
BRANCH  17  18
ATOM     18  C   UNL     1      -9.011  -0.186   0.773  0.00  0.00    +0.059 A 
ATOM     19  C   UNL     1      -9.664  -0.212   1.987  0.00  0.00    +0.094 A 
ATOM     20  C   UNL     1     -10.916  -0.820   2.087  0.00  0.00    +0.259 A 
ATOM     21  O   UNL     1     -11.499  -0.845   3.159  0.00  0.00    -0.267 OA
ATOM     22  N   UNL     1     -11.489  -1.386   0.983  0.00  0.00    -0.262 N 
ATOM     23  C   UNL     1     -12.708  -2.017   0.922  0.00  0.00    +0.104 A 
ATOM     24  C   UNL     1     -13.160  -2.532  -0.221  0.00  0.00    +0.067 A 
ATOM     25  S   UNL     1     -11.830  -2.142  -1.348  0.00  0.00    -0.058 S 
ATOM     26  C   UNL     1     -10.771  -1.315  -0.181  0.00  0.00    +0.180 A 
ATOM     27  N   UNL     1      -9.598  -0.742  -0.283  0.00  0.00    -0.227 NA
ENDBRANCH  17  18
ENDBRANCH  16  17
ENDBRANCH  15  16
ENDBRANCH   1  15
TORSDOF 6
