REMARK  Name = ZINC12563090
REMARK  10 active torsions:
REMARK  status: ('A' for Active; 'I' for Inactive)
REMARK    1  A    between atoms: C_1  and  C_2
REMARK    2  A    between atoms: C_2  and  O_3
REMARK    3  A    between atoms: O_3  and  C_4
REMARK    4  A    between atoms: C_9  and  N_10
REMARK    5  A    between atoms: N_10  and  C_11
REMARK    6  A    between atoms: C_11  and  C_13
REMARK    7  A    between atoms: C_11  and  C_14
REMARK    8  A    between atoms: N_16  and  C_17
REMARK    9  A    between atoms: C_20  and  C_23
REMARK   10  A    between atoms: C_26  and  C_29
REMARK                            x       y       z     vdW  Elec       q    Type
REMARK                         _______ _______ _______ _____ _____    ______ ____
ROOT
ATOM      1  N   UNL     1       1.239   1.904  -0.160  0.00  0.00    -0.330 N 
ATOM      2  H   UNL     1       1.370   2.768   0.259  0.00  0.00    +0.147 HD
ENDROOT
BRANCH   1   8
ATOM      3  C   UNL     1       3.519   1.942  -0.960  0.00  0.00    +0.142 A 
ATOM      4  C   UNL     1       4.554   1.337  -1.654  0.00  0.00    +0.055 A 
ATOM      5  C   UNL     1       4.359   0.109  -2.251  0.00  0.00    +0.001 A 
ATOM      6  C   UNL     1       3.137  -0.544  -2.157  0.00  0.00    +0.126 A 
ATOM      7  C   UNL     1       2.098   0.064  -1.458  0.00  0.00    +0.072 A 
ATOM      8  C   UNL     1       2.288   1.299  -0.861  0.00  0.00    +0.073 A 
ATOM      9  O   UNL     1       3.171  -1.746  -2.797  0.00  0.00    -0.488 OA
ATOM     10  C   UNL     1       4.269  -1.757  -3.726  0.00  0.00    +0.175 C 
ATOM     11  C   UNL     1       5.273  -0.773  -3.080  0.00  0.00    +0.083 C 
ATOM     12  C   UNL     1       4.874  -3.158  -3.834  0.00  0.00    +0.052 C 
BRANCH   3  13
ATOM     13  O   UNL     1       3.706   3.157  -0.375  0.00  0.00    -0.490 OA
BRANCH  13  15
ATOM     14  C   UNL     1       5.015   5.106   0.199  0.00  0.00    +0.048 C 
ATOM     15  C   UNL     1       4.996   3.755  -0.520  0.00  0.00    +0.226 C 
ENDBRANCH  13  15
ENDBRANCH   3  13
ENDBRANCH   1   8
BRANCH   1  16
ATOM     16  C   UNL     1      -0.059   1.231  -0.059  0.00  0.00    +0.154 C 
ATOM     17  C   UNL     1      -0.897   1.551  -1.299  0.00  0.00    +0.038 C 
BRANCH  16  18
ATOM     18  C   UNL     1      -0.780   1.713   1.173  0.00  0.00    +0.237 C 
ATOM     19  O   UNL     1      -0.262   2.537   1.896  0.00  0.00    -0.273 OA
ATOM     20  N   UNL     1      -2.002   1.228   1.472  0.00  0.00    -0.284 N 
ATOM     21  H   UNL     1      -2.449   0.627   0.855  0.00  0.00    +0.155 HD
BRANCH  20  22
ATOM     22  C   UNL     1      -2.623   1.589   2.668  0.00  0.00    +0.034 A 
ATOM     23  C   UNL     1      -1.857   1.813   3.807  0.00  0.00    +0.024 A 
ATOM     24  C   UNL     1      -2.466   2.175   4.988  0.00  0.00    +0.020 A 
ATOM     25  C   UNL     1      -3.856   2.308   5.043  0.00  0.00    +0.052 A 
ATOM     26  C   UNL     1      -4.623   2.078   3.897  0.00  0.00    +0.020 A 
ATOM     27  C   UNL     1      -4.007   1.720   2.719  0.00  0.00    +0.024 A 
BRANCH  25  28
ATOM     28  C   UNL     1      -4.494   2.679   6.270  0.00  0.00    +0.099 C 
ATOM     29  N   UNL     1      -5.000   2.974   7.244  0.00  0.00    -0.191 NA
ENDBRANCH  25  28
ENDBRANCH  20  22
ENDBRANCH  16  18
ENDBRANCH   1  16
TORSDOF 7
