REMARK  Name = ZINC40169178
REMARK  9 active torsions:
REMARK  status: ('A' for Active; 'I' for Inactive)
REMARK    1  A    between atoms: C_1  and  C_2
REMARK    2  A    between atoms: C_2  and  C_3
REMARK    3  A    between atoms: C_3  and  C_5
REMARK    4  A    between atoms: C_3  and  O_16
REMARK    5  A    between atoms: N_7  and  C_8
REMARK    6  A    between atoms: C_11  and  O_14
REMARK    7  A    between atoms: O_14  and  C_15
REMARK    8  A    between atoms: O_16  and  C_17
REMARK    9  A    between atoms: C_27  and  C_28
REMARK                            x       y       z     vdW  Elec       q    Type
REMARK                         _______ _______ _______ _____ _____    ______ ____
ROOT
ATOM      1  O   UNL     1      -0.994  -0.300  -1.494  0.00  0.00    -0.472 OA
ENDROOT
BRANCH   1   2
ATOM      2  C   UNL     1      -1.002   0.922  -2.092  0.00  0.00    +0.215 A 
ATOM      3  C   UNL     1      -0.158   1.183  -3.197  0.00  0.00    +0.235 A 
ATOM      4  O   UNL     1       0.591   0.325  -3.638  0.00  0.00    -0.283 OA
ATOM      5  C   UNL     1      -0.218   2.530  -3.797  0.00  0.00    +0.068 A 
ATOM      6  C   UNL     1       0.580   2.869  -4.889  0.00  0.00    +0.015 A 
ATOM      7  C   UNL     1       0.498   4.136  -5.424  0.00  0.00    +0.001 A 
ATOM      8  C   UNL     1      -0.373   5.070  -4.881  0.00  0.00    +0.004 A 
ATOM      9  C   UNL     1      -1.166   4.746  -3.801  0.00  0.00    +0.047 A 
ATOM     10  C   UNL     1      -1.099   3.473  -3.247  0.00  0.00    +0.140 A 
ATOM     11  O   UNL     1      -1.871   3.141  -2.191  0.00  0.00    -0.448 OA
ATOM     12  C   UNL     1      -1.837   1.919  -1.631  0.00  0.00    +0.216 A 
BRANCH  12  13
ATOM     13  C   UNL     1      -2.712   1.637  -0.490  0.00  0.00    +0.173 A 
ATOM     14  C   UNL     1      -3.647   2.486   0.032  0.00  0.00    +0.053 A 
ATOM     15  C   UNL     1      -4.248   1.810   1.108  0.00  0.00    +0.042 A 
ATOM     16  C   UNL     1      -3.661   0.597   1.194  0.00  0.00    +0.196 A 
ATOM     17  O   UNL     1      -2.739   0.494   0.224  0.00  0.00    -0.460 OA
ENDBRANCH  12  13
ENDBRANCH   1   2
BRANCH   1  18
ATOM     18  C   UNL     1       0.243  -0.738  -0.929  0.00  0.00    +0.259 C 
BRANCH  18  19
ATOM     19  C   UNL     1       0.342  -2.238  -1.036  0.00  0.00    +0.258 C 
ATOM     20  O   UNL     1      -0.608  -2.881  -1.432  0.00  0.00    -0.271 OA
ATOM     21  N   UNL     1       1.484  -2.864  -0.693  0.00  0.00    -0.282 N 
ATOM     22  H   UNL     1       2.217  -2.359  -0.308  0.00  0.00    +0.155 HD
BRANCH  21  23
ATOM     23  C   UNL     1       1.612  -4.245  -0.891  0.00  0.00    +0.034 A 
ATOM     24  C   UNL     1       1.014  -4.848  -1.989  0.00  0.00    +0.027 A 
ATOM     25  C   UNL     1       1.141  -6.209  -2.184  0.00  0.00    +0.047 A 
ATOM     26  C   UNL     1       1.867  -6.974  -1.283  0.00  0.00    +0.120 A 
ATOM     27  C   UNL     1       2.465  -6.373  -0.185  0.00  0.00    +0.047 A 
ATOM     28  C   UNL     1       2.343  -5.011   0.008  0.00  0.00    +0.027 A 
BRANCH  26  29
ATOM     29  O   UNL     1       1.991  -8.315  -1.475  0.00  0.00    -0.495 OA
ATOM     30  C   UNL     1       2.752  -9.041  -0.508  0.00  0.00    +0.277 C 
ENDBRANCH  26  29
ENDBRANCH  21  23
ENDBRANCH  18  19
BRANCH  18  32
ATOM     31  C   UNL     1       0.382   1.198   0.644  0.00  0.00    +0.008 C 
ATOM     32  C   UNL     1       0.305  -0.327   0.543  0.00  0.00    +0.051 C 
ENDBRANCH  18  32
ENDBRANCH   1  18
TORSDOF 7
