REMARK  Name = ZINC33467691
REMARK  9 active torsions:
REMARK  status: ('A' for Active; 'I' for Inactive)
REMARK    1  A    between atoms: C_1  and  C_2
REMARK    2  A    between atoms: C_2  and  N_3
REMARK    3  A    between atoms: C_4  and  N_28
REMARK    4  A    between atoms: C_5  and  C_13
REMARK    5  A    between atoms: C_6  and  C_12
REMARK    6  A    between atoms: C_7  and  C_10
REMARK    7  A    between atoms: N_17  and  C_21
REMARK    8  A    between atoms: C_21  and  C_22
REMARK    9  A    between atoms: N_31  and  C_34
REMARK                            x       y       z     vdW  Elec       q    Type
REMARK                         _______ _______ _______ _____ _____    ______ ____
ROOT
ATOM      1  N   UNL     1      -2.167   4.665   4.811  0.00  0.00    -0.295 N 
ATOM      2  C   UNL     1      -1.601   3.431   4.793  0.00  0.00    +0.112 A 
ATOM      3  C   UNL     1      -1.634   2.613   5.935  0.00  0.00    +0.019 A 
ATOM      4  C   UNL     1      -2.249   3.087   7.106  0.00  0.00    -0.017 A 
ATOM      5  C   UNL     1      -2.823   4.356   7.099  0.00  0.00    +0.120 A 
ATOM      6  C   UNL     1      -2.767   5.139   5.918  0.00  0.00    +0.270 A 
ATOM      7  O   UNL     1      -3.267   6.250   5.906  0.00  0.00    -0.266 OA
ATOM      8  C   UNL     1      -2.295   2.233   8.347  0.00  0.00    +0.046 C 
ENDROOT
BRANCH   3   9
ATOM      9  C   UNL     1      -1.028   1.281   5.907  0.00  0.00    +0.032 C 
ATOM     10  C   UNL     1      -1.812   0.174   6.009  0.00  0.00    +0.077 C 
ATOM     11  C   UNL     1      -1.436  -1.200   6.112  0.00  0.00    +0.258 C 
ATOM     12  O   UNL     1      -0.264  -1.530   6.118  0.00  0.00    -0.269 OA
ATOM     13  N   UNL     1      -2.398  -2.102   6.201  0.00  0.00    -0.253 N 
ATOM     14  C   UNL     1      -3.699  -1.734   6.195  0.00  0.00    +0.121 C 
ATOM     15  S   UNL     1      -5.093  -2.722   6.301  0.00  0.00    -0.027 S 
ATOM     16  S   UNL     1      -3.594   0.044   6.058  0.00  0.00    -0.061 S 
BRANCH  13  17
ATOM     17  C   UNL     1      -2.049  -3.520   6.309  0.00  0.00    +0.146 C 
BRANCH  17  18
ATOM     18  C   UNL     1      -1.903  -3.899   7.784  0.00  0.00    +0.136 C 
ATOM     19  C   UNL     1      -1.450  -5.370   7.919  0.00  0.00    +0.035 C 
ATOM     20  C   UNL     1      -2.215  -5.885   9.159  0.00  0.00    +0.031 C 
ATOM     21  C   UNL     1      -3.038  -4.665   9.627  0.00  0.00    +0.160 C 
ATOM     22  O   UNL     1      -3.184  -3.842   8.447  0.00  0.00    -0.375 OA
ENDBRANCH  17  18
ENDBRANCH  13  17
ENDBRANCH   3   9
BRANCH   2  23
ATOM     23  N   UNL     1      -1.001   2.979   3.654  0.00  0.00    -0.320 N 
ATOM     24  C   UNL     1       0.444   2.801   3.856  0.00  0.00    +0.088 C 
ATOM     25  C   UNL     1       1.091   2.371   2.537  0.00  0.00    -0.060 C 
ATOM     26  N   UNL     1       0.469   1.122   2.074  0.00  0.00    +0.380 N 
ATOM     27  C   UNL     1      -0.976   1.300   1.872  0.00  0.00    -0.060 C 
ATOM     28  C   UNL     1      -1.623   1.730   3.191  0.00  0.00    +0.088 C 
ATOM     29  C   UNL     1       1.116   0.636   0.848  0.00  0.00    -0.096 C 
ATOM     30  H   UNL     1       0.613   0.361   2.855  0.00  0.00    -0.082 HD
ENDBRANCH   2  23
BRANCH   1  32
ATOM     31  C   UNL     1      -3.418   5.307   2.810  0.00  0.00    +0.027 C 
ATOM     32  C   UNL     1      -2.124   5.495   3.605  0.00  0.00    +0.123 C 
ENDBRANCH   1  32
BRANCH   5  33
ATOM     33  C   UNL     1      -3.463   4.865   8.274  0.00  0.00    +0.105 C 
ATOM     34  N   UNL     1      -3.971   5.269   9.206  0.00  0.00    -0.191 NA
ENDBRANCH   5  33
TORSDOF 6
