REMARK  Name = ZINC00622268
REMARK  9 active torsions:
REMARK  status: ('A' for Active; 'I' for Inactive)
REMARK    1  A    between atoms: C_1  and  C_2
REMARK    2  A    between atoms: C_9  and  N_14
REMARK    3  A    between atoms: C_10  and  C_11
REMARK    4  A    between atoms: C_15  and  C_17
REMARK    5  A    between atoms: C_17  and  C_19
REMARK    6  A    between atoms: C_17  and  N_23
REMARK    7  A    between atoms: C_19  and  C_20
REMARK    8  A    between atoms: C_20  and  C_21
REMARK    9  A    between atoms: C_20  and  C_22
REMARK                            x       y       z     vdW  Elec       q    Type
REMARK                         _______ _______ _______ _____ _____    ______ ____
ROOT
ATOM      1  N   UNL     1      -0.643   2.292  -4.919  0.00  0.00    -0.278 N 
ATOM      2  C   UNL     1      -1.556   2.786  -5.780  0.00  0.00    +0.239 C 
ATOM      3  O   UNL     1      -2.659   3.096  -5.383  0.00  0.00    -0.273 OA
ATOM      4  H   UNL     1       0.239   2.045  -5.237  0.00  0.00    +0.155 HD
ENDROOT
BRANCH   1  12
ATOM      5  C   UNL     1      -2.890   1.493   2.530  0.00  0.00    +0.008 C 
ATOM      6  C   UNL     1      -2.223   1.219   1.181  0.00  0.00    -0.009 C 
ATOM      7  C   UNL     1      -0.735   1.582   1.262  0.00  0.00    +0.008 C 
ATOM      8  C   UNL     1      -0.013   1.086   0.008  0.00  0.00    +0.037 C 
ATOM      9  C   UNL     1      -0.755   1.593  -1.222  0.00  0.00    -0.023 A 
ATOM     10  C   UNL     1      -2.032   2.025  -1.135  0.00  0.00    -0.004 A 
ATOM     11  S   UNL     1      -2.461   2.506  -2.783  0.00  0.00    -0.077 S 
ATOM     12  C   UNL     1      -0.967   2.139  -3.579  0.00  0.00    +0.084 A 
ATOM     13  C   UNL     1      -0.172   1.653  -2.551  0.00  0.00    +0.068 A 
ATOM     14  C   UNL     1      -2.885   2.079   0.095  0.00  0.00    +0.046 C 
BRANCH  13  15
ATOM     15  C   UNL     1       1.207   1.217  -2.796  0.00  0.00    +0.244 C 
ATOM     16  O   UNL     1       1.435   0.059  -3.094  0.00  0.00    -0.270 OA
ATOM     17  N   UNL     1       2.221   2.099  -2.693  0.00  0.00    -0.325 N 
ATOM     18  H   UNL     1       2.039   3.022  -2.457  0.00  0.00    +0.145 HD
ATOM     19  H   UNL     1       3.133   1.810  -2.856  0.00  0.00    +0.145 HD
ENDBRANCH  13  15
ENDBRANCH   1  12
BRANCH   2  20
ATOM     20  C   UNL     1      -1.204   2.953  -7.236  0.00  0.00    +0.171 C 
BRANCH  20  21
ATOM     21  N   UNL     1      -2.356   3.503  -7.956  0.00  0.00    -0.222 N 
ATOM     22  C   UNL     1      -2.935   4.684  -7.677  0.00  0.00    +0.254 C 
ATOM     23  O   UNL     1      -2.591   5.453  -6.802  0.00  0.00    -0.270 OA
ATOM     24  C   UNL     1      -4.058   4.892  -8.615  0.00  0.00    +0.049 A 
ATOM     25  C   UNL     1      -4.989   5.901  -8.802  0.00  0.00    +0.014 A 
ATOM     26  C   UNL     1      -5.943   5.780  -9.800  0.00  0.00    +0.001 A 
ATOM     27  C   UNL     1      -5.971   4.660 -10.610  0.00  0.00    +0.001 A 
ATOM     28  C   UNL     1      -5.046   3.643 -10.435  0.00  0.00    +0.014 A 
ATOM     29  C   UNL     1      -4.087   3.750  -9.441  0.00  0.00    +0.049 A 
ATOM     30  C   UNL     1      -2.977   2.889  -8.980  0.00  0.00    +0.254 C 
ATOM     31  O   UNL     1      -2.676   1.810  -9.447  0.00  0.00    -0.270 OA
ENDBRANCH  20  21
BRANCH  20  32
ATOM     32  C   UNL     1      -0.017   3.908  -7.368  0.00  0.00    +0.035 C 
BRANCH  32  33
ATOM     33  C   UNL     1       0.419   3.981  -8.833  0.00  0.00    -0.015 C 
ATOM     34  C   UNL     1       1.523   5.029  -8.985  0.00  0.00    +0.007 C 
ATOM     35  C   UNL     1       0.947   2.615  -9.276  0.00  0.00    +0.007 C 
ENDBRANCH  32  33
ENDBRANCH  20  32
ENDBRANCH   2  20
TORSDOF 6
