REMARK  Name = ZINC08636411
REMARK  10 active torsions:
REMARK  status: ('A' for Active; 'I' for Inactive)
REMARK    1  A    between atoms: C_1  and  N_2
REMARK    2  A    between atoms: N_2  and  C_3
REMARK    3  A    between atoms: N_2  and  C_4
REMARK    4  A    between atoms: C_7  and  N_10
REMARK    5  A    between atoms: C_13  and  C_27
REMARK    6  A    between atoms: C_16  and  O_26
REMARK    7  A    between atoms: C_18  and  O_25
REMARK    8  A    between atoms: N_29  and  C_30
REMARK    9  A    between atoms: N_29  and  C_31
REMARK   10  A    between atoms: C_31  and  C_32
REMARK                            x       y       z     vdW  Elec       q    Type
REMARK                         _______ _______ _______ _____ _____    ______ ____
ROOT
ATOM      1  N   UNL     1       4.168   2.909  -1.375  0.00  0.00    -0.277 N 
ATOM      2  C   UNL     1       3.554   3.907  -0.499  0.00  0.00    +0.115 C 
ATOM      3  C   UNL     1       2.233   3.517   0.062  0.00  0.00    +0.100 C 
ATOM      4  C   UNL     1       1.026   4.045  -0.679  0.00  0.00    +0.048 C 
ATOM      5  C   UNL     1       1.173   5.511  -1.026  0.00  0.00    +0.146 C 
ATOM      6  C   UNL     1       2.426   5.794  -1.814  0.00  0.00    +0.165 C 
ATOM      7  C   UNL     1       3.696   5.225  -1.226  0.00  0.00    +0.124 C 
ATOM      8  N   UNL     1       4.609   4.890  -2.346  0.00  0.00    -0.319 N 
ATOM      9  C   UNL     1       4.781   3.560  -2.379  0.00  0.00    +0.138 C 
ATOM     10  S   UNL     1       5.696   2.765  -3.588  0.00  0.00    -0.018 S 
ATOM     11  H   UNL     1       5.014   5.527  -2.955  0.00  0.00    +0.148 HD
ENDROOT
BRANCH   1  15
ATOM     12  C   UNL     1       4.040  -1.226  -0.850  0.00  0.00    +0.029 A 
ATOM     13  C   UNL     1       3.764  -0.675  -2.095  0.00  0.00    +0.025 A 
ATOM     14  C   UNL     1       3.807   0.694  -2.268  0.00  0.00    +0.025 A 
ATOM     15  C   UNL     1       4.125   1.520  -1.199  0.00  0.00    +0.036 A 
ATOM     16  C   UNL     1       4.406   0.969   0.044  0.00  0.00    +0.025 A 
ATOM     17  C   UNL     1       4.358  -0.400   0.220  0.00  0.00    +0.025 A 
BRANCH  12  19
ATOM     18  C   UNL     1       3.784  -3.492  -1.827  0.00  0.00    +0.129 C 
ATOM     19  N   UNL     1       3.996  -2.614  -0.674  0.00  0.00    -0.336 N 
ATOM     20  C   UNL     1       4.163  -3.188   0.664  0.00  0.00    +0.129 C 
ENDBRANCH  12  19
ENDBRANCH   1  15
BRANCH   3  21
ATOM     21  C   UNL     1       2.154   2.012   0.081  0.00  0.00    +0.221 C 
ATOM     22  O   UNL     1       2.421   1.404   1.096  0.00  0.00    -0.275 OA
ATOM     23  N   UNL     1       1.788   1.343  -1.030  0.00  0.00    -0.300 N 
ATOM     24  C   UNL     1       1.649   2.055  -2.302  0.00  0.00    +0.132 C 
BRANCH  23  25
ATOM     25  C   UNL     1       1.535  -0.099  -0.966  0.00  0.00    +0.142 C 
BRANCH  25  26
ATOM     26  C   UNL     1       0.104  -0.340  -0.557  0.00  0.00    -0.030 A 
ATOM     27  C   UNL     1      -0.206  -0.568   0.771  0.00  0.00    +0.005 A 
ATOM     28  C   UNL     1      -1.518  -0.785   1.147  0.00  0.00    +0.000 A 
ATOM     29  C   UNL     1      -2.519  -0.783   0.193  0.00  0.00    +0.000 A 
ATOM     30  C   UNL     1      -2.208  -0.560  -1.135  0.00  0.00    +0.000 A 
ATOM     31  C   UNL     1      -0.896  -0.339  -1.510  0.00  0.00    +0.005 A 
ENDBRANCH  25  26
ENDBRANCH  23  25
ENDBRANCH   3  21
BRANCH   6  32
ATOM     32  O   UNL     1       2.260   5.260  -3.129  0.00  0.00    -0.387 OA
ATOM     33  H   UNL     1       1.466   5.573  -3.583  0.00  0.00    +0.210 HD
ENDBRANCH   6  32
BRANCH   5  34
ATOM     34  O   UNL     1       1.206   6.272   0.184  0.00  0.00    -0.389 OA
ATOM     35  H   UNL     1       0.432   6.145   0.749  0.00  0.00    +0.210 HD
ENDBRANCH   5  34
TORSDOF 7
