REMARK  Name = ZINC12900696
REMARK  12 active torsions:
REMARK  status: ('A' for Active; 'I' for Inactive)
REMARK    1  A    between atoms: C_1  and  C_2
REMARK    2  A    between atoms: C_3  and  C_21
REMARK    3  A    between atoms: C_9  and  O_19
REMARK    4  A    between atoms: C_15  and  C_17
REMARK    5  A    between atoms: C_15  and  C_18
REMARK    6  A    between atoms: O_19  and  C_20
REMARK    7  A    between atoms: C_21  and  C_22
REMARK    8  A    between atoms: N_24  and  C_25
REMARK    9  A    between atoms: C_25  and  C_26
REMARK   10  A    between atoms: C_26  and  C_27
REMARK   11  A    between atoms: C_34  and  O_37
REMARK   12  A    between atoms: O_37  and  C_38
REMARK                            x       y       z     vdW  Elec       q    Type
REMARK                         _______ _______ _______ _____ _____    ______ ____
ROOT
ATOM      1  C   UNL     1       9.822   3.547  -4.243  0.00  0.00    +0.045 C 
ATOM      2  C   UNL     1       9.841   2.159  -4.829  0.00  0.00    -0.026 A 
ATOM      3  C   UNL     1       9.222   1.131  -4.192  0.00  0.00    +0.049 A 
ATOM      4  C   UNL     1       9.253  -0.162  -4.751  0.00  0.00    +0.341 A 
ATOM      5  O   UNL     1       8.701  -1.080  -4.171  0.00  0.00    -0.245 OA
ATOM      6  O   UNL     1       9.878  -0.398  -5.918  0.00  0.00    -0.421 OA
ATOM      7  C   UNL     1      10.505   0.598  -6.582  0.00  0.00    +0.149 A 
ATOM      8  C   UNL     1      10.503   1.902  -6.056  0.00  0.00    +0.063 A 
ATOM      9  C   UNL     1      11.157   2.934  -6.751  0.00  0.00    +0.134 A 
ATOM     10  C   UNL     1      11.791   2.655  -7.944  0.00  0.00    +0.092 A 
ATOM     11  C   UNL     1      11.790   1.359  -8.463  0.00  0.00    +0.131 A 
ATOM     12  C   UNL     1      11.151   0.337  -7.784  0.00  0.00    +0.038 A 
ATOM     13  C   UNL     1      11.138  -1.074  -8.317  0.00  0.00    +0.046 C 
ATOM     14  C   UNL     1      11.497  -1.067  -9.805  0.00  0.00    +0.052 C 
ATOM     15  C   UNL     1      12.751  -0.203  -9.991  0.00  0.00    +0.105 C 
ATOM     16  O   UNL     1      12.426   1.143  -9.643  0.00  0.00    -0.486 OA
ATOM     17  C   UNL     1      13.205  -0.263 -11.451  0.00  0.00    +0.055 C 
ATOM     18  C   UNL     1      13.870  -0.715  -9.082  0.00  0.00    +0.055 C 
ENDROOT
BRANCH   9  19
ATOM     19  O   UNL     1      11.165   4.196  -6.253  0.00  0.00    -0.494 OA
ATOM     20  C   UNL     1      11.850   5.191  -7.016  0.00  0.00    +0.277 C 
ENDBRANCH   9  19
BRANCH   3  21
ATOM     21  C   UNL     1       8.511   1.371  -2.885  0.00  0.00    +0.138 C 
BRANCH  21  22
ATOM     22  C   UNL     1       7.073   1.735  -3.156  0.00  0.00    +0.218 C 
ATOM     23  O   UNL     1       6.667   1.793  -4.297  0.00  0.00    -0.275 OA
ATOM     24  N   UNL     1       6.239   1.996  -2.130  0.00  0.00    -0.315 N 
ATOM     25  H   UNL     1       6.564   1.949  -1.217  0.00  0.00    +0.149 HD
BRANCH  24  26
ATOM     26  C   UNL     1       4.842   2.349  -2.393  0.00  0.00    +0.109 C 
BRANCH  26  27
ATOM     27  C   UNL     1       4.120   2.593  -1.066  0.00  0.00    +0.056 C 
BRANCH  27  28
ATOM     28  C   UNL     1       2.682   2.957  -1.337  0.00  0.00    -0.021 A 
ATOM     29  C   UNL     1       2.177   4.197  -1.431  0.00  0.00    +0.087 A 
ATOM     30  N   UNL     1       0.834   4.136  -1.683  0.00  0.00    -0.360 N 
ATOM     31  H   UNL     1       0.251   4.904  -1.792  0.00  0.00    +0.165 HD
ATOM     32  C   UNL     1       0.431   2.819  -1.760  0.00  0.00    +0.047 A 
ATOM     33  C   UNL     1       1.572   2.024  -1.547  0.00  0.00    +0.006 A 
ATOM     34  C   UNL     1       1.467   0.632  -1.567  0.00  0.00    +0.056 A 
ATOM     35  C   UNL     1       0.239   0.044  -1.798  0.00  0.00    +0.121 A 
ATOM     36  C   UNL     1      -0.888   0.833  -2.009  0.00  0.00    +0.047 A 
ATOM     37  C   UNL     1      -0.796   2.207  -1.991  0.00  0.00    +0.030 A 
BRANCH  35  38
ATOM     38  O   UNL     1       0.131  -1.311  -1.820  0.00  0.00    -0.495 OA
ATOM     39  C   UNL     1      -1.168  -1.854  -2.064  0.00  0.00    +0.277 C 
ENDBRANCH  35  38
ENDBRANCH  27  28
ENDBRANCH  26  27
ENDBRANCH  24  26
ENDBRANCH  21  22
ENDBRANCH   3  21
TORSDOF 7
