REMARK  Name = ZINC04838394
REMARK  7 active torsions:
REMARK  status: ('A' for Active; 'I' for Inactive)
REMARK    1  A    between atoms: C_1  and  C_2
REMARK    2  A    between atoms: C_6  and  N_8
REMARK    3  A    between atoms: C_12  and  S_14
REMARK    4  A    between atoms: S_14  and  C_15
REMARK    5  A    between atoms: C_15  and  C_16
REMARK    6  A    between atoms: N_18  and  C_19
REMARK    7  A    between atoms: C_19  and  C_25
REMARK                            x       y       z     vdW  Elec       q    Type
REMARK                         _______ _______ _______ _____ _____    ______ ____
ROOT
ATOM      1  N   UNL     1       0.050  -2.797   2.390  0.00  0.00    -0.292 N 
ATOM      2  C   UNL     1      -0.037  -4.185   2.383  0.00  0.00    +0.187 A 
ATOM      3  N   UNL     1      -0.044  -5.016   1.359  0.00  0.00    -0.125 NA
ATOM      4  N   UNL     1      -0.139  -6.371   1.578  0.00  0.00    -0.133 NA
ATOM      5  C   UNL     1      -0.222  -6.832   2.811  0.00  0.00    +0.160 A 
ATOM      6  S   UNL     1      -0.161  -5.319   3.757  0.00  0.00    -0.024 S 
ATOM      7  H   UNL     1       0.129  -2.321   3.232  0.00  0.00    +0.154 HD
ENDROOT
BRANCH   1  13
ATOM      8  C   UNL     1      -1.263  -2.539  -2.339  0.00  0.00    +0.044 C 
ATOM      9  C   UNL     1      -0.605  -1.940  -1.123  0.00  0.00    -0.049 A 
ATOM     10  C   UNL     1      -0.025  -0.686  -1.198  0.00  0.00    +0.003 A 
ATOM     11  C   UNL     1       0.580  -0.133  -0.085  0.00  0.00    +0.002 A 
ATOM     12  C   UNL     1       0.607  -0.830   1.107  0.00  0.00    +0.023 A 
ATOM     13  C   UNL     1       0.025  -2.089   1.186  0.00  0.00    +0.033 A 
ATOM     14  C   UNL     1      -0.587  -2.640   0.067  0.00  0.00    +0.026 A 
ENDBRANCH   1  13
BRANCH   5  15
ATOM     15  S   UNL     1      -0.353  -8.497   3.374  0.00  0.00    -0.088 S 
BRANCH  15  16
ATOM     16  C   UNL     1      -0.347  -9.478   1.848  0.00  0.00    +0.172 C 
BRANCH  16  17
ATOM     17  C   UNL     1      -0.456 -10.941   2.192  0.00  0.00    +0.224 C 
ATOM     18  O   UNL     1      -0.529 -11.288   3.351  0.00  0.00    -0.275 OA
ATOM     19  N   UNL     1      -0.471 -11.864   1.210  0.00  0.00    -0.297 N 
ATOM     20  H   UNL     1      -0.412 -11.587   0.282  0.00  0.00    +0.150 HD
BRANCH  19  21
ATOM     21  C   UNL     1      -0.576 -13.287   1.544  0.00  0.00    +0.121 C 
ATOM     22  C   UNL     1       0.613 -13.695   2.417  0.00  0.00    +0.041 C 
ATOM     23  C   UNL     1       0.503 -15.181   2.765  0.00  0.00    +0.003 C 
ATOM     24  C   UNL     1       0.507 -16.008   1.478  0.00  0.00    +0.000 C 
ATOM     25  C   UNL     1      -0.681 -15.600   0.605  0.00  0.00    +0.003 C 
ATOM     26  C   UNL     1      -0.571 -14.114   0.257  0.00  0.00    +0.041 C 
BRANCH  21  27
ATOM     27  C   UNL     1      -1.829 -13.527   2.277  0.00  0.00    +0.088 C 
ATOM     28  N   UNL     1      -2.796 -13.713   2.843  0.00  0.00    -0.194 NA
ENDBRANCH  21  27
ENDBRANCH  19  21
ENDBRANCH  16  17
ENDBRANCH  15  16
ENDBRANCH   5  15
TORSDOF 6
