REMARK  Name = ZINC21334477
REMARK  8 active torsions:
REMARK  status: ('A' for Active; 'I' for Inactive)
REMARK    1  A    between atoms: C_1  and  C_2
REMARK    2  A    between atoms: C_5  and  C_30
REMARK    3  A    between atoms: N_8  and  C_10
REMARK    4  A    between atoms: C_10  and  C_12
REMARK    5  A    between atoms: C_10  and  C_13
REMARK    6  A    between atoms: N_15  and  C_16
REMARK    7  A    between atoms: C_19  and  S_22
REMARK    8  A    between atoms: S_22  and  N_25
REMARK                            x       y       z     vdW  Elec       q    Type
REMARK                         _______ _______ _______ _____ _____    ______ ____
ROOT
ATOM      1  C   UNL     1       2.323   4.167   0.266  0.00  0.00    +0.203 C 
ATOM      2  O   UNL     1       3.353   3.574   0.025  0.00  0.00    -0.277 OA
ATOM      3  N   UNL     1       1.205   3.480   0.571  0.00  0.00    -0.287 N 
ATOM      4  H   UNL     1       0.254   4.014   0.718  0.00  0.00    +0.155 HD
ENDROOT
BRANCH   3   5
ATOM      5  C   UNL     1       1.252   2.088   0.700  0.00  0.00    +0.033 A 
ATOM      6  C   UNL     1       0.461   1.449   1.646  0.00  0.00    +0.025 A 
ATOM      7  C   UNL     1       0.510   0.075   1.771  0.00  0.00    +0.030 A 
ATOM      8  C   UNL     1       1.346  -0.666   0.955  0.00  0.00    +0.106 A 
ATOM      9  C   UNL     1       2.135  -0.033   0.013  0.00  0.00    +0.030 A 
ATOM     10  C   UNL     1       2.091   1.341  -0.117  0.00  0.00    +0.025 A 
BRANCH   8  11
ATOM     11  S   UNL     1       1.405  -2.419   1.118  0.00  0.00    +0.061 S 
ATOM     12  O   UNL     1       2.667  -2.832   0.612  0.00  0.00    -0.153 OA
ATOM     13  O   UNL     1       0.979  -2.720   2.440  0.00  0.00    -0.153 OA
BRANCH  11  14
ATOM     14  N   UNL     1       0.259  -3.044   0.098  0.00  0.00    -0.177 NA
ATOM     15  C   UNL     1      -1.141  -3.320   0.449  0.00  0.00    +0.109 C 
ATOM     16  C   UNL     1      -1.819  -3.915  -0.804  0.00  0.00    +0.018 C 
ATOM     17  C   UNL     1      -0.619  -4.474  -1.613  0.00  0.00    +0.018 C 
ATOM     18  C   UNL     1       0.477  -3.422  -1.310  0.00  0.00    +0.109 C 
ENDBRANCH  11  14
ENDBRANCH   8  11
ENDBRANCH   3   5
BRANCH   1  19
ATOM     19  C   UNL     1       2.295   5.673   0.225  0.00  0.00    +0.016 C 
ATOM     20  C   UNL     1       1.547   6.135  -1.027  0.00  0.00    -0.004 C 
BRANCH  19  26
ATOM     21  C   UNL     1       5.194   9.580   0.948  0.00  0.00    +0.005 C 
ATOM     22  C   UNL     1       5.159   8.086   0.623  0.00  0.00    -0.031 C 
ATOM     23  C   UNL     1       5.861   7.837  -0.715  0.00  0.00    +0.003 C 
ATOM     24  C   UNL     1       5.769   6.348  -1.062  0.00  0.00    -0.031 C 
ATOM     25  C   UNL     1       4.297   5.931  -1.111  0.00  0.00    -0.075 C 
ATOM     26  N   UNL     1       3.670   6.189   0.192  0.00  0.00    +0.387 N 
ATOM     27  C   UNL     1       3.705   7.618   0.524  0.00  0.00    -0.075 C 
ATOM     28  C   UNL     1       6.496   5.529   0.006  0.00  0.00    +0.005 C 
ATOM     29  H   UNL     1       4.252   5.652   0.955  0.00  0.00    -0.081 HD
ENDBRANCH  19  26
ENDBRANCH   1  19
TORSDOF 5
