REMARK  Name = ZINC24719163
REMARK  9 active torsions:
REMARK  status: ('A' for Active; 'I' for Inactive)
REMARK    1  A    between atoms: C_1  and  C_2
REMARK    2  A    between atoms: C_2  and  C_3
REMARK    3  A    between atoms: C_6  and  C_9
REMARK    4  A    between atoms: C_9  and  C_11
REMARK    5  A    between atoms: C_9  and  N_12
REMARK    6  A    between atoms: C_13  and  C_15
REMARK    7  A    between atoms: C_15  and  N_16
REMARK    8  A    between atoms: C_19  and  C_23
REMARK    9  A    between atoms: C_19  and  C_24
REMARK                            x       y       z     vdW  Elec       q    Type
REMARK                         _______ _______ _______ _____ _____    ______ ____
ROOT
ATOM      1  N   UNL     1      -3.798  -2.024   2.354  0.00  0.00    -0.215 N 
ATOM      2  C   UNL     1      -3.660  -3.157   1.637  0.00  0.00    +0.251 C 
ATOM      3  O   UNL     1      -3.502  -3.251   0.438  0.00  0.00    -0.272 OA
ATOM      4  C   UNL     1      -3.741  -4.290   2.641  0.00  0.00    +0.135 C 
ATOM      5  N   UNL     1      -3.941  -3.599   3.926  0.00  0.00    -0.281 N 
ATOM      6  C   UNL     1      -3.961  -2.282   3.657  0.00  0.00    +0.310 C 
ATOM      7  O   UNL     1      -4.109  -1.421   4.502  0.00  0.00    -0.252 OA
ATOM      8  C   UNL     1      -4.929  -5.201   2.328  0.00  0.00    +0.047 C 
ATOM      9  H   UNL     1      -4.040  -4.182   4.854  0.00  0.00    +0.152 HD
ENDROOT
BRANCH   4  10
ATOM     10  C   UNL     1      -2.458  -5.081   2.658  0.00  0.00    -0.012 A 
ATOM     11  C   UNL     1      -1.740  -5.256   1.490  0.00  0.00    +0.010 A 
ATOM     12  C   UNL     1      -0.563  -5.982   1.502  0.00  0.00    +0.050 A 
ATOM     13  C   UNL     1      -0.101  -6.537   2.686  0.00  0.00    +0.162 A 
ATOM     14  C   UNL     1      -0.822  -6.359   3.860  0.00  0.00    +0.162 A 
ATOM     15  C   UNL     1      -1.999  -5.626   3.842  0.00  0.00    +0.055 A 
ATOM     16  O   UNL     1      -0.385  -6.891   5.034  0.00  0.00    -0.485 OA
ATOM     17  C   UNL     1       0.598  -7.929   4.943  0.00  0.00    +0.270 C 
ATOM     18  C   UNL     1       1.678  -7.482   3.949  0.00  0.00    +0.270 C 
ATOM     19  O   UNL     1       1.055  -7.256   2.680  0.00  0.00    -0.485 OA
ENDBRANCH   4  10
BRANCH   1  20
ATOM     20  C   UNL     1      -3.779  -0.678   1.777  0.00  0.00    +0.213 C 
BRANCH  20  22
ATOM     21  N   UNL     1      -2.103   1.072   1.277  0.00  0.00    -0.307 N 
ATOM     22  C   UNL     1      -2.365  -0.156   1.766  0.00  0.00    +0.231 C 
ATOM     23  O   UNL     1      -1.462  -0.842   2.198  0.00  0.00    -0.274 OA
ATOM     24  H   UNL     1      -2.922   1.694   0.886  0.00  0.00    +0.149 HD
BRANCH  21  25
ATOM     25  C   UNL     1      -0.729   1.579   1.267  0.00  0.00    +0.100 C 
ATOM     26  C   UNL     1      -0.013   1.086   0.008  0.00  0.00    +0.033 C 
BRANCH  25  30
ATOM     27  C   UNL     1      -0.786   5.851   1.290  0.00  0.00    -0.048 A 
ATOM     28  C   UNL     1       0.147   5.168   2.047  0.00  0.00    +0.004 A 
ATOM     29  C   UNL     1       0.166   3.785   2.040  0.00  0.00    +0.006 A 
ATOM     30  C   UNL     1      -0.749   3.086   1.275  0.00  0.00    -0.027 A 
ATOM     31  C   UNL     1      -1.679   3.769   0.514  0.00  0.00    +0.006 A 
ATOM     32  C   UNL     1      -1.701   5.151   0.525  0.00  0.00    +0.004 A 
BRANCH  27  34
ATOM     33  C   UNL     1       0.103   7.887   0.189  0.00  0.00    +0.009 C 
ATOM     34  C   UNL     1      -0.808   7.357   1.299  0.00  0.00    +0.032 C 
ENDBRANCH  27  34
ENDBRANCH  25  30
ENDBRANCH  21  25
ENDBRANCH  20  22
ENDBRANCH   1  20
TORSDOF 6
