REMARK  Name = ZINC34997816
REMARK  14 active torsions:
REMARK  status: ('A' for Active; 'I' for Inactive)
REMARK    1  A    between atoms: C_1  and  C_2
REMARK    2  A    between atoms: C_2  and  C_3
REMARK    3  A    between atoms: C_3  and  C_4
REMARK    4  A    between atoms: C_4  and  N_5
REMARK    5  A    between atoms: N_11  and  C_14
REMARK    6  A    between atoms: C_14  and  C_15
REMARK    7  A    between atoms: C_15  and  N_16
REMARK    8  A    between atoms: N_16  and  C_17
REMARK    9  A    between atoms: C_17  and  C_18
REMARK   10  A    between atoms: C_26  and  C_27
REMARK   11  A    between atoms: C_26  and  C_28
REMARK   12  A    between atoms: C_29  and  C_31
REMARK   13  A    between atoms: C_34  and  O_37
REMARK   14  A    between atoms: O_37  and  C_38
REMARK                            x       y       z     vdW  Elec       q    Type
REMARK                         _______ _______ _______ _____ _____    ______ ____
ROOT
ATOM      1  N   UNL     1      -9.745  -8.277  -1.754  0.00  0.00    -0.295 N 
ATOM      2  C   UNL     1     -11.035  -7.889  -1.800  0.00  0.00    +0.247 C 
ATOM      3  O   UNL     1     -11.684  -8.059  -2.814  0.00  0.00    -0.270 OA
ENDROOT
BRANCH   2   4
ATOM      4  C   UNL     1     -11.660  -7.260  -0.621  0.00  0.00    +0.037 A 
ATOM      5  C   UNL     1     -10.876  -6.551   0.293  0.00  0.00    +0.016 A 
ATOM      6  C   UNL     1     -11.462  -5.964   1.392  0.00  0.00    +0.046 A 
ATOM      7  C   UNL     1     -12.833  -6.076   1.593  0.00  0.00    +0.120 A 
ATOM      8  C   UNL     1     -13.617  -6.780   0.686  0.00  0.00    +0.046 A 
ATOM      9  C   UNL     1     -13.039  -7.365  -0.418  0.00  0.00    +0.016 A 
BRANCH   7  10
ATOM     10  O   UNL     1     -13.407  -5.497   2.678  0.00  0.00    -0.495 OA
ATOM     11  C   UNL     1     -14.821  -5.652   2.823  0.00  0.00    +0.277 C 
ENDBRANCH   7  10
ENDBRANCH   2   4
BRANCH   1  12
ATOM     12  C   UNL     1      -8.988  -8.151  -0.506  0.00  0.00    +0.090 C 
BRANCH  12  13
ATOM     13  C   UNL     1      -7.964  -7.022  -0.643  0.00  0.00    -0.059 C 
BRANCH  13  20
ATOM     14  N   UNL     1      -2.957  -5.651   2.725  0.00  0.00    -0.299 N 
ATOM     15  C   UNL     1      -3.634  -6.809   2.596  0.00  0.00    +0.302 C 
ATOM     16  O   UNL     1      -3.074  -7.867   2.809  0.00  0.00    -0.253 OA
ATOM     17  N   UNL     1      -4.931  -6.794   2.231  0.00  0.00    -0.289 N 
ATOM     18  C   UNL     1      -5.599  -5.536   1.863  0.00  0.00    +0.091 C 
ATOM     19  C   UNL     1      -6.307  -5.737   0.519  0.00  0.00    -0.059 C 
ATOM     20  N   UNL     1      -7.205  -6.895   0.608  0.00  0.00    +0.383 N 
ATOM     21  C   UNL     1      -6.422  -8.118   0.829  0.00  0.00    -0.059 C 
ATOM     22  C   UNL     1      -5.718  -8.036   2.183  0.00  0.00    +0.091 C 
ATOM     23  H   UNL     1      -3.381  -4.812   2.486  0.00  0.00    +0.150 HD
ATOM     24  H   UNL     1      -7.846  -6.765   1.377  0.00  0.00    -0.082 HD
BRANCH  14  25
ATOM     25  C   UNL     1      -1.580  -5.659   3.227  0.00  0.00    +0.106 C 
BRANCH  25  26
ATOM     26  C   UNL     1      -1.047  -4.226   3.276  0.00  0.00    +0.018 C 
BRANCH  26  28
ATOM     27  C   UNL     1       0.924  -2.801   3.849  0.00  0.00    +0.004 C 
ATOM     28  C   UNL     1       0.391  -4.234   3.800  0.00  0.00    -0.002 C 
ENDBRANCH  26  28
ENDBRANCH  25  26
ENDBRANCH  14  25
ENDBRANCH  13  20
ENDBRANCH  12  13
ENDBRANCH   1  12
BRANCH   1  29
ATOM     29  C   UNL     1      -9.101  -8.823  -2.950  0.00  0.00    +0.138 C 
BRANCH  29  30
ATOM     30  C   UNL     1      -9.185 -10.328  -2.923  0.00  0.00    -0.053 C 
ATOM     31  C   UNL     1     -10.135 -10.969  -3.565  0.00  0.00    -0.025 C 
ATOM     32  C   UNL     1     -10.188 -12.476  -3.506  0.00  0.00    +0.031 C 
ATOM     33  C   UNL     1      -8.989 -13.006  -2.707  0.00  0.00    -0.000 C 
ATOM     34  C   UNL     1      -7.667 -12.321  -3.092  0.00  0.00    +0.012 C 
ATOM     35  C   UNL     1      -8.171 -11.161  -2.159  0.00  0.00    +0.022 C 
ATOM     36  C   UNL     1      -8.868 -12.278  -1.352  0.00  0.00    -0.025 C 
ATOM     37  C   UNL     1     -10.212 -11.865  -0.749  0.00  0.00    +0.012 C 
ATOM     38  C   UNL     1      -7.951 -12.983  -0.351  0.00  0.00    +0.012 C 
ENDBRANCH  29  30
ENDBRANCH   1  29
TORSDOF 10
