REMARK  Name = ZINC09490704
REMARK  8 active torsions:
REMARK  status: ('A' for Active; 'I' for Inactive)
REMARK    1  A    between atoms: C_1  and  C_2
REMARK    2  A    between atoms: C_7  and  N_12
REMARK    3  A    between atoms: C_9  and  C_11
REMARK    4  A    between atoms: C_13  and  C_15
REMARK    5  A    between atoms: C_23  and  C_33
REMARK    6  A    between atoms: N_29  and  C_30
REMARK    7  A    between atoms: C_30  and  C_31
REMARK    8  A    between atoms: N_35  and  C_36
REMARK                            x       y       z     vdW  Elec       q    Type
REMARK                         _______ _______ _______ _____ _____    ______ ____
ROOT
ATOM      1  C   UNL     1       0.155   1.343   1.040  0.00  0.00    +0.199 C 
ATOM      2  C   UNL     1       1.579   1.758   0.834  0.00  0.00    +0.127 C 
ATOM      3  C   UNL     1       1.769   3.263   0.894  0.00  0.00    +0.009 C 
ATOM      4  C   UNL     1       3.064   3.469   0.706  0.00  0.00    +0.004 C 
ATOM      5  C   UNL     1       3.658   2.075   0.467  0.00  0.00    +0.155 C 
ATOM      6  O   UNL     1       2.787   1.235   1.334  0.00  0.00    -0.358 OA
ATOM      7  C   UNL     1       3.139   1.737  -0.984  0.00  0.00    +0.123 C 
ATOM      8  C   UNL     1       1.710   1.292  -0.671  0.00  0.00    +0.128 C 
ATOM      9  C   UNL     1       0.467   1.854  -1.229  0.00  0.00    +0.224 C 
ATOM     10  O   UNL     1       0.313   2.294  -2.349  0.00  0.00    -0.275 OA
ATOM     11  N   UNL     1      -0.483   1.785  -0.239  0.00  0.00    -0.283 N 
ENDROOT
BRANCH   1  13
ATOM     12  N   UNL     1      -0.343   1.534   3.456  0.00  0.00    -0.311 N 
ATOM     13  C   UNL     1      -0.450   2.061   2.220  0.00  0.00    +0.237 C 
ATOM     14  O   UNL     1      -1.033   3.111   2.057  0.00  0.00    -0.274 OA
ATOM     15  H   UNL     1       0.124   0.693   3.586  0.00  0.00    +0.149 HD
BRANCH  12  21
ATOM     16  C   UNL     1      -3.144   2.639   6.478  0.00  0.00    +0.008 C 
ATOM     17  C   UNL     1      -1.848   1.950   6.909  0.00  0.00    -0.009 C 
ATOM     18  C   UNL     1      -0.862   2.997   7.429  0.00  0.00    +0.003 C 
ATOM     19  C   UNL     1      -0.558   4.006   6.320  0.00  0.00    +0.002 C 
ATOM     20  C   UNL     1       0.056   3.279   5.123  0.00  0.00    +0.022 C 
ATOM     21  C   UNL     1      -0.930   2.231   4.603  0.00  0.00    +0.076 C 
ATOM     22  C   UNL     1      -1.234   1.222   5.712  0.00  0.00    +0.009 C 
ATOM     23  C   UNL     1      -2.221   0.174   5.191  0.00  0.00    +0.009 C 
ENDBRANCH  12  21
ENDBRANCH   1  13
BRANCH   7  24
ATOM     24  C   UNL     1       3.163   2.959  -1.865  0.00  0.00    +0.224 C 
ATOM     25  O   UNL     1       2.132   3.384  -2.342  0.00  0.00    -0.275 OA
ATOM     26  N   UNL     1       4.331   3.580  -2.125  0.00  0.00    -0.285 N 
ATOM     27  H   UNL     1       5.163   3.202  -1.800  0.00  0.00    +0.155 HD
BRANCH  26  28
ATOM     28  C   UNL     1       4.343   4.769  -2.863  0.00  0.00    +0.033 A 
ATOM     29  C   UNL     1       3.444   4.950  -3.905  0.00  0.00    +0.025 A 
ATOM     30  C   UNL     1       3.454   6.126  -4.629  0.00  0.00    +0.022 A 
ATOM     31  C   UNL     1       4.367   7.120  -4.323  0.00  0.00    +0.041 A 
ATOM     32  C   UNL     1       5.267   6.941  -3.287  0.00  0.00    +0.022 A 
ATOM     33  C   UNL     1       5.258   5.768  -2.557  0.00  0.00    +0.025 A 
ATOM     34 CL   UNL     1       4.383   8.594  -5.239  0.00  0.00    -0.084 Cl
ENDBRANCH  26  28
ENDBRANCH   7  24
BRANCH  11  35
ATOM     35  C   UNL     1      -1.905   2.096  -0.411  0.00  0.00    +0.135 C 
BRANCH  35  36
ATOM     36  C   UNL     1      -2.625   0.881  -0.936  0.00  0.00    -0.016 C 
ATOM     37  C   UNL     1      -3.649   0.392  -0.282  0.00  0.00    +0.005 C 
ENDBRANCH  35  36
ENDBRANCH  11  35
TORSDOF 6
