REMARK  Name = ZINC41585517
REMARK  8 active torsions:
REMARK  status: ('A' for Active; 'I' for Inactive)
REMARK    1  A    between atoms: C_1  and  O_2
REMARK    2  A    between atoms: O_2  and  C_3
REMARK    3  A    between atoms: C_6  and  O_9
REMARK    4  A    between atoms: O_9  and  C_10
REMARK    5  A    between atoms: C_19  and  O_35
REMARK    6  A    between atoms: C_20  and  C_21
REMARK    7  A    between atoms: C_21  and  N_22
REMARK    8  A    between atoms: N_25  and  C_28
REMARK                            x       y       z     vdW  Elec       q    Type
REMARK                         _______ _______ _______ _____ _____    ______ ____
ROOT
ATOM      1  C   UNL     1       2.643  -3.838   4.268  0.00  0.00    +0.210 A 
ATOM      2  C   UNL     1       2.171  -4.614   3.271  0.00  0.00    +0.245 A 
ATOM      3  O   UNL     1       2.264  -5.950   3.286  0.00  0.00    -0.459 OA
ATOM      4  C   UNL     1       2.840  -6.623   4.303  0.00  0.00    +0.147 A 
ATOM      5  C   UNL     1       3.368  -5.915   5.397  0.00  0.00    +0.068 A 
ATOM      6  C   UNL     1       3.276  -4.445   5.390  0.00  0.00    +0.235 A 
ATOM      7  O   UNL     1       3.720  -3.776   6.308  0.00  0.00    -0.283 OA
ATOM      8  C   UNL     1       3.967  -6.601   6.455  0.00  0.00    +0.019 A 
ATOM      9  C   UNL     1       4.040  -7.965   6.424  0.00  0.00    +0.046 A 
ATOM     10  C   UNL     1       3.519  -8.673   5.343  0.00  0.00    +0.125 A 
ATOM     11  C   UNL     1       2.921  -8.008   4.286  0.00  0.00    +0.051 A 
ENDROOT
BRANCH  10  12
ATOM     12  O   UNL     1       3.598 -10.028   5.326  0.00  0.00    -0.506 OA
ATOM     13  H   UNL     1       2.840 -10.472   5.731  0.00  0.00    +0.292 HD
ENDBRANCH  10  12
BRANCH   1  14
ATOM     14  O   UNL     1       2.521  -2.485   4.199  0.00  0.00    -0.449 OA
BRANCH  14  18
ATOM     15  C   UNL     1       0.042  -0.623   6.925  0.00  0.00    +0.120 A 
ATOM     16  C   UNL     1       0.108  -2.007   6.881  0.00  0.00    +0.049 A 
ATOM     17  C   UNL     1       0.938  -2.631   5.969  0.00  0.00    +0.050 A 
ATOM     18  C   UNL     1       1.704  -1.871   5.097  0.00  0.00    +0.129 A 
ATOM     19  C   UNL     1       1.637  -0.486   5.140  0.00  0.00    +0.050 A 
ATOM     20  C   UNL     1       0.804   0.136   6.049  0.00  0.00    +0.049 A 
BRANCH  15  22
ATOM     21  C   UNL     1      -1.531  -0.853   8.694  0.00  0.00    +0.277 C 
ATOM     22  O   UNL     1      -0.775  -0.009   7.822  0.00  0.00    -0.495 OA
ENDBRANCH  15  22
ENDBRANCH  14  18
ENDBRANCH   1  14
BRANCH  11  23
ATOM     23  C   UNL     1       2.361  -8.785   3.123  0.00  0.00    +0.127 C 
BRANCH  23  24
ATOM     24  N   UNL     1       3.403  -8.958   2.102  0.00  0.00    -0.295 NA
ATOM     25  C   UNL     1       3.787  -7.666   1.517  0.00  0.00    +0.103 C 
ATOM     26  C   UNL     1       4.995  -7.865   0.595  0.00  0.00    +0.120 C 
ATOM     27  N   UNL     1       4.670  -8.918  -0.380  0.00  0.00    -0.325 N 
ATOM     28  C   UNL     1       4.147 -10.197   0.125  0.00  0.00    +0.120 C 
ATOM     29  C   UNL     1       2.973  -9.906   1.066  0.00  0.00    +0.103 C 
BRANCH  27  30
ATOM     30  C   UNL     1       4.853  -8.708  -1.750  0.00  0.00    +0.065 A 
ATOM     31  C   UNL     1       6.063  -9.034  -2.348  0.00  0.00    +0.026 A 
ATOM     32  C   UNL     1       6.241  -8.826  -3.702  0.00  0.00    +0.002 A 
ATOM     33  C   UNL     1       5.216  -8.294  -4.463  0.00  0.00    +0.003 A 
ATOM     34  C   UNL     1       4.009  -7.968  -3.872  0.00  0.00    +0.040 A 
ATOM     35  C   UNL     1       3.822  -8.178  -2.518  0.00  0.00    +0.144 A 
ATOM     36  F   UNL     1       2.641  -7.865  -1.942  0.00  0.00    -0.204 F 
ENDBRANCH  27  30
ENDBRANCH  23  24
ENDBRANCH  11  23
TORSDOF 7
