REMARK  Name = ZINC13064661
REMARK  14 active torsions:
REMARK  status: ('A' for Active; 'I' for Inactive)
REMARK    1  A    between atoms: C_1  and  C_2
REMARK    2  A    between atoms: C_2  and  C_3
REMARK    3  A    between atoms: C_3  and  C_5
REMARK    4  A    between atoms: C_3  and  N_70
REMARK    5  A    between atoms: N_9  and  C_10
REMARK    6  A    between atoms: C_10  and  C_11
REMARK    7  A    between atoms: C_14  and  O_17
REMARK    8  A    between atoms: O_17  and  C_18
REMARK    9  A    between atoms: C_19  and  C_20
REMARK   10  A    between atoms: C_19  and  N_70
REMARK   11  A    between atoms: C_25  and  C_26
REMARK   12  A    between atoms: C_25  and  N_70
REMARK   13  A    between atoms: C_30  and  C_39
REMARK   14  A    between atoms: C_31  and  C_38
REMARK                            x       y       z     vdW  Elec       q    Type
REMARK                         _______ _______ _______ _____ _____    ______ ____
ROOT
ATOM      1  N   UNL     1       0.510   3.926   1.517  0.00  0.00    +0.392 N 
ATOM      2  H   UNL     1       0.621   4.934   1.674  0.00  0.00    -0.080 HD
ENDROOT
BRANCH   1   3
ATOM      3  C   UNL     1      -0.884   3.542   1.823  0.00  0.00    +0.003 C 
BRANCH   3   4
ATOM      4  C   UNL     1      -1.256   4.099   3.173  0.00  0.00    +0.138 A 
ATOM      5  N   UNL     1      -0.535   4.050   4.266  0.00  0.00    -0.115 NA
ATOM      6  N   UNL     1      -1.195   4.635   5.205  0.00  0.00    -0.023 NA
ATOM      7  N   UNL     1      -2.319   5.056   4.739  0.00  0.00    -0.044 NA
ATOM      8  N   UNL     1      -2.392   4.750   3.488  0.00  0.00    -0.226 N 
BRANCH   8   9
ATOM      9  C   UNL     1      -3.503   5.051   2.582  0.00  0.00    +0.182 C 
BRANCH   9  10
ATOM     10  C   UNL     1      -4.497   3.919   2.612  0.00  0.00    -0.026 A 
ATOM     11  C   UNL     1      -4.370   2.865   1.726  0.00  0.00    +0.009 A 
ATOM     12  C   UNL     1      -5.277   1.823   1.756  0.00  0.00    +0.046 A 
ATOM     13  C   UNL     1      -6.322   1.841   2.669  0.00  0.00    +0.120 A 
ATOM     14  C   UNL     1      -6.450   2.902   3.553  0.00  0.00    +0.046 A 
ATOM     15  C   UNL     1      -5.537   3.939   3.522  0.00  0.00    +0.009 A 
BRANCH  13  16
ATOM     16  O   UNL     1      -7.218   0.820   2.697  0.00  0.00    -0.495 OA
ATOM     17  C   UNL     1      -7.024  -0.240   1.758  0.00  0.00    +0.277 C 
ENDBRANCH  13  16
ENDBRANCH   9  10
ENDBRANCH   8   9
ENDBRANCH   3   4
BRANCH   3  19
ATOM     18  C   UNL     1      -0.470   1.470   3.157  0.00  0.00    +0.002 C 
ATOM     19  C   UNL     1      -1.029   2.019   1.843  0.00  0.00    -0.011 C 
ENDBRANCH   3  19
ENDBRANCH   1   3
BRANCH   1  20
ATOM     20  C   UNL     1       1.441   3.197   2.405  0.00  0.00    -0.034 C 
BRANCH  20  21
ATOM     21  C   UNL     1       2.780   3.887   2.371  0.00  0.00    -0.027 A 
ATOM     22  C   UNL     1       3.245   4.888   3.157  0.00  0.00    +0.009 A 
ATOM     23  C   UNL     1       4.523   5.371   2.943  0.00  0.00    +0.008 A 
ATOM     24  C   UNL     1       5.273   4.828   1.954  0.00  0.00    +0.045 A 
ATOM     25  S   UNL     1       4.170   3.590   1.290  0.00  0.00    -0.103 S 
ENDBRANCH  20  21
ENDBRANCH   1  20
BRANCH   1  26
ATOM     26  C   UNL     1       0.819   3.623   0.104  0.00  0.00    -0.036 C 
BRANCH  26  27
ATOM     27  C   UNL     1       0.197   4.686  -0.765  0.00  0.00    +0.001 A 
ATOM     28  C   UNL     1       0.927   5.766  -1.139  0.00  0.00    +0.017 A 
ATOM     29  C   UNL     1       0.293   6.780  -1.983  0.00  0.00    -0.001 A 
ATOM     30  C   UNL     1       0.996   7.915  -2.401  0.00  0.00    +0.013 A 
ATOM     31  C   UNL     1       0.375   8.843  -3.188  0.00  0.00    -0.047 A 
ATOM     32  C   UNL     1      -0.946   8.670  -3.577  0.00  0.00    -0.046 A 
ATOM     33  C   UNL     1      -1.657   7.559  -3.178  0.00  0.00    +0.030 A 
ATOM     34  C   UNL     1      -1.046   6.601  -2.376  0.00  0.00    +0.049 A 
ATOM     35  N   UNL     1      -1.734   5.480  -1.961  0.00  0.00    -0.322 N 
ATOM     36  H   UNL     1      -2.657   5.357  -2.233  0.00  0.00    +0.169 HD
ATOM     37  C   UNL     1      -1.142   4.551  -1.190  0.00  0.00    +0.251 A 
ATOM     38  O   UNL     1      -1.778   3.570  -0.847  0.00  0.00    -0.268 OA
ATOM     39  C   UNL     1      -1.610   9.707  -4.446  0.00  0.00    +0.044 C 
ATOM     40  C   UNL     1       1.132  10.066  -3.638  0.00  0.00    +0.044 C 
ENDBRANCH  26  27
ENDBRANCH   1  26
TORSDOF 10
