REMARK  Name = ZINC64031868
REMARK  5 active torsions:
REMARK  status: ('A' for Active; 'I' for Inactive)
REMARK    1  A    between atoms: C_1  and  C_2
REMARK    2  A    between atoms: C_4  and  C_10
REMARK    3  A    between atoms: C_7  and  O_8
REMARK    4  A    between atoms: O_8  and  C_9
REMARK    5  A    between atoms: C_25  and  C_27
REMARK                            x       y       z     vdW  Elec       q    Type
REMARK                         _______ _______ _______ _____ _____    ______ ____
ROOT
ATOM      1  C   UNL     1       0.039  -2.823  -2.512  0.00  0.00    +0.133 C 
ATOM      2  C   UNL     1       1.472  -3.198  -2.905  0.00  0.00    +0.131 C 
ATOM      3  C   UNL     1       1.362  -4.175  -4.069  0.00  0.00    -0.035 C 
ATOM      4  C   UNL     1       2.071  -3.655  -5.063  0.00  0.00    -0.001 A 
ATOM      5  C   UNL     1       2.394  -4.163  -6.406  0.00  0.00    +0.010 A 
ATOM      6  C   UNL     1       3.150  -3.349  -7.190  0.00  0.00    +0.001 A 
ATOM      7  C   UNL     1       3.611  -2.095  -6.776  0.00  0.00    +0.002 A 
ATOM      8  C   UNL     1       3.365  -1.551  -5.558  0.00  0.00    +0.026 A 
ATOM      9  C   UNL     1       2.584  -2.315  -4.643  0.00  0.00    +0.043 A 
ATOM     10  N   UNL     1       2.221  -2.043  -3.402  0.00  0.00    -0.375 N 
ATOM     11  C   UNL     1       0.512  -5.420  -4.004  0.00  0.00    +0.052 C 
ATOM     12  C   UNL     1      -0.881  -4.981  -3.518  0.00  0.00    +0.113 C 
ATOM     13  N   UNL     1      -0.735  -4.067  -2.380  0.00  0.00    -0.290 N 
ATOM     14  C   UNL     1      -1.313  -4.371  -1.201  0.00  0.00    +0.241 C 
ATOM     15  O   UNL     1      -1.282  -3.575  -0.287  0.00  0.00    -0.273 OA
ATOM     16  H   UNL     1       2.405  -1.230  -2.906  0.00  0.00    +0.160 HD
ENDROOT
BRANCH  14  17
ATOM     17  C   UNL     1      -1.998  -5.701  -1.019  0.00  0.00    +0.207 C 
ATOM     18  C   UNL     1      -3.405  -5.660  -1.571  0.00  0.00    -0.001 C 
ATOM     19  C   UNL     1      -4.248  -5.544  -0.560  0.00  0.00    +0.127 C 
ATOM     20  C   UNL     1      -5.752  -5.480  -0.728  0.00  0.00    +0.076 C 
ATOM     21  C   UNL     1      -6.070  -5.134  -2.185  0.00  0.00    +0.008 C 
ATOM     22  C   UNL     1      -5.291  -6.073  -3.112  0.00  0.00    +0.005 C 
ATOM     23  C   UNL     1      -3.798  -5.737  -3.025  0.00  0.00    +0.036 C 
ATOM     24  O   UNL     1      -3.595  -5.481   0.628  0.00  0.00    -0.410 OA
ATOM     25  N   UNL     1      -2.221  -5.987   0.423  0.00  0.00    -0.140 NA
ATOM     26  H   UNL     1      -1.559  -5.486   0.997  0.00  0.00    +0.168 HD
ENDBRANCH  14  17
BRANCH   1  30
ATOM     27  C   UNL     1      -1.656   0.895   0.376  0.00  0.00    +0.047 C 
ATOM     28  C   UNL     1      -0.765  -0.305   0.183  0.00  0.00    -0.008 A 
ATOM     29  C   UNL     1      -0.770  -0.983  -1.021  0.00  0.00    +0.012 A 
ATOM     30  C   UNL     1       0.047  -2.085  -1.198  0.00  0.00    -0.024 A 
ATOM     31  C   UNL     1       0.870  -2.510  -0.172  0.00  0.00    +0.009 A 
ATOM     32  C   UNL     1       0.879  -1.836   1.033  0.00  0.00    +0.046 A 
ATOM     33  C   UNL     1       0.064  -0.727   1.212  0.00  0.00    +0.123 A 
BRANCH  33  34
ATOM     34  O   UNL     1       0.075  -0.059   2.395  0.00  0.00    -0.495 OA
ATOM     35  C   UNL     1       0.954  -0.549   3.409  0.00  0.00    +0.277 C 
ENDBRANCH  33  34
ENDBRANCH   1  30
TORSDOF 3
