REMARK  Name = ZINC35645023
REMARK  13 active torsions:
REMARK  status: ('A' for Active; 'I' for Inactive)
REMARK    1  A    between atoms: C_1  and  C_2
REMARK    2  A    between atoms: C_2  and  O_3
REMARK    3  A    between atoms: O_3  and  C_4
REMARK    4  A    between atoms: C_4  and  C_6
REMARK    5  A    between atoms: C_7  and  C_22
REMARK    6  A    between atoms: N_8  and  C_21
REMARK    7  A    between atoms: C_12  and  C_14
REMARK    8  A    between atoms: C_17  and  C_20
REMARK    9  A    between atoms: C_22  and  N_23
REMARK   10  A    between atoms: N_32  and  C_33
REMARK   11  A    between atoms: C_33  and  C_34
REMARK   12  A    between atoms: C_33  and  C_35
REMARK   13  A    between atoms: C_33  and  C_36
REMARK                            x       y       z     vdW  Elec       q    Type
REMARK                         _______ _______ _______ _____ _____    ______ ____
ROOT
ATOM      1  C   UNL     1      -2.859  -2.883   1.016  0.00  0.00    +0.076 C 
ATOM      2  C   UNL     1      -3.143  -3.787   0.053  0.00  0.00    +0.010 C 
ATOM      3  N   UNL     1      -4.321  -3.738  -0.634  0.00  0.00    -0.264 N 
ATOM      4  C   UNL     1      -5.269  -2.817  -0.420  0.00  0.00    +0.307 C 
ATOM      5  O   UNL     1      -6.287  -2.854  -1.083  0.00  0.00    -0.252 OA
ATOM      6  N   UNL     1      -5.131  -1.849   0.508  0.00  0.00    -0.288 N 
ATOM      7  C   UNL     1      -3.896  -1.817   1.310  0.00  0.00    +0.143 C 
ATOM      8  C   UNL     1      -4.563  -4.751  -1.665  0.00  0.00    +0.139 C 
ATOM      9  H   UNL     1      -5.830  -1.191   0.647  0.00  0.00    +0.151 HD
ENDROOT
BRANCH   7  10
ATOM     10  C   UNL     1      -3.249  -0.471   1.105  0.00  0.00    -0.022 A 
ATOM     11  C   UNL     1      -3.112   0.043  -0.170  0.00  0.00    +0.006 A 
ATOM     12  C   UNL     1      -2.519   1.278  -0.357  0.00  0.00    +0.004 A 
ATOM     13  C   UNL     1      -2.064   1.998   0.731  0.00  0.00    -0.050 A 
ATOM     14  C   UNL     1      -2.202   1.484   2.007  0.00  0.00    +0.004 A 
ATOM     15  C   UNL     1      -2.799   0.251   2.194  0.00  0.00    +0.006 A 
ATOM     16  C   UNL     1      -1.417   3.343   0.527  0.00  0.00    +0.044 C 
ENDBRANCH   7  10
BRANCH   1  17
ATOM     17  C   UNL     1      -1.639  -2.932   1.729  0.00  0.00    +0.339 C 
ATOM     18  O   UNL     1      -0.875  -3.865   1.565  0.00  0.00    -0.245 OA
BRANCH  17  19
ATOM     19  O   UNL     1      -1.322  -1.945   2.593  0.00  0.00    -0.462 OA
BRANCH  19  21
ATOM     20  C   UNL     1       0.111  -0.857   4.207  0.00  0.00    +0.048 C 
ATOM     21  C   UNL     1      -0.074  -2.060   3.279  0.00  0.00    +0.229 C 
ENDBRANCH  19  21
ENDBRANCH  17  19
ENDBRANCH   1  17
BRANCH   2  22
ATOM     22  C   UNL     1      -2.141  -4.867  -0.267  0.00  0.00    -0.026 C 
BRANCH  22  23
ATOM     23  N   UNL     1      -2.288  -5.971   0.691  0.00  0.00    +0.384 N 
ATOM     24  C   UNL     1      -1.147  -6.871   0.536  0.00  0.00    -0.077 C 
ATOM     25  C   UNL     1      -0.857  -7.542   1.860  0.00  0.00    +0.000 C 
ATOM     26  C   UNL     1      -1.592  -8.893   1.921  0.00  0.00    +0.107 C 
ATOM     27  N   UNL     1      -2.942  -8.791   1.331  0.00  0.00    -0.287 N 
ATOM     28  C   UNL     1      -3.806  -7.652   1.565  0.00  0.00    +0.091 C 
ATOM     29  C   UNL     1      -3.551  -6.570   0.491  0.00  0.00    -0.059 C 
ATOM     30  C   UNL     1      -3.386  -9.792   0.546  0.00  0.00    +0.303 C 
ATOM     31  O   UNL     1      -2.721 -10.802   0.415  0.00  0.00    -0.253 OA
ATOM     32  N   UNL     1      -4.566  -9.675  -0.094  0.00  0.00    -0.294 N 
ATOM     33  H   UNL     1      -5.061  -8.842  -0.049  0.00  0.00    +0.151 HD
ATOM     34  H   UNL     1      -2.262  -5.586   1.624  0.00  0.00    -0.081 HD
BRANCH  32  35
ATOM     35  C   UNL     1      -5.101 -10.805  -0.858  0.00  0.00    +0.028 C 
ATOM     36  C   UNL     1      -5.304 -12.000   0.075  0.00  0.00    +0.031 C 
ATOM     37  C   UNL     1      -6.442 -10.410  -1.480  0.00  0.00    +0.031 C 
ATOM     38  C   UNL     1      -4.116 -11.184  -1.965  0.00  0.00    +0.031 C 
ENDBRANCH  32  35
ENDBRANCH  22  23
ENDBRANCH   2  22
TORSDOF 7
