REMARK  Name = ZINC42844564
REMARK  10 active torsions:
REMARK  status: ('A' for Active; 'I' for Inactive)
REMARK    1  A    between atoms: C_1  and  C_2
REMARK    2  A    between atoms: C_2  and  C_3
REMARK    3  A    between atoms: C_3  and  C_4
REMARK    4  A    between atoms: C_4  and  N_5
REMARK    5  A    between atoms: C_14  and  C_16
REMARK    6  A    between atoms: N_18  and  N_19
REMARK    7  A    between atoms: N_22  and  C_23
REMARK    8  A    between atoms: C_23  and  C_25
REMARK    9  A    between atoms: C_23  and  C_26
REMARK   10  A    between atoms: C_26  and  C_27
REMARK                            x       y       z     vdW  Elec       q    Type
REMARK                         _______ _______ _______ _____ _____    ______ ____
ROOT
ATOM      1  N   UNL     1       1.425  -2.500  -2.470  0.00  0.00    -0.228 N 
ATOM      2  C   UNL     1       2.757  -2.700  -2.410  0.00  0.00    +0.275 A 
ATOM      3  O   UNL     1       3.372  -2.493  -1.379  0.00  0.00    -0.266 OA
ATOM      4  C   UNL     1       3.450  -3.174  -3.616  0.00  0.00    +0.050 A 
ATOM      5  C   UNL     1       4.820  -3.410  -3.657  0.00  0.00    +0.014 A 
ATOM      6  C   UNL     1       5.394  -3.854  -4.830  0.00  0.00    +0.001 A 
ATOM      7  C   UNL     1       4.620  -4.065  -5.963  0.00  0.00    +0.001 A 
ATOM      8  C   UNL     1       3.261  -3.837  -5.943  0.00  0.00    +0.011 A 
ATOM      9  C   UNL     1       2.662  -3.389  -4.770  0.00  0.00    +0.020 A 
ATOM     10  C   UNL     1       1.218  -3.121  -4.665  0.00  0.00    +0.155 A 
ATOM     11  N   UNL     1       0.727  -2.705  -3.523  0.00  0.00    -0.163 NA
ENDROOT
BRANCH  10  12
ATOM     12  C   UNL     1       0.334  -3.324  -5.829  0.00  0.00    +0.281 C 
ATOM     13  O   UNL     1       0.796  -3.715  -6.883  0.00  0.00    -0.267 OA
ATOM     14  N   UNL     1      -0.987  -3.076  -5.723  0.00  0.00    -0.228 N 
ATOM     15  H   UNL     1      -1.356  -2.765  -4.882  0.00  0.00    +0.173 HD
BRANCH  14  16
ATOM     16  N   UNL     1      -1.826  -3.269  -6.828  0.00  0.00    -0.218 N 
ATOM     17  C   UNL     1      -3.147  -3.021  -6.723  0.00  0.00    +0.316 C 
ATOM     18  O   UNL     1      -3.876  -3.188  -7.682  0.00  0.00    -0.251 OA
ATOM     19  N   UNL     1      -3.660  -2.588  -5.554  0.00  0.00    -0.296 N 
ATOM     20  H   UNL     1      -1.457  -3.581  -7.670  0.00  0.00    +0.174 HD
ATOM     21  H   UNL     1      -3.079  -2.455  -4.789  0.00  0.00    +0.151 HD
BRANCH  19  22
ATOM     22  C   UNL     1      -5.095  -2.318  -5.439  0.00  0.00    +0.071 C 
ATOM     23  C   UNL     1      -5.834  -3.618  -5.113  0.00  0.00    +0.028 C 
BRANCH  22  24
ATOM     24  C   UNL     1      -5.335  -1.301  -4.322  0.00  0.00    +0.019 C 
ATOM     25  C   UNL     1      -4.702   0.037  -4.706  0.00  0.00    +0.005 C 
ENDBRANCH  22  24
ENDBRANCH  19  22
ENDBRANCH  14  16
ENDBRANCH  10  12
BRANCH   1  26
ATOM     26  C   UNL     1       0.739  -2.027  -1.265  0.00  0.00    +0.147 C 
BRANCH  26  27
ATOM     27  C   UNL     1       0.718  -0.497  -1.257  0.00  0.00    +0.023 C 
BRANCH  27  29
ATOM     28  C   UNL     1      -0.019   1.526   0.010  0.00  0.00    +0.004 C 
ATOM     29  C   UNL     1       0.002  -0.004   0.002  0.00  0.00    -0.002 C 
ENDBRANCH  27  29
ENDBRANCH  26  27
ENDBRANCH   1  26
TORSDOF 7
