REMARK  Name = ZINC00720031
REMARK  11 active torsions:
REMARK  status: ('A' for Active; 'I' for Inactive)
REMARK    1  A    between atoms: C_1  and  C_2
REMARK    2  A    between atoms: C_2  and  O_3
REMARK    3  A    between atoms: O_3  and  C_4
REMARK    4  A    between atoms: C_7  and  C_10
REMARK    5  A    between atoms: C_15  and  C_20
REMARK    6  A    between atoms: C_22  and  O_30
REMARK    7  A    between atoms: C_23  and  O_28
REMARK    8  A    between atoms: C_24  and  O_26
REMARK    9  A    between atoms: O_26  and  C_27
REMARK   10  A    between atoms: O_28  and  C_29
REMARK   11  A    between atoms: O_30  and  C_31
REMARK                            x       y       z     vdW  Elec       q    Type
REMARK                         _______ _______ _______ _____ _____    ______ ____
ROOT
ATOM      1  C   UNL     1      -2.933   2.205  -2.365  0.00  0.00    +0.136 C 
ATOM      2  C   UNL     1      -2.054   1.731  -1.232  0.00  0.00    +0.036 C 
ATOM      3  C   UNL     1      -0.719   1.591  -1.276  0.00  0.00    +0.017 C 
ATOM      4  C   UNL     1       0.041   1.079  -0.062  0.00  0.00    +0.059 C 
ATOM      5  C   UNL     1      -0.651   1.548   1.217  0.00  0.00    +0.032 C 
ATOM      6  C   UNL     1      -2.076   0.986   1.211  0.00  0.00    +0.088 C 
ATOM      7  C   UNL     1      -2.763   1.437  -0.043  0.00  0.00    +0.163 C 
ATOM      8  O   UNL     1      -3.973   1.554  -0.039  0.00  0.00    -0.292 OA
ATOM      9  N   UNL     1       0.057   1.873  -2.353  0.00  0.00    -0.316 N 
ATOM     10  C   UNL     1      -0.217   1.470  -3.655  0.00  0.00    +0.052 A 
ATOM     11  C   UNL     1       0.631   0.635  -4.362  0.00  0.00    +0.025 A 
ATOM     12  C   UNL     1       0.357   0.359  -5.691  0.00  0.00    +0.002 A 
ATOM     13  C   UNL     1      -0.754   0.910  -6.303  0.00  0.00    +0.002 A 
ATOM     14  C   UNL     1      -1.615   1.726  -5.590  0.00  0.00    +0.025 A 
ATOM     15  C   UNL     1      -1.352   1.992  -4.256  0.00  0.00    +0.049 A 
ATOM     16  N   UNL     1      -2.213   2.772  -3.485  0.00  0.00    -0.331 N 
ATOM     17  H   UNL     1       0.861   2.395  -2.203  0.00  0.00    +0.152 HD
ATOM     18  H   UNL     1      -2.330   3.709  -3.703  0.00  0.00    +0.147 HD
ENDROOT
BRANCH   1  22
ATOM     19  C   UNL     1      -5.237  -1.109  -3.770  0.00  0.00    +0.121 A 
ATOM     20  C   UNL     1      -3.854  -1.126  -3.882  0.00  0.00    +0.046 A 
ATOM     21  C   UNL     1      -3.111  -0.054  -3.427  0.00  0.00    +0.009 A 
ATOM     22  C   UNL     1      -3.745   1.036  -2.860  0.00  0.00    -0.023 A 
ATOM     23  C   UNL     1      -5.123   1.054  -2.742  0.00  0.00    +0.009 A 
ATOM     24  C   UNL     1      -5.870  -0.014  -3.201  0.00  0.00    +0.046 A 
BRANCH  19  25
ATOM     25  O   UNL     1      -5.969  -2.163  -4.217  0.00  0.00    -0.492 OA
BRANCH  25  27
ATOM     26  C   UNL     1      -8.037  -3.345  -4.626  0.00  0.00    +0.048 C 
ATOM     27  C   UNL     1      -7.388  -2.076  -4.070  0.00  0.00    +0.225 C 
ENDBRANCH  25  27
ENDBRANCH  19  25
ENDBRANCH   1  22
BRANCH   5  28
ATOM     28  C   UNL     1       0.094   1.030   2.420  0.00  0.00    -0.036 A 
ATOM     29  C   UNL     1       0.238  -0.332   2.608  0.00  0.00    +0.053 A 
ATOM     30  C   UNL     1       0.928  -0.812   3.711  0.00  0.00    +0.165 A 
ATOM     31  C   UNL     1       1.466   0.078   4.633  0.00  0.00    +0.204 A 
ATOM     32  C   UNL     1       1.315   1.446   4.443  0.00  0.00    +0.165 A 
ATOM     33  C   UNL     1       0.627   1.918   3.335  0.00  0.00    +0.053 A 
BRANCH  32  34
ATOM     34  O   UNL     1       1.840   2.321   5.342  0.00  0.00    -0.491 OA
ATOM     35  C   UNL     1       1.645   3.712   5.083  0.00  0.00    +0.277 C 
ENDBRANCH  32  34
BRANCH  31  36
ATOM     36  O   UNL     1       2.140  -0.390   5.719  0.00  0.00    -0.488 OA
ATOM     37  C   UNL     1       1.375  -0.641   6.899  0.00  0.00    +0.277 C 
ENDBRANCH  31  36
BRANCH  30  38
ATOM     38  O   UNL     1       1.075  -2.152   3.892  0.00  0.00    -0.491 OA
ATOM     39  C   UNL     1       0.496  -3.007   2.904  0.00  0.00    +0.277 C 
ENDBRANCH  30  38
ENDBRANCH   5  28
TORSDOF 7
