REMARK  Name = ZINC39884090
REMARK  4 active torsions:
REMARK  status: ('A' for Active; 'I' for Inactive)
REMARK    1  A    between atoms: C_4  and  O_37
REMARK    2  A    between atoms: C_5  and  C_7
REMARK    3  A    between atoms: N_11  and  C_15
REMARK    4  A    between atoms: C_15  and  C_16
REMARK                            x       y       z     vdW  Elec       q    Type
REMARK                         _______ _______ _______ _____ _____    ______ ____
ROOT
ATOM      1  C   UNL     1       1.227  -2.187  -0.022  0.00  0.00    +0.075 C 
ATOM      2  C   UNL     1       0.505  -2.694  -1.238  0.00  0.00    +0.033 A 
ATOM      3  C   UNL     1      -0.335  -3.744  -1.363  0.00  0.00    +0.091 A 
ATOM      4  N   UNL     1      -0.849  -3.932  -2.622  0.00  0.00    -0.288 N 
ATOM      5  C   UNL     1      -0.491  -3.107  -3.624  0.00  0.00    +0.292 A 
ATOM      6  O   UNL     1      -0.846  -3.134  -4.789  0.00  0.00    -0.259 OA
ATOM      7  S   UNL     1       0.565  -2.028  -2.881  0.00  0.00    -0.030 S 
ATOM      8  S   UNL     1      -0.711  -4.795   0.033  0.00  0.00    -0.093 S 
ATOM      9  C   UNL     1       0.582  -4.267   1.187  0.00  0.00    +0.152 C 
ATOM     10  C   UNL     1       0.527  -2.709   1.208  0.00  0.00    +0.111 C 
ATOM     11  C   UNL     1       1.112  -2.430   2.556  0.00  0.00    +0.235 C 
ATOM     12  O   UNL     1       1.747  -1.455   2.885  0.00  0.00    -0.274 OA
ATOM     13  N   UNL     1       0.785  -3.493   3.337  0.00  0.00    -0.162 N 
ATOM     14  C   UNL     1       0.299  -4.574   2.632  0.00  0.00    +0.244 C 
ATOM     15  O   UNL     1      -0.243  -5.561   3.071  0.00  0.00    -0.273 OA
ATOM     16  C   UNL     1       0.931  -3.498   4.676  0.00  0.00    +0.313 C 
ATOM     17  O   UNL     1       1.375  -2.518   5.242  0.00  0.00    -0.252 OA
ATOM     18  N   UNL     1       0.586  -4.589   5.388  0.00  0.00    -0.313 N 
ATOM     19  H   UNL     1       0.232  -5.371   4.936  0.00  0.00    +0.147 HD
ATOM     20  H   UNL     1       0.691  -4.592   6.352  0.00  0.00    +0.147 HD
ENDROOT
BRANCH   1  25
ATOM     21  C   UNL     1      -0.017   1.378   0.010  0.00  0.00    +0.001 A 
ATOM     22  C   UNL     1       1.170   2.088   0.002  0.00  0.00    +0.004 A 
ATOM     23  C   UNL     1       2.377   1.417  -0.013  0.00  0.00    +0.046 A 
ATOM     24  C   UNL     1       2.399   0.030  -0.021  0.00  0.00    +0.121 A 
ATOM     25  C   UNL     1       1.207  -0.680  -0.013  0.00  0.00    +0.003 A 
ATOM     26  C   UNL     1       0.002  -0.004   0.002  0.00  0.00    +0.008 A 
BRANCH  24  27
ATOM     27  O   UNL     1       3.586  -0.632  -0.037  0.00  0.00    -0.506 OA
ATOM     28  H   UNL     1       3.938  -0.829   0.842  0.00  0.00    +0.292 HD
ENDBRANCH  24  27
ENDBRANCH   1  25
BRANCH   4  29
ATOM     29  C   UNL     1      -1.784  -5.030  -2.876  0.00  0.00    +0.222 C 
BRANCH  29  30
ATOM     30  C   UNL     1      -3.195  -4.551  -2.646  0.00  0.00    +0.235 C 
ATOM     31  O   UNL     1      -3.398  -3.405  -2.304  0.00  0.00    -0.274 OA
ATOM     32  N   UNL     1      -4.230  -5.396  -2.821  0.00  0.00    -0.300 N 
ATOM     33  C   UNL     1      -4.000  -6.788  -3.229  0.00  0.00    +0.108 C 
ATOM     34  C   UNL     1      -4.701  -7.717  -2.233  0.00  0.00    +0.019 C 
ATOM     35  C   UNL     1      -6.178  -7.328  -2.132  0.00  0.00    +0.003 C 
ATOM     36  C   UNL     1      -6.295  -5.891  -1.618  0.00  0.00    +0.019 C 
ATOM     37  C   UNL     1      -5.611  -4.944  -2.601  0.00  0.00    +0.108 C 
ENDBRANCH  29  30
ENDBRANCH   4  29
TORSDOF 4
