REMARK  Name = ZINC50493250
REMARK  9 active torsions:
REMARK  status: ('A' for Active; 'I' for Inactive)
REMARK    1  A    between atoms: C_1  and  C_2
REMARK    2  A    between atoms: C_2  and  C_3
REMARK    3  A    between atoms: C_4  and  C_26
REMARK    4  A    between atoms: C_5  and  C_25
REMARK    5  A    between atoms: C_8  and  C_9
REMARK    6  A    between atoms: N_11  and  C_12
REMARK    7  A    between atoms: C_15  and  N_19
REMARK    8  A    between atoms: C_17  and  C_18
REMARK    9  A    between atoms: C_26  and  C_28
REMARK                            x       y       z     vdW  Elec       q    Type
REMARK                         _______ _______ _______ _____ _____    ______ ____
ROOT
ATOM      1  C   UNL     1      -1.718  -1.215  -2.549  0.00  0.00    +0.265 C 
ATOM      2  O   UNL     1      -0.551  -1.334  -2.873  0.00  0.00    -0.268 OA
ATOM      3  N   UNL     1      -2.652  -0.943  -3.481  0.00  0.00    -0.280 N 
ATOM      4  H   UNL     1      -3.571  -0.784  -3.215  0.00  0.00    +0.155 HD
ENDROOT
BRANCH   1  10
ATOM      5  C   UNL     1      -1.265  -1.641  -0.106  0.00  0.00    -0.007 A 
ATOM      6  C   UNL     1      -2.056  -1.694   1.067  0.00  0.00    +0.041 A 
ATOM      7  C   UNL     1      -3.366  -1.452   0.684  0.00  0.00    +0.024 A 
ATOM      8  N   UNL     1      -3.388  -1.259  -0.643  0.00  0.00    -0.354 N 
ATOM      9  H   UNL     1      -4.181  -1.070  -1.169  0.00  0.00    +0.166 HD
ATOM     10  C   UNL     1      -2.108  -1.367  -1.141  0.00  0.00    +0.106 A 
ATOM     11  C   UNL     1      -4.560  -1.411   1.602  0.00  0.00    +0.064 C 
BRANCH   6  12
ATOM     12  C   UNL     1      -1.580  -1.957   2.429  0.00  0.00    +0.162 C 
ATOM     13  O   UNL     1      -1.150  -1.047   3.107  0.00  0.00    -0.292 OA
ATOM     14  C   UNL     1      -1.624  -3.356   2.986  0.00  0.00    +0.091 C 
ENDBRANCH   6  12
BRANCH   5  16
ATOM     15  C   UNL     1       0.933  -0.498  -0.013  0.00  0.00    +0.009 C 
ATOM     16  C   UNL     1       0.226  -1.843  -0.192  0.00  0.00    +0.035 C 
ENDBRANCH   5  16
ENDBRANCH   1  10
BRANCH   3  17
ATOM     17  C   UNL     1      -2.296  -0.889  -4.835  0.00  0.00    +0.037 A 
ATOM     18  C   UNL     1      -1.049  -0.402  -5.205  0.00  0.00    +0.025 A 
ATOM     19  C   UNL     1      -0.697  -0.348  -6.539  0.00  0.00    +0.025 A 
ATOM     20  C   UNL     1      -1.591  -0.782  -7.511  0.00  0.00    +0.030 A 
ATOM     21  C   UNL     1      -2.837  -1.269  -7.140  0.00  0.00    +0.028 A 
ATOM     22  C   UNL     1      -3.187  -1.327  -5.805  0.00  0.00    -0.027 A 
ATOM     23  C   UNL     1      -4.537  -1.860  -5.402  0.00  0.00    +0.046 C 
BRANCH  20  24
ATOM     24  N   UNL     1      -1.235  -0.728  -8.863  0.00  0.00    -0.328 N 
ATOM     25  C   UNL     1       0.127  -0.342  -9.237  0.00  0.00    +0.116 C 
ATOM     26  C   UNL     1       0.833  -1.534  -9.892  0.00  0.00    +0.088 C 
ATOM     27  S   UNL     1      -0.147  -2.075 -11.325  0.00  0.00    -0.158 S 
ATOM     28  C   UNL     1      -1.802  -2.334 -10.618  0.00  0.00    +0.088 C 
ATOM     29  C   UNL     1      -2.227  -1.063  -9.885  0.00  0.00    +0.116 C 
ENDBRANCH  20  24
ENDBRANCH   3  17
TORSDOF 5
