REMARK  Name = ZINC64182108
REMARK  8 active torsions:
REMARK  status: ('A' for Active; 'I' for Inactive)
REMARK    1  A    between atoms: C_1  and  C_2
REMARK    2  A    between atoms: C_2  and  C_3
REMARK    3  A    between atoms: C_2  and  C_4
REMARK    4  A    between atoms: C_4  and  C_6
REMARK    5  A    between atoms: C_4  and  N_23
REMARK    6  A    between atoms: C_11  and  C_14
REMARK    7  A    between atoms: N_23  and  S_24
REMARK    8  A    between atoms: S_24  and  C_27
REMARK                            x       y       z     vdW  Elec       q    Type
REMARK                         _______ _______ _______ _____ _____    ______ ____
ROOT
ATOM      1  C   UNL     1      -1.103  -0.968   0.273  0.00  0.00    +0.165 C 
ENDROOT
BRANCH   1   2
ATOM      2  C   UNL     1      -1.377  -2.154   1.161  0.00  0.00    +0.235 C 
ATOM      3  O   UNL     1      -2.521  -2.473   1.411  0.00  0.00    -0.274 OA
ATOM      4  N   UNL     1      -0.352  -2.860   1.677  0.00  0.00    -0.296 N 
ATOM      5  C   UNL     1      -0.587  -4.065   2.491  0.00  0.00    +0.113 C 
ATOM      6  C   UNL     1       0.031  -5.259   1.759  0.00  0.00    +0.054 C 
ATOM      7  C   UNL     1       1.407  -4.918   1.270  0.00  0.00    -0.043 C 
ATOM      8  C   UNL     1       1.860  -3.678   1.123  0.00  0.00    -0.004 C 
ATOM      9  C   UNL     1       1.043  -2.462   1.445  0.00  0.00    +0.135 C 
BRANCH   7  10
ATOM     10  C   UNL     1       2.275  -5.980   0.946  0.00  0.00    -0.016 C 
ATOM     11  C   UNL     1       1.968  -7.335   0.913  0.00  0.00    +0.003 A 
ATOM     12  C   UNL     1       0.776  -8.051   1.171  0.00  0.00    +0.010 A 
ATOM     13  C   UNL     1       0.766  -9.402   1.058  0.00  0.00    +0.001 A 
ATOM     14  C   UNL     1       1.911 -10.116   0.690  0.00  0.00    +0.002 A 
ATOM     15  C   UNL     1       3.087  -9.498   0.427  0.00  0.00    +0.026 A 
ATOM     16  C   UNL     1       3.178  -8.083   0.524  0.00  0.00    +0.043 A 
ATOM     17  N   UNL     1       4.184  -7.259   0.324  0.00  0.00    -0.380 N 
ATOM     18  C   UNL     1       3.734  -5.883   0.556  0.00  0.00    +0.149 C 
ATOM     19  H   UNL     1       5.080  -7.520   0.061  0.00  0.00    +0.160 HD
ENDBRANCH   7  10
ENDBRANCH   1   2
BRANCH   1  21
ATOM     20  C   UNL     1      -1.586  -2.393  -1.721  0.00  0.00    +0.009 C 
ATOM     21  C   UNL     1      -0.567  -1.453  -1.075  0.00  0.00    +0.010 C 
ATOM     22  C   UNL     1      -0.329  -0.251  -1.991  0.00  0.00    +0.009 C 
ENDBRANCH   1  21
BRANCH   1  23
ATOM     23  N   UNL     1      -2.344  -0.218   0.063  0.00  0.00    -0.178 NA
ATOM     24  H   UNL     1      -2.947  -0.469  -0.654  0.00  0.00    +0.149 HD
BRANCH  23  25
ATOM     25  S   UNL     1      -2.718   1.058   1.050  0.00  0.00    +0.059 S 
ATOM     26  O   UNL     1      -3.920   1.623   0.547  0.00  0.00    -0.153 OA
ATOM     27  O   UNL     1      -2.598   0.588   2.386  0.00  0.00    -0.153 OA
BRANCH  25  28
ATOM     28  C   UNL     1      -1.460   2.273   0.830  0.00  0.00    +0.109 A 
ATOM     29  C   UNL     1      -0.389   2.324   1.703  0.00  0.00    +0.032 A 
ATOM     30  C   UNL     1       0.599   3.275   1.534  0.00  0.00    +0.051 A 
ATOM     31  C   UNL     1       0.519   4.181   0.487  0.00  0.00    +0.162 A 
ATOM     32  C   UNL     1      -0.556   4.129  -0.392  0.00  0.00    +0.164 A 
ATOM     33  C   UNL     1      -1.543   3.169  -0.219  0.00  0.00    +0.078 A 
ATOM     34  O   UNL     1      -0.650   5.003  -1.431  0.00  0.00    -0.485 OA
ATOM     35  C   UNL     1       0.162   6.180  -1.357  0.00  0.00    +0.270 C 
ATOM     36  C   UNL     1       1.578   5.761  -0.940  0.00  0.00    +0.270 C 
ATOM     37  O   UNL     1       1.497   5.115   0.336  0.00  0.00    -0.485 OA
ENDBRANCH  25  28
ENDBRANCH  23  25
ENDBRANCH   1  23
TORSDOF 6
