REMARK  Name = ZINC12161252
REMARK  5 active torsions:
REMARK  status: ('A' for Active; 'I' for Inactive)
REMARK    1  A    between atoms: C_3  and  S_19
REMARK    2  A    between atoms: C_6  and  N_7
REMARK    3  A    between atoms: C_8  and  C_10
REMARK    4  A    between atoms: S_19  and  N_22
REMARK    5  A    between atoms: N_22  and  C_23
REMARK                            x       y       z     vdW  Elec       q    Type
REMARK                         _______ _______ _______ _____ _____    ______ ____
ROOT
ATOM      1  C   UNL     1      -8.826   0.214   2.275  0.00  0.00    +0.025 A 
ATOM      2  C   UNL     1     -10.144  -0.048   2.594  0.00  0.00    +0.030 A 
ATOM      3  C   UNL     1     -10.590   0.125   3.892  0.00  0.00    +0.105 A 
ATOM      4  C   UNL     1      -9.717   0.554   4.875  0.00  0.00    +0.030 A 
ATOM      5  C   UNL     1      -8.397   0.813   4.563  0.00  0.00    +0.025 A 
ATOM      6  C   UNL     1      -7.946   0.641   3.260  0.00  0.00    +0.034 A 
ENDROOT
BRANCH   6   7
ATOM      7  N   UNL     1      -6.609   0.901   2.942  0.00  0.00    -0.281 N 
ATOM      8  C   UNL     1      -5.638   0.630   3.835  0.00  0.00    +0.255 C 
ATOM      9  O   UNL     1      -5.929   0.237   4.950  0.00  0.00    -0.269 OA
ATOM     10  H   UNL     1      -6.382   1.278   2.077  0.00  0.00    +0.155 HD
BRANCH   8  11
ATOM     11  C   UNL     1      -4.231   0.808   3.465  0.00  0.00    +0.075 A 
ATOM     12  C   UNL     1      -3.095   0.588   4.223  0.00  0.00    +0.024 A 
ATOM     13  C   UNL     1      -1.863   0.833   3.640  0.00  0.00    -0.036 A 
ATOM     14  C   UNL     1      -1.871   1.278   2.348  0.00  0.00    -0.006 A 
ATOM     15  S   UNL     1      -3.536   1.365   1.918  0.00  0.00    -0.088 S 
ATOM     16  C   UNL     1      -0.680   1.615   1.499  0.00  0.00    +0.043 C 
ATOM     17  C   UNL     1       0.544   1.741   2.418  0.00  0.00    +0.005 C 
ATOM     18  C   UNL     1       0.587   0.531   3.355  0.00  0.00    +0.005 C 
ATOM     19  C   UNL     1      -0.544   0.626   4.380  0.00  0.00    +0.036 C 
ENDBRANCH   8  11
ENDBRANCH   6   7
BRANCH   3  20
ATOM     20  S   UNL     1     -12.274  -0.203   4.293  0.00  0.00    +0.059 S 
ATOM     21  O   UNL     1     -12.755  -1.115   3.315  0.00  0.00    -0.153 OA
ATOM     22  O   UNL     1     -12.311  -0.489   5.685  0.00  0.00    -0.153 OA
BRANCH  20  23
ATOM     23  N   UNL     1     -13.113   1.209   4.077  0.00  0.00    -0.187 NA
ATOM     24  H   UNL     1     -13.522   1.651   4.838  0.00  0.00    +0.148 HD
BRANCH  23  25
ATOM     25  C   UNL     1     -13.236   1.790   2.738  0.00  0.00    +0.077 C 
ATOM     26  C   UNL     1     -13.270   3.316   2.631  0.00  0.00    +0.022 C 
ATOM     27  C   UNL     1     -14.545   2.504   2.396  0.00  0.00    +0.022 C 
ENDBRANCH  23  25
ENDBRANCH  20  23
ENDBRANCH   3  20
TORSDOF 5
