REMARK  Name = ZINC39962460
REMARK  7 active torsions:
REMARK  status: ('A' for Active; 'I' for Inactive)
REMARK    1  A    between atoms: C_1  and  C_2
REMARK    2  A    between atoms: C_6  and  C_13
REMARK    3  A    between atoms: C_13  and  C_29
REMARK    4  A    between atoms: C_14  and  C_15
REMARK    5  A    between atoms: C_18  and  C_20
REMARK    6  A    between atoms: C_23  and  C_26
REMARK    7  A    between atoms: C_26  and  C_28
REMARK                            x       y       z     vdW  Elec       q    Type
REMARK                         _______ _______ _______ _____ _____    ______ ____
ROOT
ATOM      1  C   UNL     1      -1.843  -5.012  -1.086  0.00  0.00    +0.071 C 
ATOM      2  C   UNL     1      -2.373  -6.259  -1.021  0.00  0.00    +0.064 C 
ENDROOT
BRANCH   1   8
ATOM      3  C   UNL     1      -2.530   1.380   1.285  0.00  0.00    +0.044 C 
ATOM      4  C   UNL     1      -1.911   0.071   0.866  0.00  0.00    -0.049 C 
ATOM      5  C   UNL     1      -2.658  -1.052   0.955  0.00  0.00    +0.028 C 
ATOM      6  C   UNL     1      -2.088  -2.284   0.543  0.00  0.00    +0.059 C 
ATOM      7  N   UNL     1      -2.297  -3.531   0.803  0.00  0.00    -0.262 NA
ATOM      8  C   UNL     1      -1.277  -4.369   0.154  0.00  0.00    +0.214 C 
ATOM      9  N   UNL     1      -0.167  -3.443  -0.206  0.00  0.00    -0.279 NA
ATOM     10  C   UNL     1      -0.899  -2.186  -0.399  0.00  0.00    +0.128 C 
ATOM     11  C   UNL     1      -0.002  -0.991  -0.231  0.00  0.00    -0.002 C 
ATOM     12  C   UNL     1      -0.536   0.078   0.379  0.00  0.00    +0.001 C 
ATOM     13  H   UNL     1       0.497  -3.363   0.550  0.00  0.00    +0.125 HD
ENDBRANCH   1   8
BRANCH   2  14
ATOM     14  C   UNL     1      -2.536  -6.895   0.234  0.00  0.00    +0.130 A 
ATOM     15  C   UNL     1      -2.949  -8.198   0.433  0.00  0.00    +0.050 A 
ATOM     16  C   UNL     1      -2.970  -8.409   1.815  0.00  0.00    +0.050 A 
ATOM     17  C   UNL     1      -2.572  -7.231   2.407  0.00  0.00    +0.136 A 
ATOM     18  O   UNL     1      -2.310  -6.334   1.439  0.00  0.00    -0.455 OA
BRANCH  17  19
ATOM     19  C   UNL     1      -2.448  -6.996   3.856  0.00  0.00    +0.017 A 
ATOM     20  C   UNL     1      -2.742  -8.023   4.760  0.00  0.00    +0.012 A 
ATOM     21  C   UNL     1      -2.628  -7.806   6.102  0.00  0.00    +0.012 A 
ATOM     22  C   UNL     1      -2.216  -6.553   6.576  0.00  0.00    +0.017 A 
ATOM     23  C   UNL     1      -1.921  -5.525   5.671  0.00  0.00    +0.012 A 
ATOM     24  C   UNL     1      -2.031  -5.746   4.328  0.00  0.00    +0.012 A 
BRANCH  22  25
ATOM     25  C   UNL     1      -2.093  -6.318   8.020  0.00  0.00    +0.160 C 
ATOM     26  O   UNL     1      -2.439  -7.175   8.806  0.00  0.00    -0.292 OA
ATOM     27  C   UNL     1      -1.536  -5.012   8.527  0.00  0.00    +0.091 C 
ENDBRANCH  22  25
ENDBRANCH  17  19
ENDBRANCH   2  14
BRANCH   1  28
ATOM     28  C   UNL     1      -1.822  -4.307  -2.332  0.00  0.00    +0.098 C 
ATOM     29  N   UNL     1      -1.804  -3.748  -3.321  0.00  0.00    -0.191 NA
ENDBRANCH   1  28
TORSDOF 5
