REMARK  Name = ZINC09944425
REMARK  10 active torsions:
REMARK  status: ('A' for Active; 'I' for Inactive)
REMARK    1  A    between atoms: C_1  and  C_2
REMARK    2  A    between atoms: C_10  and  C_12
REMARK    3  A    between atoms: C_12  and  S_13
REMARK    4  A    between atoms: S_13  and  C_14
REMARK    5  A    between atoms: C_17  and  C_20
REMARK    6  A    between atoms: N_18  and  C_19
REMARK    7  A    between atoms: C_27  and  C_30
REMARK    8  A    between atoms: C_30  and  C_31
REMARK    9  A    between atoms: C_30  and  C_32
REMARK   10  A    between atoms: C_30  and  C_33
REMARK                            x       y       z     vdW  Elec       q    Type
REMARK                         _______ _______ _______ _____ _____    ______ ____
ROOT
ATOM      1  C   UNL     1      -3.132  -5.015  -0.910  0.00  0.00    +0.192 A 
ATOM      2  N   UNL     1      -3.793  -4.029  -1.473  0.00  0.00    -0.122 NA
ATOM      3  N   UNL     1      -3.141  -2.929  -1.346  0.00  0.00    -0.128 NA
ATOM      4  C   UNL     1      -2.020  -3.145  -0.694  0.00  0.00    +0.171 A 
ATOM      5  N   UNL     1      -1.978  -4.489  -0.399  0.00  0.00    -0.305 N 
ATOM      6  C   UNL     1      -0.919  -5.206   0.317  0.00  0.00    +0.153 C 
ENDROOT
BRANCH   4   7
ATOM      7  C   UNL     1      -1.000  -2.140  -0.349  0.00  0.00    +0.057 A 
ATOM      8  C   UNL     1      -1.094  -0.775  -0.365  0.00  0.00    +0.023 A 
ATOM      9  C   UNL     1       0.002  -0.004   0.002  0.00  0.00    -0.036 A 
ATOM     10  C   UNL     1       1.131  -0.678   0.365  0.00  0.00    -0.006 A 
ATOM     11  S   UNL     1       0.682  -2.385   0.199  0.00  0.00    -0.090 S 
ATOM     12  C   UNL     1       2.437  -0.097   0.801  0.00  0.00    +0.043 C 
ATOM     13  C   UNL     1       2.218   1.386   1.136  0.00  0.00    +0.009 C 
ATOM     14  C   UNL     1       1.422   2.034  -0.001  0.00  0.00    -0.001 C 
ATOM     15  C   UNL     1      -0.019   1.522   0.010  0.00  0.00    +0.040 C 
BRANCH  14  16
ATOM     16  C   UNL     1       1.422   3.554   0.182  0.00  0.00    -0.035 C 
ATOM     17  C   UNL     1       0.764   3.907   1.517  0.00  0.00    +0.011 C 
ATOM     18  C   UNL     1       2.863   4.068   0.171  0.00  0.00    +0.011 C 
ATOM     19  C   UNL     1       0.639   4.204  -0.961  0.00  0.00    +0.011 C 
ENDBRANCH  14  16
ENDBRANCH   4   7
BRANCH   1  20
ATOM     20  S   UNL     1      -3.635  -6.702  -0.834  0.00  0.00    -0.080 S 
BRANCH  20  21
ATOM     21  C   UNL     1      -5.214  -6.598  -1.712  0.00  0.00    +0.133 C 
BRANCH  21  31
ATOM     22  C   UNL     1      -8.605 -12.260  -1.274  0.00  0.00    +0.064 C 
ATOM     23  C   UNL     1      -7.437 -11.762  -2.086  0.00  0.00    +0.033 A 
ATOM     24  C   UNL     1      -6.860 -12.574  -2.970  0.00  0.00    +0.070 A 
ATOM     25  S   UNL     1      -5.574 -11.531  -3.640  0.00  0.00    -0.057 S 
ATOM     26  C   UNL     1      -5.922 -10.081  -2.669  0.00  0.00    +0.180 A 
ATOM     27  N   UNL     1      -6.986 -10.477  -1.903  0.00  0.00    -0.259 N 
ATOM     28  C   UNL     1      -7.488  -9.550  -1.033  0.00  0.00    +0.259 A 
ATOM     29  O   UNL     1      -8.437  -9.834  -0.318  0.00  0.00    -0.267 OA
ATOM     30  C   UNL     1      -6.916  -8.280  -0.962  0.00  0.00    +0.095 A 
ATOM     31  C   UNL     1      -5.846  -7.965  -1.772  0.00  0.00    +0.059 A 
ATOM     32  N   UNL     1      -5.384  -8.888  -2.612  0.00  0.00    -0.227 NA
ENDBRANCH  21  31
ENDBRANCH  20  21
ENDBRANCH   1  20
TORSDOF 5
