REMARK  Name = ZINC36530442
REMARK  16 active torsions:
REMARK  status: ('A' for Active; 'I' for Inactive)
REMARK    1  A    between atoms: C_1  and  C_2
REMARK    2  A    between atoms: C_2  and  C_4
REMARK    3  A    between atoms: C_2  and  C_10
REMARK    4  A    between atoms: C_10  and  C_12
REMARK    5  A    between atoms: C_10  and  N_23
REMARK    6  A    between atoms: N_14  and  C_15
REMARK    7  A    between atoms: C_15  and  C_16
REMARK    8  A    between atoms: C_15  and  C_17
REMARK    9  A    between atoms: C_15  and  C_18
REMARK   10  A    between atoms: C_18  and  C_19
REMARK   11  A    between atoms: C_19  and  C_20
REMARK   12  A    between atoms: C_19  and  C_21
REMARK   13  A    between atoms: C_19  and  C_22
REMARK   14  A    between atoms: N_23  and  C_24
REMARK   15  A    between atoms: C_25  and  C_27
REMARK   16  A    between atoms: C_28  and  C_29
REMARK                            x       y       z     vdW  Elec       q    Type
REMARK                         _______ _______ _______ _____ _____    ______ ____
ROOT
ATOM      1  C   UNL     1       0.207  -1.364   2.639  0.00  0.00    +0.169 C 
ENDROOT
BRANCH   1   2
ATOM      2  C   UNL     1       0.478  -2.753   2.122  0.00  0.00    +0.235 C 
ATOM      3  O   UNL     1       1.619  -3.153   2.027  0.00  0.00    -0.274 OA
ATOM      4  N   UNL     1      -0.548  -3.552   1.767  0.00  0.00    -0.309 N 
ATOM      5  H   UNL     1      -1.454  -3.205   1.763  0.00  0.00    +0.149 HD
BRANCH   4   6
ATOM      6  C   UNL     1      -0.294  -4.944   1.387  0.00  0.00    +0.030 C 
ATOM      7  C   UNL     1       0.299  -4.988  -0.023  0.00  0.00    +0.031 C 
ATOM      8  C   UNL     1       0.691  -5.571   2.375  0.00  0.00    +0.031 C 
BRANCH   6   9
ATOM      9  C   UNL     1      -1.609  -5.726   1.411  0.00  0.00    +0.031 C 
BRANCH   9  10
ATOM     10  C   UNL     1      -2.426  -5.314   2.637  0.00  0.00    -0.036 C 
ATOM     11  C   UNL     1      -3.263  -4.078   2.300  0.00  0.00    +0.010 C 
ATOM     12  C   UNL     1      -3.352  -6.462   3.043  0.00  0.00    +0.010 C 
ATOM     13  C   UNL     1      -1.479  -4.988   3.794  0.00  0.00    +0.010 C 
ENDBRANCH   9  10
ENDBRANCH   6   9
ENDBRANCH   4   6
ENDBRANCH   1   2
BRANCH   1  14
ATOM     14  N   UNL     1       1.297  -0.951   3.527  0.00  0.00    -0.282 N 
ATOM     15  C   UNL     1       2.646  -0.759   2.990  0.00  0.00    +0.134 C 
ATOM     16  C   UNL     1       1.058  -0.750   4.838  0.00  0.00    +0.292 C 
ATOM     17  O   UNL     1      -0.062  -0.910   5.284  0.00  0.00    -0.260 OA
BRANCH  16  18
ATOM     18  C   UNL     1       2.124  -0.347   5.706  0.00  0.00    -0.003 C 
ATOM     19  C   UNL     1       2.997  -0.016   6.417  0.00  0.00    -0.057 C 
BRANCH  19  20
ATOM     20  C   UNL     1       4.062   0.387   7.285  0.00  0.00    +0.025 A 
ATOM     21  C   UNL     1       5.351   0.577   6.775  0.00  0.00    +0.017 A 
ATOM     22  C   UNL     1       6.371   0.966   7.617  0.00  0.00    +0.001 A 
ATOM     23  C   UNL     1       6.123   1.167   8.964  0.00  0.00    +0.000 A 
ATOM     24  C   UNL     1       4.851   0.979   9.476  0.00  0.00    +0.001 A 
ATOM     25  C   UNL     1       3.819   0.597   8.646  0.00  0.00    +0.017 A 
ENDBRANCH  19  20
ENDBRANCH  16  18
ENDBRANCH   1  14
BRANCH   1  27
ATOM     26  C   UNL     1      -1.098  -0.750   0.599  0.00  0.00    +0.015 C 
ATOM     27  C   UNL     1       0.113  -0.391   1.461  0.00  0.00    +0.045 C 
BRANCH  27  28
ATOM     28  C   UNL     1      -0.039   1.015   1.981  0.00  0.00    -0.042 A 
ATOM     29  C   UNL     1      -1.067   1.321   2.854  0.00  0.00    +0.004 A 
ATOM     30  C   UNL     1      -1.207   2.611   3.331  0.00  0.00    +0.000 A 
ATOM     31  C   UNL     1      -0.319   3.594   2.937  0.00  0.00    +0.000 A 
ATOM     32  C   UNL     1       0.709   3.288   2.065  0.00  0.00    +0.000 A 
ATOM     33  C   UNL     1       0.851   1.997   1.591  0.00  0.00    +0.004 A 
ENDBRANCH  27  28
ENDBRANCH   1  27
TORSDOF 9
