REMARK  Name = ZINC21257092
REMARK  9 active torsions:
REMARK  status: ('A' for Active; 'I' for Inactive)
REMARK    1  A    between atoms: C_1  and  C_2
REMARK    2  A    between atoms: C_2  and  C_3
REMARK    3  A    between atoms: C_2  and  C_4
REMARK    4  A    between atoms: C_2  and  C_5
REMARK    5  A    between atoms: C_8  and  C_11
REMARK    6  A    between atoms: C_16  and  C_26
REMARK    7  A    between atoms: C_30  and  O_33
REMARK    8  A    between atoms: C_31  and  O_32
REMARK    9  A    between atoms: O_33  and  C_34
REMARK                            x       y       z     vdW  Elec       q    Type
REMARK                         _______ _______ _______ _____ _____    ______ ____
ROOT
ATOM      1  C   UNL     1      -2.277   1.450   0.840  0.00  0.00    +0.032 C 
ATOM      2  C   UNL     1      -1.206   2.200   0.052  0.00  0.00    +0.059 C 
ATOM      3  C   UNL     1       0.081   1.392   0.027  0.00  0.00    +0.017 C 
ATOM      4  C   UNL     1       0.041   0.048   0.025  0.00  0.00    +0.037 C 
ATOM      5  C   UNL     1       1.236  -0.873  -0.007  0.00  0.00    +0.140 C 
ATOM      6  N   UNL     1       2.493  -0.218  -0.301  0.00  0.00    -0.331 N 
ATOM      7  C   UNL     1       3.034   0.723   0.574  0.00  0.00    +0.049 A 
ATOM      8  C   UNL     1       4.231   0.495   1.234  0.00  0.00    +0.025 A 
ATOM      9  C   UNL     1       4.704   1.439   2.129  0.00  0.00    +0.002 A 
ATOM     10  C   UNL     1       3.989   2.598   2.368  0.00  0.00    +0.002 A 
ATOM     11  C   UNL     1       2.801   2.837   1.696  0.00  0.00    +0.025 A 
ATOM     12  C   UNL     1       2.339   1.904   0.784  0.00  0.00    +0.052 A 
ATOM     13  N   UNL     1       1.218   2.131  -0.006  0.00  0.00    -0.316 N 
ATOM     14  C   UNL     1      -1.202  -0.627   0.068  0.00  0.00    +0.163 C 
ATOM     15  O   UNL     1      -1.209  -1.842   0.041  0.00  0.00    -0.292 OA
ATOM     16  C   UNL     1      -2.509   0.102   0.145  0.00  0.00    +0.088 C 
ATOM     17  H   UNL     1       3.036  -0.460  -1.226  0.00  0.00    +0.147 HD
ATOM     18  H   UNL     1       1.301   2.983  -0.698  0.00  0.00    +0.152 HD
ENDROOT
BRANCH   1  22
ATOM     19  C   UNL     1      -5.904   3.706   0.870  0.00  0.00    -0.042 A 
ATOM     20  C   UNL     1      -5.295   3.361   2.062  0.00  0.00    +0.004 A 
ATOM     21  C   UNL     1      -4.122   2.631   2.052  0.00  0.00    +0.004 A 
ATOM     22  C   UNL     1      -3.557   2.245   0.850  0.00  0.00    -0.043 A 
ATOM     23  C   UNL     1      -4.163   2.595  -0.342  0.00  0.00    +0.004 A 
ATOM     24  C   UNL     1      -5.339   3.322  -0.332  0.00  0.00    +0.004 A 
BRANCH  19  26
ATOM     25  C   UNL     1      -6.944   5.844   1.576  0.00  0.00    +0.015 C 
ATOM     26  C   UNL     1      -7.184   4.502   0.880  0.00  0.00    -0.013 C 
ATOM     27  C   UNL     1      -7.643   4.748  -0.558  0.00  0.00    +0.015 C 
ATOM     28  C   UNL     1      -8.263   3.723   1.634  0.00  0.00    +0.015 C 
ENDBRANCH  19  26
ENDBRANCH   1  22
BRANCH   5  29
ATOM     29  C   UNL     1       1.353  -1.550   1.335  0.00  0.00    +0.022 A 
ATOM     30  C   UNL     1       0.688  -1.032   2.431  0.00  0.00    +0.009 A 
ATOM     31  C   UNL     1       0.793  -1.650   3.662  0.00  0.00    +0.004 A 
ATOM     32  C   UNL     1       1.564  -2.790   3.804  0.00  0.00    +0.049 A 
ATOM     33  C   UNL     1       2.232  -3.314   2.710  0.00  0.00    +0.162 A 
ATOM     34  C   UNL     1       2.122  -2.694   1.468  0.00  0.00    +0.164 A 
BRANCH  34  35
ATOM     35  O   UNL     1       2.773  -3.208   0.390  0.00  0.00    -0.503 OA
ATOM     36  H   UNL     1       3.383  -4.117   0.498  0.00  0.00    +0.292 HD
ENDBRANCH  34  35
BRANCH  33  37
ATOM     37  O   UNL     1       2.990  -4.435   2.847  0.00  0.00    -0.491 OA
ATOM     38  C   UNL     1       3.052  -5.021   4.149  0.00  0.00    +0.277 C 
ENDBRANCH  33  37
ENDBRANCH   5  29
TORSDOF 5
