REMARK  Name = ZINC67612333
REMARK  9 active torsions:
REMARK  status: ('A' for Active; 'I' for Inactive)
REMARK    1  A    between atoms: C_1  and  C_2
REMARK    2  A    between atoms: C_4  and  C_29
REMARK    3  A    between atoms: C_5  and  N_9
REMARK    4  A    between atoms: C_6  and  C_8
REMARK    5  A    between atoms: C_10  and  C_12
REMARK    6  A    between atoms: C_12  and  N_13
REMARK    7  A    between atoms: N_13  and  C_14
REMARK    8  A    between atoms: N_17  and  C_18
REMARK    9  A    between atoms: C_21  and  C_23
REMARK                            x       y       z     vdW  Elec       q    Type
REMARK                         _______ _______ _______ _____ _____    ______ ____
ROOT
ATOM      1  N   UNL     1       0.858  -6.983   2.265  0.00  0.00    -0.280 N 
ATOM      2  C   UNL     1      -0.114  -7.292   3.317  0.00  0.00    +0.134 C 
ATOM      3  C   UNL     1       2.174  -7.167   2.489  0.00  0.00    +0.303 C 
ATOM      4  O   UNL     1       2.981  -6.911   1.616  0.00  0.00    -0.253 OA
ATOM      5  N   UNL     1       2.596  -7.634   3.680  0.00  0.00    -0.296 N 
ATOM      6  H   UNL     1       1.953  -7.838   4.377  0.00  0.00    +0.151 HD
ENDROOT
BRANCH   5   7
ATOM      7  C   UNL     1       4.027  -7.834   3.924  0.00  0.00    +0.082 C 
ATOM      8  C   UNL     1       4.587  -7.366   5.269  0.00  0.00    +0.033 C 
ATOM      9  C   UNL     1       4.427  -8.862   4.984  0.00  0.00    +0.041 C 
BRANCH   9  10
ATOM     10  C   UNL     1       3.318  -9.591   5.699  0.00  0.00    -0.042 A 
ATOM     11  C   UNL     1       2.381  -8.882   6.427  0.00  0.00    +0.004 A 
ATOM     12  C   UNL     1       1.365  -9.551   7.082  0.00  0.00    +0.000 A 
ATOM     13  C   UNL     1       1.285 -10.929   7.009  0.00  0.00    +0.000 A 
ATOM     14  C   UNL     1       2.221 -11.638   6.280  0.00  0.00    +0.000 A 
ATOM     15  C   UNL     1       3.236 -10.969   5.621  0.00  0.00    +0.004 A 
ENDBRANCH   9  10
ENDBRANCH   5   7
BRANCH   1  16
ATOM     16  C   UNL     1       0.399  -6.476   0.969  0.00  0.00    +0.205 C 
BRANCH  16  18
ATOM     17  N   UNL     1      -0.052  -4.280  -0.077  0.00  0.00    -0.284 N 
ATOM     18  C   UNL     1       0.345  -4.970   1.011  0.00  0.00    +0.235 C 
ATOM     19  O   UNL     1       0.659  -4.380   2.022  0.00  0.00    -0.274 OA
ATOM     20  H   UNL     1      -0.370  -4.753  -0.862  0.00  0.00    +0.155 HD
BRANCH  17  25
ATOM     21  C   UNL     1       0.136   1.390  -0.065  0.00  0.00    +0.044 C 
ATOM     22  C   UNL     1       0.086  -0.116  -0.068  0.00  0.00    -0.050 A 
ATOM     23  C   UNL     1       0.759  -0.827  -1.045  0.00  0.00    +0.008 A 
ATOM     24  C   UNL     1       0.715  -2.207  -1.051  0.00  0.00    -0.029 A 
ATOM     25  C   UNL     1      -0.005  -2.882  -0.074  0.00  0.00    +0.039 A 
ATOM     26  C   UNL     1      -0.679  -2.165   0.906  0.00  0.00    -0.029 A 
ATOM     27  C   UNL     1      -0.628  -0.785   0.909  0.00  0.00    +0.008 A 
ATOM     28  C   UNL     1      -1.463  -2.893   1.968  0.00  0.00    +0.045 C 
ATOM     29  C   UNL     1       1.448  -2.981  -2.116  0.00  0.00    +0.045 C 
ENDBRANCH  17  25
ENDBRANCH  16  18
ENDBRANCH   1  16
TORSDOF 5
