REMARK  Name = ZINC12362084
REMARK  10 active torsions:
REMARK  status: ('A' for Active; 'I' for Inactive)
REMARK    1  A    between atoms: C_1  and  C_2
REMARK    2  A    between atoms: C_2  and  N_26
REMARK    3  A    between atoms: C_3  and  C_4
REMARK    4  A    between atoms: C_3  and  C_6
REMARK    5  A    between atoms: C_6  and  C_7
REMARK    6  A    between atoms: C_6  and  C_11
REMARK    7  A    between atoms: C_6  and  N_15
REMARK    8  A    between atoms: C_16  and  C_18
REMARK    9  A    between atoms: C_18  and  C_19
REMARK   10  A    between atoms: C_19  and  C_20
REMARK                            x       y       z     vdW  Elec       q    Type
REMARK                         _______ _______ _______ _____ _____    ______ ____
ROOT
ATOM      1  C   UNL     1      -0.736   1.647   1.543  0.00  0.00    +0.261 C 
ENDROOT
BRANCH   1   2
ATOM      2  C   UNL     1       0.058   0.954   2.651  0.00  0.00    +0.424 C 
ATOM      3  F   UNL     1      -0.667   1.006   3.847  0.00  0.00    -0.168 F 
ATOM      4  F   UNL     1       1.286   1.603   2.822  0.00  0.00    -0.168 F 
ATOM      5  F   UNL     1       0.282  -0.382   2.300  0.00  0.00    -0.168 F 
ENDBRANCH   1   2
BRANCH   1   6
ATOM      6  C   UNL     1      -0.845   3.142   1.852  0.00  0.00    +0.424 C 
ATOM      7  F   UNL     1       0.433   3.709   1.871  0.00  0.00    -0.168 F 
ATOM      8  F   UNL     1      -1.617   3.766   0.866  0.00  0.00    -0.168 F 
ATOM      9  F   UNL     1      -1.452   3.317   3.100  0.00  0.00    -0.168 F 
ENDBRANCH   1   6
BRANCH   1  10
ATOM     10  N   UNL     1      -2.078   1.065   1.466  0.00  0.00    -0.291 N 
ATOM     11  C   UNL     1      -2.235  -0.218   1.084  0.00  0.00    +0.214 C 
ATOM     12  O   UNL     1      -1.263  -0.912   0.877  0.00  0.00    -0.276 OA
ATOM     13  H   UNL     1      -2.958   1.675   1.720  0.00  0.00    +0.150 HD
BRANCH  11  14
ATOM     14  C   UNL     1      -3.619  -0.789   0.914  0.00  0.00    +0.096 C 
BRANCH  14  15
ATOM     15  C   UNL     1      -3.517  -2.253   0.478  0.00  0.00    +0.013 C 
BRANCH  15  16
ATOM     16  C   UNL     1      -4.922  -2.833   0.306  0.00  0.00    -0.011 C 
ATOM     17  C   UNL     1      -5.631  -2.863   1.662  0.00  0.00    +0.003 C 
ATOM     18  C   UNL     1      -7.036  -3.443   1.489  0.00  0.00    +0.000 C 
ATOM     19  C   UNL     1      -6.936  -4.865   0.934  0.00  0.00    +0.000 C 
ATOM     20  C   UNL     1      -6.227  -4.835  -0.421  0.00  0.00    +0.000 C 
ATOM     21  C   UNL     1      -4.822  -4.255  -0.249  0.00  0.00    +0.003 C 
ENDBRANCH  15  16
ENDBRANCH  14  15
ENDBRANCH  11  14
ENDBRANCH   1  10
BRANCH   1  24
ATOM     22  C   UNL     1      -2.193   1.798  -0.924  0.00  0.00    +0.061 C 
ATOM     23  C   UNL     1      -0.741   1.395  -0.918  0.00  0.00    +0.014 C 
ATOM     24  C   UNL     1      -0.030   1.457   0.225  0.00  0.00    +0.086 C 
BRANCH  23  25
ATOM     25  N   UNL     1      -0.144   0.966  -2.074  0.00  0.00    -0.361 N 
ATOM     26  H   UNL     1       0.916   0.672  -2.070  0.00  0.00    +0.142 HD
ATOM     27  H   UNL     1      -0.725   0.915  -3.007  0.00  0.00    +0.142 HD
ENDBRANCH  23  25
BRANCH  24  28
ATOM     28  C   UNL     1       1.397   1.343   0.187  0.00  0.00    +0.099 C 
ATOM     29  N   UNL     1       2.529   1.252   0.157  0.00  0.00    -0.191 NA
ENDBRANCH  24  28
ENDBRANCH   1  24
TORSDOF 9
