REMARK  Name = ZINC06137757
REMARK  12 active torsions:
REMARK  status: ('A' for Active; 'I' for Inactive)
REMARK    1  A    between atoms: C_1  and  C_2
REMARK    2  A    between atoms: C_5  and  O_38
REMARK    3  A    between atoms: C_7  and  C_35
REMARK    4  A    between atoms: C_7  and  C_36
REMARK    5  A    between atoms: C_17  and  C_19
REMARK    6  A    between atoms: C_19  and  C_20
REMARK    7  A    between atoms: C_19  and  C_21
REMARK    8  A    between atoms: C_19  and  C_22
REMARK    9  A    between atoms: C_23  and  C_25
REMARK   10  A    between atoms: C_25  and  C_26
REMARK   11  A    between atoms: N_28  and  C_29
REMARK   12  A    between atoms: C_36  and  O_37
REMARK                            x       y       z     vdW  Elec       q    Type
REMARK                         _______ _______ _______ _____ _____    ______ ____
ROOT
ATOM      1  C   UNL     1       0.215   0.868   0.499  0.00  0.00    +0.012 C 
ATOM      2  C   UNL     1       0.425  -0.632   0.720  0.00  0.00    -0.019 C 
ATOM      3  C   UNL     1       0.676  -1.319  -0.627  0.00  0.00    +0.010 C 
ATOM      4  C   UNL     1       1.959  -0.789  -1.263  0.00  0.00    +0.032 C 
ATOM      5  C   UNL     1       3.134  -1.094  -0.328  0.00  0.00    +0.123 C 
ATOM      6  C   UNL     1       2.907  -0.370   0.997  0.00  0.00    +0.021 C 
ATOM      7  C   UNL     1       1.617  -0.850   1.653  0.00  0.00    +0.011 C 
ATOM      8  C   UNL     1       1.415  -0.015   2.933  0.00  0.00    +0.049 C 
ATOM      9  C   UNL     1       0.023  -0.210   3.421  0.00  0.00    +0.015 A 
ATOM     10  C   UNL     1      -1.022  -0.752   2.747  0.00  0.00    +0.058 A 
ATOM     11  N   UNL     1      -2.163  -0.802   3.429  0.00  0.00    -0.229 NA
ATOM     12  C   UNL     1      -2.256  -0.357   4.662  0.00  0.00    +0.165 A 
ATOM     13  S   UNL     1      -0.696   0.191   4.990  0.00  0.00    -0.057 S 
ATOM     14  N   UNL     1      -3.370  -0.342   5.494  0.00  0.00    -0.264 N 
ATOM     15  C   UNL     1      -3.272   0.160   6.741  0.00  0.00    +0.224 C 
ATOM     16  O   UNL     1      -2.213   0.598   7.138  0.00  0.00    -0.275 OA
ATOM     17  C   UNL     1      -0.844  -1.244   1.329  0.00  0.00    +0.054 C 
ATOM     18  C   UNL     1       4.087  -0.645   1.933  0.00  0.00    +0.016 C 
ATOM     19  H   UNL     1      -4.217  -0.692   5.177  0.00  0.00    +0.157 HD
ENDROOT
BRANCH  15  20
ATOM     20  C   UNL     1      -4.480   0.176   7.643  0.00  0.00    +0.039 C 
ATOM     21  C   UNL     1      -4.101   0.792   8.991  0.00  0.00    +0.020 C 
ATOM     22  C   UNL     1      -5.589   1.008   6.995  0.00  0.00    +0.020 C 
ATOM     23  C   UNL     1      -4.976  -1.255   7.858  0.00  0.00    +0.020 C 
ENDBRANCH  15  20
BRANCH   5  24
ATOM     24  O   UNL     1       4.351  -0.638  -0.924  0.00  0.00    -0.391 OA
ATOM     25  H   UNL     1       4.550  -1.051  -1.776  0.00  0.00    +0.210 HD
ENDBRANCH   5  24
BRANCH  17  26
ATOM     26  C   UNL     1      -2.059  -0.835   0.494  0.00  0.00    +0.106 C 
BRANCH  26  27
ATOM     27  C   UNL     1      -3.264  -1.622   0.942  0.00  0.00    +0.218 C 
ATOM     28  O   UNL     1      -3.161  -2.430   1.840  0.00  0.00    -0.275 OA
ATOM     29  N   UNL     1      -4.457  -1.427   0.344  0.00  0.00    -0.285 N 
ATOM     30  H   UNL     1      -4.558  -0.725  -0.318  0.00  0.00    +0.155 HD
BRANCH  29  31
ATOM     31  C   UNL     1      -5.547  -2.237   0.677  0.00  0.00    +0.033 A 
ATOM     32  C   UNL     1      -6.841  -1.746   0.561  0.00  0.00    +0.023 A 
ATOM     33  C   UNL     1      -7.915  -2.548   0.891  0.00  0.00    +0.002 A 
ATOM     34  C   UNL     1      -7.704  -3.840   1.337  0.00  0.00    +0.000 A 
ATOM     35  C   UNL     1      -6.417  -4.332   1.454  0.00  0.00    +0.002 A 
ATOM     36  C   UNL     1      -5.339  -3.537   1.120  0.00  0.00    +0.023 A 
ENDBRANCH  29  31
ENDBRANCH  26  27
ENDBRANCH  17  26
BRANCH   6  37
ATOM     37  C   UNL     1       2.808   1.135   0.742  0.00  0.00    +0.165 C 
BRANCH  37  38
ATOM     38  O   UNL     1       4.076   1.629   0.305  0.00  0.00    -0.394 OA
ATOM     39  H   UNL     1       4.088   2.578   0.124  0.00  0.00    +0.209 HD
ENDBRANCH  37  38
ENDBRANCH   6  37
TORSDOF 7
