REMARK  Name = ZINC15070756
REMARK  5 active torsions:
REMARK  status: ('A' for Active; 'I' for Inactive)
REMARK    1  A    between atoms: C_4  and  C_7
REMARK    2  A    between atoms: C_9  and  C_12
REMARK    3  A    between atoms: C_12  and  N_13
REMARK    4  A    between atoms: N_13  and  C_14
REMARK    5  A    between atoms: N_25  and  C_28
REMARK                            x       y       z     vdW  Elec       q    Type
REMARK                         _______ _______ _______ _____ _____    ______ ____
ROOT
ATOM      1  C   UNL     1     -11.211   2.965  -1.141  0.00  0.00    +0.059 C 
ATOM      2  C   UNL     1     -10.256   2.160  -2.028  0.00  0.00    +0.024 C 
ATOM      3  C   UNL     1      -8.812   2.583  -1.753  0.00  0.00    +0.038 C 
ATOM      4  C   UNL     1      -8.550   2.493  -0.253  0.00  0.00    -0.023 A 
ATOM      5  C   UNL     1      -9.575   2.461   0.626  0.00  0.00    -0.003 A 
ATOM      6  S   UNL     1      -8.809   2.357   2.221  0.00  0.00    -0.073 S 
ATOM      7  C   UNL     1      -7.112   2.357   1.702  0.00  0.00    +0.116 A 
ATOM      8  C   UNL     1      -7.199   2.438   0.303  0.00  0.00    +0.076 A 
ATOM      9  C   UNL     1      -5.947   2.462  -0.396  0.00  0.00    +0.263 A 
ATOM     10  O   UNL     1      -5.918   2.536  -1.612  0.00  0.00    -0.267 OA
ATOM     11  N   UNL     1      -4.805   2.396   0.313  0.00  0.00    -0.295 N 
ATOM     12  C   UNL     1      -4.819   2.318   1.669  0.00  0.00    +0.203 A 
ATOM     13  N   UNL     1      -5.943   2.300   2.334  0.00  0.00    -0.230 NA
ATOM     14  C   UNL     1     -11.040   2.505   0.313  0.00  0.00    +0.061 C 
ENDROOT
BRANCH  11  15
ATOM     15  C   UNL     1      -3.521   2.413  -0.392  0.00  0.00    +0.100 C 
ATOM     16  C   UNL     1      -2.640   1.220   0.034  0.00  0.00    +0.061 C 
ATOM     17  C   UNL     1      -1.222   1.750   0.017  0.00  0.00    -0.042 A 
ATOM     18  C   UNL     1      -0.013   1.076   0.008  0.00  0.00    +0.004 A 
ATOM     19  C   UNL     1       1.175   1.780   0.000  0.00  0.00    +0.000 A 
ATOM     20  C   UNL     1       1.157   3.163   0.008  0.00  0.00    +0.000 A 
ATOM     21  C   UNL     1      -0.048   3.836   0.023  0.00  0.00    +0.004 A 
ATOM     22  C   UNL     1      -1.240   3.132   0.030  0.00  0.00    -0.042 A 
ATOM     23  C   UNL     1      -2.671   3.625   0.046  0.00  0.00    +0.061 C 
ENDBRANCH  11  15
BRANCH   1  24
ATOM     24  N   UNL     1     -12.596   2.733  -1.571  0.00  0.00    -0.307 NA
ATOM     25  H   UNL     1     -12.965   1.814  -1.091  0.00  0.00    +0.123 HD
BRANCH  24  26
ATOM     26  C   UNL     1     -13.460   3.861  -1.198  0.00  0.00    +0.140 C 
BRANCH  26  29
ATOM     27  C   UNL     1     -16.971   2.988  -1.749  0.00  0.00    +0.168 A 
ATOM     28  C   UNL     1     -15.910   3.024  -0.887  0.00  0.00    +0.077 A 
ATOM     29  C   UNL     1     -14.870   3.587  -1.655  0.00  0.00    +0.098 A 
ATOM     30  N   UNL     1     -15.367   3.830  -2.834  0.00  0.00    -0.081 NA
ATOM     31  O   UNL     1     -16.528   3.501  -2.911  0.00  0.00    -0.354 OA
BRANCH  27  35
ATOM     32  C   UNL     1     -20.880   1.543  -0.925  0.00  0.00    +0.000 A 
ATOM     33  C   UNL     1     -20.581   2.044  -2.180  0.00  0.00    +0.001 A 
ATOM     34  C   UNL     1     -19.314   2.515  -2.454  0.00  0.00    +0.011 A 
ATOM     35  C   UNL     1     -18.332   2.485  -1.462  0.00  0.00    +0.020 A 
ATOM     36  C   UNL     1     -18.638   1.973  -0.200  0.00  0.00    +0.011 A 
ATOM     37  C   UNL     1     -19.911   1.510   0.062  0.00  0.00    +0.001 A 
ENDBRANCH  27  35
ENDBRANCH  26  29
ENDBRANCH  24  26
ENDBRANCH   1  24
TORSDOF 5
