REMARK  Name = ZINC11908923
REMARK  6 active torsions:
REMARK  status: ('A' for Active; 'I' for Inactive)
REMARK    1  A    between atoms: C_8  and  C_10
REMARK    2  A    between atoms: C_10  and  N_65
REMARK    3  A    between atoms: C_13  and  C_16
REMARK    4  A    between atoms: C_16  and  C_30
REMARK    5  A    between atoms: N_19  and  C_23
REMARK    6  A    between atoms: C_23  and  C_24
REMARK                            x       y       z     vdW  Elec       q    Type
REMARK                         _______ _______ _______ _____ _____    ______ ____
ROOT
ATOM      1  C   UNL     1       1.373  -4.265   5.183  0.00  0.00    +0.157 C 
ATOM      2  C   UNL     1       0.384  -3.682   6.173  0.00  0.00    +0.253 C 
ATOM      3  O   UNL     1       0.187  -2.509   6.406  0.00  0.00    -0.272 OA
ATOM      4  N   UNL     1      -0.231  -4.739   6.740  0.00  0.00    -0.221 N 
ATOM      5  C   UNL     1       0.228  -5.897   6.251  0.00  0.00    +0.310 C 
ATOM      6  O   UNL     1      -0.174  -6.988   6.607  0.00  0.00    -0.252 OA
ATOM      7  N   UNL     1       1.183  -5.720   5.320  0.00  0.00    -0.280 N 
ATOM      8  H   UNL     1       1.655  -6.414   4.834  0.00  0.00    +0.152 HD
ENDROOT
BRANCH   1  11
ATOM      9  C   UNL     1       1.581  -4.117   1.342  0.00  0.00    -0.078 C 
ATOM     10  C   UNL     1       1.958  -4.530   2.766  0.00  0.00    -0.012 C 
ATOM     11  C   UNL     1       1.042  -3.811   3.760  0.00  0.00    +0.024 C 
ATOM     12  C   UNL     1      -0.415  -4.153   3.440  0.00  0.00    -0.012 C 
ATOM     13  C   UNL     1      -0.723  -3.751   1.996  0.00  0.00    -0.078 C 
ATOM     14  N   UNL     1       0.175  -4.495   1.088  0.00  0.00    +0.384 N 
ATOM     15  H   UNL     1       0.064  -5.501   1.262  0.00  0.00    -0.081 HD
BRANCH  14  16
ATOM     16  C   UNL     1      -0.179  -4.210  -0.318  0.00  0.00    -0.003 C 
BRANCH  16  24
ATOM     17  C   UNL     1       3.919  -6.829  -3.951  0.00  0.00    +0.001 A 
ATOM     18  C   UNL     1       4.524  -5.585  -3.853  0.00  0.00    +0.004 A 
ATOM     19  C   UNL     1       3.956  -4.583  -3.095  0.00  0.00    +0.047 A 
ATOM     20  C   UNL     1       2.759  -4.816  -2.428  0.00  0.00    +0.135 A 
ATOM     21  C   UNL     1       2.151  -6.079  -2.532  0.00  0.00    +0.020 A 
ATOM     22  C   UNL     1       2.743  -7.080  -3.300  0.00  0.00    +0.011 A 
ATOM     23  C   UNL     1       0.930  -5.994  -1.721  0.00  0.00    +0.051 A 
ATOM     24  C   UNL     1       0.902  -4.752  -1.218  0.00  0.00    +0.090 A 
ATOM     25  O   UNL     1       1.976  -4.059  -1.634  0.00  0.00    -0.462 OA
ENDBRANCH  16  24
ENDBRANCH  14  16
ENDBRANCH   1  11
BRANCH   1  26
ATOM     26  C   UNL     1       2.782  -3.874   5.549  0.00  0.00    +0.074 A 
ATOM     27  C   UNL     1       3.327  -4.320   6.739  0.00  0.00    +0.026 A 
ATOM     28  C   UNL     1       4.626  -3.959   7.063  0.00  0.00    +0.003 A 
ATOM     29  C   UNL     1       5.327  -3.151   6.180  0.00  0.00    +0.020 A 
ATOM     30  C   UNL     1       4.713  -2.740   5.012  0.00  0.00    +0.111 A 
ATOM     31  N   UNL     1       3.478  -3.107   4.733  0.00  0.00    -0.257 NA
ENDBRANCH   1  26
BRANCH   4  32
ATOM     32  C   UNL     1      -1.272  -4.634   7.765  0.00  0.00    +0.149 C 
BRANCH  32  33
ATOM     33  C   UNL     1      -2.644  -4.562   7.093  0.00  0.00    +0.136 C 
ATOM     34  C   UNL     1      -3.748  -4.324   8.147  0.00  0.00    +0.035 C 
ATOM     35  C   UNL     1      -4.938  -5.170   7.642  0.00  0.00    +0.031 C 
ATOM     36  C   UNL     1      -4.413  -5.818   6.342  0.00  0.00    +0.160 C 
ATOM     37  O   UNL     1      -2.976  -5.832   6.490  0.00  0.00    -0.375 OA
ENDBRANCH  32  33
ENDBRANCH   4  32
TORSDOF 6
