REMARK  Name = ZINC32696129
REMARK  7 active torsions:
REMARK  status: ('A' for Active; 'I' for Inactive)
REMARK    1  A    between atoms: C_6  and  N_7
REMARK    2  A    between atoms: C_8  and  C_10
REMARK    3  A    between atoms: C_10  and  S_11
REMARK    4  A    between atoms: S_11  and  C_12
REMARK    5  A    between atoms: C_15  and  C_17
REMARK    6  A    between atoms: C_17  and  O_18
REMARK    7  A    between atoms: O_18  and  C_19
REMARK                            x       y       z     vdW  Elec       q    Type
REMARK                         _______ _______ _______ _____ _____    ______ ____
ROOT
ATOM      1  S   UNL     1       6.944  -3.492   4.276  0.00  0.00    -0.056 S 
ENDROOT
BRANCH   1   2
ATOM      2  C   UNL     1       8.540  -3.298   4.996  0.00  0.00    +0.278 A 
ATOM      3  N   UNL     1       9.288  -2.221   4.950  0.00  0.00    -0.101 NA
ATOM      4  N   UNL     1      10.386  -2.439   5.585  0.00  0.00    -0.108 NA
ATOM      5  C   UNL     1      10.387  -3.654   6.049  0.00  0.00    +0.255 A 
ATOM      6  O   UNL     1       9.223  -4.229   5.689  0.00  0.00    -0.412 OA
BRANCH   5   7
ATOM      7  C   UNL     1      11.491  -4.302   6.845  0.00  0.00    +0.326 C 
BRANCH   7   8
ATOM      8  O   UNL     1      11.273  -4.072   8.238  0.00  0.00    -0.481 OA
BRANCH   8   9
ATOM      9  C   UNL     1      12.185  -4.594   9.100  0.00  0.00    +0.140 A 
ATOM     10  C   UNL     1      13.268  -5.312   8.615  0.00  0.00    +0.048 A 
ATOM     11  C   UNL     1      14.194  -5.842   9.492  0.00  0.00    +0.023 A 
ATOM     12  C   UNL     1      14.043  -5.656  10.855  0.00  0.00    +0.043 A 
ATOM     13  C   UNL     1      12.963  -4.941  11.342  0.00  0.00    +0.043 A 
ATOM     14  C   UNL     1      12.038  -4.404  10.467  0.00  0.00    +0.084 A 
ATOM     15 CL   UNL     1      10.688  -3.498  11.078  0.00  0.00    -0.080 Cl
ATOM     16 CL   UNL     1      15.208  -6.323  11.956  0.00  0.00    -0.083 Cl
ENDBRANCH   8   9
ENDBRANCH   7   8
ENDBRANCH   5   7
ENDBRANCH   1   2
BRANCH   1  17
ATOM     17  C   UNL     1       6.728  -1.852   3.543  0.00  0.00    +0.175 C 
BRANCH  17  19
ATOM     18  N   UNL     1       5.010  -0.649   2.231  0.00  0.00    -0.285 N 
ATOM     19  C   UNL     1       5.390  -1.783   2.852  0.00  0.00    +0.228 C 
ATOM     20  O   UNL     1       4.655  -2.748   2.855  0.00  0.00    -0.275 OA
ATOM     21  H   UNL     1       5.710   0.197   2.153  0.00  0.00    +0.155 HD
BRANCH  18  27
ATOM     22  C   UNL     1       2.657  -1.190   2.295  0.00  0.00    +0.027 A 
ATOM     23  C   UNL     1       1.388  -1.090   1.757  0.00  0.00    +0.051 A 
ATOM     24  C   UNL     1       1.177  -0.347   0.608  0.00  0.00    +0.166 A 
ATOM     25  C   UNL     1       2.246   0.301  -0.008  0.00  0.00    +0.168 A 
ATOM     26  C   UNL     1       3.517   0.200   0.532  0.00  0.00    +0.072 A 
ATOM     27  C   UNL     1       3.724  -0.546   1.684  0.00  0.00    +0.037 A 
ATOM     28  O   UNL     1       1.782   0.958  -1.110  0.00  0.00    -0.453 OA
ATOM     29  C   UNL     1       0.355   1.044  -0.934  0.00  0.00    +0.466 C 
ATOM     30  O   UNL     1       0.043  -0.094  -0.110  0.00  0.00    -0.453 OA
ENDBRANCH  18  27
ENDBRANCH  17  19
ENDBRANCH   1  17
TORSDOF 7
