REMARK  Name = ZINC39912190
REMARK  13 active torsions:
REMARK  status: ('A' for Active; 'I' for Inactive)
REMARK    1  A    between atoms: C_1  and  C_2
REMARK    2  A    between atoms: C_4  and  C_38
REMARK    3  A    between atoms: C_5  and  O_37
REMARK    4  A    between atoms: C_6  and  C_8
REMARK    5  A    between atoms: N_16  and  C_31
REMARK    6  A    between atoms: C_17  and  C_19
REMARK    7  A    between atoms: C_21  and  O_29
REMARK    8  A    between atoms: C_22  and  O_27
REMARK    9  A    between atoms: C_23  and  O_25
REMARK   10  A    between atoms: O_25  and  C_26
REMARK   11  A    between atoms: O_27  and  C_28
REMARK   12  A    between atoms: O_29  and  C_30
REMARK   13  A    between atoms: C_31  and  C_32
REMARK                            x       y       z     vdW  Elec       q    Type
REMARK                         _______ _______ _______ _____ _____    ______ ____
ROOT
ATOM      1  C   UNL     1       0.246  -2.929   2.634  0.00  0.00    +0.102 A 
ATOM      2  C   UNL     1       0.191  -2.321   3.893  0.00  0.00    +0.035 A 
ATOM      3  C   UNL     1       0.519  -3.307   4.802  0.00  0.00    +0.126 A 
ATOM      4  N   UNL     1       0.752  -4.436   4.070  0.00  0.00    -0.272 N 
ATOM      5  H   UNL     1       1.005  -5.297   4.438  0.00  0.00    +0.189 HD
ATOM      6  N   UNL     1       0.583  -4.190   2.820  0.00  0.00    -0.173 NA
ATOM      7  C   UNL     1       0.479  -2.731   6.151  0.00  0.00    +0.266 C 
ATOM      8  O   UNL     1       0.720  -3.342   7.175  0.00  0.00    -0.268 OA
ATOM      9  N   UNL     1       0.138  -1.431   6.095  0.00  0.00    -0.278 N 
ATOM     10  C   UNL     1      -0.069  -1.069   4.686  0.00  0.00    +0.142 C 
ENDROOT
BRANCH   1  16
ATOM     11  C   UNL     1      -1.303   1.041   0.033  0.00  0.00    +0.044 C 
ATOM     12  C   UNL     1      -0.773  -0.369   0.075  0.00  0.00    -0.049 A 
ATOM     13  C   UNL     1      -0.544  -1.055  -1.105  0.00  0.00    +0.010 A 
ATOM     14  C   UNL     1      -0.058  -2.349  -1.076  0.00  0.00    -0.008 A 
ATOM     15  C   UNL     1       0.202  -2.966   0.137  0.00  0.00    +0.129 A 
ATOM     16  C   UNL     1      -0.029  -2.275   1.330  0.00  0.00    +0.044 A 
ATOM     17  C   UNL     1      -0.513  -0.970   1.290  0.00  0.00    +0.017 A 
ATOM     18  C   UNL     1       0.189  -3.089  -2.366  0.00  0.00    +0.047 C 
BRANCH  15  19
ATOM     19  O   UNL     1       0.679  -4.237   0.166  0.00  0.00    -0.506 OA
ATOM     20  H   UNL     1       1.644  -4.296   0.155  0.00  0.00    +0.292 HD
ENDBRANCH  15  19
ENDBRANCH   1  16
BRANCH  10  21
ATOM     21  C   UNL     1       0.898   0.012   4.281  0.00  0.00    -0.015 A 
ATOM     22  C   UNL     1       2.256  -0.176   4.457  0.00  0.00    +0.055 A 
ATOM     23  C   UNL     1       3.150   0.817   4.086  0.00  0.00    +0.165 A 
ATOM     24  C   UNL     1       2.678   2.003   3.535  0.00  0.00    +0.204 A 
ATOM     25  C   UNL     1       1.312   2.189   3.360  0.00  0.00    +0.165 A 
ATOM     26  C   UNL     1       0.425   1.188   3.729  0.00  0.00    +0.055 A 
BRANCH  25  27
ATOM     27  O   UNL     1       0.846   3.347   2.822  0.00  0.00    -0.491 OA
ATOM     28  C   UNL     1      -0.573   3.496   2.731  0.00  0.00    +0.277 C 
ENDBRANCH  25  27
BRANCH  24  29
ATOM     29  O   UNL     1       3.552   2.981   3.170  0.00  0.00    -0.488 OA
ATOM     30  C   UNL     1       4.050   2.939   1.831  0.00  0.00    +0.277 C 
ENDBRANCH  24  29
BRANCH  23  31
ATOM     31  O   UNL     1       4.486   0.631   4.260  0.00  0.00    -0.491 OA
ATOM     32  C   UNL     1       4.907  -0.653   4.724  0.00  0.00    +0.277 C 
ENDBRANCH  23  31
ENDBRANCH  10  21
BRANCH   9  33
ATOM     33  C   UNL     1      -0.002  -0.530   7.242  0.00  0.00    +0.183 C 
BRANCH  33  34
ATOM     34  C   UNL     1       1.345   0.046   7.595  0.00  0.00    +0.122 A 
ATOM     35  C   UNL     1       1.835   1.223   7.165  0.00  0.00    +0.046 A 
ATOM     36  C   UNL     1       3.120   1.365   7.738  0.00  0.00    +0.041 A 
ATOM     37  C   UNL     1       3.338   0.268   8.484  0.00  0.00    +0.195 A 
ATOM     38  O   UNL     1       2.257  -0.525   8.398  0.00  0.00    -0.466 OA
ENDBRANCH  33  34
ENDBRANCH   9  33
TORSDOF 8
