REMARK  Name = ZINC46896791
REMARK  11 active torsions:
REMARK  status: ('A' for Active; 'I' for Inactive)
REMARK    1  A    between atoms: C_1  and  C_2
REMARK    2  A    between atoms: C_2  and  C_3
REMARK    3  A    between atoms: C_2  and  N_4
REMARK    4  A    between atoms: C_5  and  C_7
REMARK    5  A    between atoms: C_7  and  N_8
REMARK    6  A    between atoms: N_16  and  C_17
REMARK    7  A    between atoms: C_17  and  C_19
REMARK    8  A    between atoms: C_17  and  C_25
REMARK    9  A    between atoms: C_25  and  C_26
REMARK   10  A    between atoms: C_25  and  C_27
REMARK   11  A    between atoms: C_25  and  C_28
REMARK                            x       y       z     vdW  Elec       q    Type
REMARK                         _______ _______ _______ _____ _____    ______ ____
ROOT
ATOM      1  N   UNL     1      -3.080  -3.602  -1.100  0.00  0.00    -0.291 NA
ATOM      2  C   UNL     1      -2.344  -4.554  -0.258  0.00  0.00    +0.104 C 
ATOM      3  C   UNL     1      -2.245  -5.901  -0.983  0.00  0.00    +0.124 C 
ATOM      4  N   UNL     1      -3.601  -6.327  -1.364  0.00  0.00    -0.283 N 
ATOM      5  C   UNL     1      -4.451  -5.372  -2.092  0.00  0.00    +0.124 C 
ATOM      6  C   UNL     1      -4.462  -4.046  -1.324  0.00  0.00    +0.104 C 
ATOM      7  C   UNL     1      -4.052  -7.558  -1.054  0.00  0.00    +0.303 C 
ATOM      8  O   UNL     1      -3.307  -8.366  -0.534  0.00  0.00    -0.253 OA
ATOM      9  N   UNL     1      -5.329  -7.895  -1.322  0.00  0.00    -0.292 N 
ATOM     10  H   UNL     1      -5.905  -7.275  -1.795  0.00  0.00    +0.151 HD
ENDROOT
BRANCH   1  11
ATOM     11  C   UNL     1      -3.048  -2.253  -0.520  0.00  0.00    +0.180 C 
BRANCH  11  13
ATOM     12  N   UNL     1      -1.361  -0.507  -0.045  0.00  0.00    -0.312 N 
ATOM     13  C   UNL     1      -1.633  -1.734  -0.532  0.00  0.00    +0.227 C 
ATOM     14  O   UNL     1      -0.739  -2.421  -0.980  0.00  0.00    -0.274 OA
ATOM     15  H   UNL     1      -2.076   0.042   0.313  0.00  0.00    +0.149 HD
BRANCH  12  17
ATOM     16  C   UNL     1      -0.004   1.527  -0.062  0.00  0.00    +0.027 C 
ATOM     17  C   UNL     1       0.014  -0.003  -0.057  0.00  0.00    +0.067 C 
ATOM     18  C   UNL     1       0.750  -0.500   1.189  0.00  0.00    +0.027 C 
ENDBRANCH  12  17
ENDBRANCH  11  13
ENDBRANCH   1  11
BRANCH   9  19
ATOM     19  C   UNL     1      -5.847  -9.198  -0.898  0.00  0.00    +0.110 C 
BRANCH  19  20
ATOM     20  C   UNL     1      -7.343  -9.117  -0.740  0.00  0.00    -0.027 A 
ATOM     21  C   UNL     1      -8.098  -8.406  -1.655  0.00  0.00    +0.005 A 
ATOM     22  C   UNL     1      -9.470  -8.331  -1.509  0.00  0.00    +0.000 A 
ATOM     23  C   UNL     1     -10.089  -8.968  -0.450  0.00  0.00    +0.000 A 
ATOM     24  C   UNL     1      -9.335  -9.680   0.464  0.00  0.00    +0.000 A 
ATOM     25  C   UNL     1      -7.963  -9.758   0.317  0.00  0.00    +0.005 A 
ENDBRANCH  19  20
BRANCH  19  26
ATOM     26  C   UNL     1      -5.502 -10.252  -1.953  0.00  0.00    -0.015 C 
ATOM     27  C   UNL     1      -3.983 -10.335  -2.113  0.00  0.00    +0.013 C 
ATOM     28  C   UNL     1      -6.043 -11.613  -1.510  0.00  0.00    +0.013 C 
ATOM     29  C   UNL     1      -6.136  -9.861  -3.289  0.00  0.00    +0.013 C 
ENDBRANCH  19  26
ENDBRANCH   9  19
TORSDOF 6
