REMARK  Name = ZINC19325130
REMARK  8 active torsions:
REMARK  status: ('A' for Active; 'I' for Inactive)
REMARK    1  A    between atoms: C_1  and  C_2
REMARK    2  A    between atoms: C_2  and  C_3
REMARK    3  A    between atoms: C_2  and  C_4
REMARK    4  A    between atoms: C_8  and  C_22
REMARK    5  A    between atoms: C_9  and  O_10
REMARK    6  A    between atoms: C_14  and  C_15
REMARK    7  A    between atoms: C_22  and  C_23
REMARK    8  A    between atoms: C_22  and  C_24
REMARK                            x       y       z     vdW  Elec       q    Type
REMARK                         _______ _______ _______ _____ _____    ______ ____
ROOT
ATOM      1  C   UNL     1       1.943   1.801  -1.083  0.00  0.00    -0.002 C 
ATOM      2  C   UNL     1       1.110   2.228   0.132  0.00  0.00    -0.065 C 
ATOM      3  N   UNL     1      -0.204   1.570   0.064  0.00  0.00    +0.394 N 
ATOM      4  C   UNL     1      -0.944   2.009  -1.129  0.00  0.00    -0.065 C 
ATOM      5  C   UNL     1      -0.171   1.576  -2.380  0.00  0.00    -0.002 C 
ATOM      6  C   UNL     1       1.213   2.237  -2.359  0.00  0.00    +0.126 C 
ATOM      7  C   UNL     1       0.011   0.053  -2.344  0.00  0.00    +0.090 C 
ATOM      8  N   UNL     1       0.716  -0.313  -1.106  0.00  0.00    -0.310 NA
ATOM      9  C   UNL     1       2.065   0.273  -1.083  0.00  0.00    +0.090 C 
ATOM     10  C   UNL     1      -0.054   0.107   0.074  0.00  0.00    +0.033 C 
ATOM     11  H   UNL     1      -0.781   1.861   0.954  0.00  0.00    -0.079 HD
ENDROOT
BRANCH  10  12
ATOM     12  C   UNL     1      -1.415  -0.538   0.042  0.00  0.00    -0.047 A 
ATOM     13  C   UNL     1      -2.497   0.103   0.616  0.00  0.00    +0.006 A 
ATOM     14  C   UNL     1      -3.747  -0.485   0.584  0.00  0.00    +0.038 A 
ATOM     15  C   UNL     1      -3.914  -1.722  -0.015  0.00  0.00    +0.123 A 
ATOM     16  C   UNL     1      -2.829  -2.366  -0.585  0.00  0.00    +0.038 A 
ATOM     17  C   UNL     1      -1.580  -1.773  -0.556  0.00  0.00    +0.006 A 
ATOM     18  F   UNL     1      -5.134  -2.300  -0.044  0.00  0.00    -0.205 F 
ENDBRANCH  10  12
BRANCH   1  20
ATOM     19  C   UNL     1       4.050   1.994   0.246  0.00  0.00    +0.008 C 
ATOM     20  C   UNL     1       3.333   2.437  -1.031  0.00  0.00    -0.009 C 
ATOM     21  C   UNL     1       4.143   1.993  -2.251  0.00  0.00    +0.008 C 
ENDBRANCH   1  20
BRANCH   5  22
ATOM     22  C   UNL     1      -0.927   1.983  -3.647  0.00  0.00    -0.009 C 
ATOM     23  C   UNL     1      -0.149   1.514  -4.878  0.00  0.00    +0.008 C 
ATOM     24  C   UNL     1      -2.313   1.337  -3.643  0.00  0.00    +0.008 C 
ENDBRANCH   5  22
BRANCH   6  25
ATOM     25  O   UNL     1       1.065   3.659  -2.370  0.00  0.00    -0.391 OA
ATOM     26  H   UNL     1       0.562   4.153  -3.214  0.00  0.00    +0.210 HD
ENDBRANCH   6  25
TORSDOF 4
