REMARK  Name = ZINC02199378
REMARK  3 active torsions:
REMARK  status: ('A' for Active; 'I' for Inactive)
REMARK    1  A    between atoms: C_1  and  C_2
REMARK    2  A    between atoms: C_2  and  C_29
REMARK    3  A    between atoms: C_15  and  C_22
REMARK                            x       y       z     vdW  Elec       q    Type
REMARK                         _______ _______ _______ _____ _____    ______ ____
ROOT
ATOM      1  C   UNL     1       8.390  -6.364   3.496  0.00  0.00    +0.024 C 
ATOM      2  C   UNL     1       8.081  -4.892   3.771  0.00  0.00    +0.038 C 
ATOM      3  C   UNL     1       9.003  -3.963   2.951  0.00  0.00    +0.161 C 
ATOM      4  N   UNL     1       8.275  -3.131   2.021  0.00  0.00    -0.262 NA
ATOM      5  C   UNL     1       6.984  -3.186   1.914  0.00  0.00    +0.153 C 
ATOM      6  S   UNL     1       6.447  -4.410   3.091  0.00  0.00    -0.083 S 
ATOM      7  N   UNL     1       6.191  -2.445   1.069  0.00  0.00    -0.307 N 
ATOM      8  C   UNL     1       6.781  -1.460   0.150  0.00  0.00    +0.126 C 
ATOM      9  C   UNL     1       6.047  -0.127   0.329  0.00  0.00    +0.125 C 
ATOM     10  N   UNL     1       4.603  -0.341   0.166  0.00  0.00    -0.312 N 
ATOM     11  C   UNL     1       4.077  -1.238   1.204  0.00  0.00    +0.125 C 
ATOM     12  C   UNL     1       4.730  -2.617   1.061  0.00  0.00    +0.126 C 
ATOM     13  C   UNL     1       3.921   0.863   0.160  0.00  0.00    +0.133 A 
ATOM     14  C   UNL     1       3.010   1.167  -0.887  0.00  0.00    +0.055 A 
ATOM     15  C   UNL     1       2.633   0.375  -2.053  0.00  0.00    +0.002 A 
ATOM     16  C   UNL     1       1.731   0.885  -2.923  0.00  0.00    +0.056 A 
ATOM     17  S   UNL     1       1.330   2.474  -2.223  0.00  0.00    -0.076 S 
ATOM     18  C   UNL     1       2.372   2.421  -0.789  0.00  0.00    +0.114 A 
ATOM     19  N   UNL     1       2.619   3.241   0.214  0.00  0.00    -0.228 NA
ATOM     20  C   UNL     1       3.476   2.903   1.157  0.00  0.00    +0.224 A 
ATOM     21  N   UNL     1       4.109   1.744   1.129  0.00  0.00    -0.220 NA
ATOM     22  C   UNL     1       8.169  -4.580   5.267  0.00  0.00    +0.024 C 
ENDROOT
BRANCH  15  23
ATOM     23  C   UNL     1       3.227  -0.964  -2.280  0.00  0.00    -0.017 A 
ATOM     24  C   UNL     1       4.611  -1.108  -2.374  0.00  0.00    +0.010 A 
ATOM     25  C   UNL     1       5.160  -2.357  -2.581  0.00  0.00    +0.020 A 
ATOM     26  C   UNL     1       4.338  -3.465  -2.705  0.00  0.00    +0.041 A 
ATOM     27  C   UNL     1       2.963  -3.326  -2.618  0.00  0.00    +0.020 A 
ATOM     28  C   UNL     1       2.405  -2.083  -2.406  0.00  0.00    +0.010 A 
ATOM     29 CL   UNL     1       5.035  -5.032  -2.971  0.00  0.00    -0.084 Cl
ENDBRANCH  15  23
TORSDOF 1
