REMARK  Name = ZINC08855028
REMARK  7 active torsions:
REMARK  status: ('A' for Active; 'I' for Inactive)
REMARK    1  A    between atoms: C_1  and  C_2
REMARK    2  A    between atoms: C_6  and  N_9
REMARK    3  A    between atoms: C_7  and  C_8
REMARK    4  A    between atoms: N_19  and  N_20
REMARK    5  A    between atoms: C_21  and  C_22
REMARK    6  A    between atoms: C_25  and  C_27
REMARK    7  A    between atoms: C_31  and  N_33
REMARK                            x       y       z     vdW  Elec       q    Type
REMARK                         _______ _______ _______ _____ _____    ______ ____
ROOT
ATOM      1  N   UNL     1       3.583   2.122  -0.020  0.00  0.00    -0.296 N 
ATOM      2  C   UNL     1       3.567   3.499  -0.117  0.00  0.00    +0.167 A 
ATOM      3  C   UNL     1       4.832   4.234  -0.229  0.00  0.00    +0.181 A 
ATOM      4  N   UNL     1       4.840   5.547  -0.328  0.00  0.00    -0.202 NA
ATOM      5  C   UNL     1       3.684   6.217  -0.315  0.00  0.00    +0.244 A 
ATOM      6  C   UNL     1       2.405   5.476  -0.196  0.00  0.00    +0.244 A 
ATOM      7  N   UNL     1       2.417   4.141  -0.103  0.00  0.00    -0.203 NA
ATOM      8  N   UNL     1       1.511   6.436  -0.218  0.00  0.00    -0.027 NA
ATOM      9  O   UNL     1       2.077   7.505  -0.323  0.00  0.00    -0.238 OA
ATOM     10  N   UNL     1       3.288   7.468  -0.383  0.00  0.00    -0.027 NA
ATOM     11  N   UNL     1       6.027   3.541  -0.237  0.00  0.00    -0.218 N 
ATOM     12  H   UNL     1       4.426   1.651   0.065  0.00  0.00    +0.154 HD
ATOM     13  H   UNL     1       6.026   2.574  -0.169  0.00  0.00    +0.176 HD
ENDROOT
BRANCH   1  19
ATOM     14  C   UNL     1       1.073  -1.967   1.045  0.00  0.00    +0.044 C 
ATOM     15  C   UNL     1       1.137  -0.578   0.464  0.00  0.00    -0.046 A 
ATOM     16  C   UNL     1       0.007  -0.011  -0.095  0.00  0.00    +0.004 A 
ATOM     17  C   UNL     1       0.061   1.264  -0.630  0.00  0.00    +0.002 A 
ATOM     18  C   UNL     1       1.246   1.974  -0.607  0.00  0.00    +0.023 A 
ATOM     19  C   UNL     1       2.383   1.407  -0.046  0.00  0.00    +0.036 A 
ATOM     20  C   UNL     1       2.324   0.126   0.490  0.00  0.00    -0.026 A 
ATOM     21  C   UNL     1       3.555  -0.493   1.101  0.00  0.00    +0.046 C 
ENDBRANCH   1  19
BRANCH  11  22
ATOM     22  N   UNL     1       7.143   4.181  -0.335  0.00  0.00    -0.186 NA
ATOM     23  C   UNL     1       8.293   3.513  -0.343  0.00  0.00    +0.176 C 
BRANCH  23  24
ATOM     24  C   UNL     1       9.493   4.200  -0.448  0.00  0.00    +0.148 A 
ATOM     25  C   UNL     1      10.836   3.608  -0.470  0.00  0.00    +0.051 A 
ATOM     26  C   UNL     1      11.708   4.645  -0.584  0.00  0.00    +0.050 A 
ATOM     27  C   UNL     1      10.950   5.836  -0.632  0.00  0.00    +0.136 A 
ATOM     28  O   UNL     1       9.642   5.539  -0.555  0.00  0.00    -0.454 OA
BRANCH  27  29
ATOM     29  C   UNL     1      11.504   7.183  -0.754  0.00  0.00    +0.020 A 
ATOM     30  C   UNL     1      12.896   7.372  -0.834  0.00  0.00    +0.013 A 
ATOM     31  C   UNL     1      13.403   8.635  -0.948  0.00  0.00    +0.023 A 
ATOM     32  C   UNL     1      12.550   9.730  -0.984  0.00  0.00    +0.071 A 
ATOM     33  C   UNL     1      11.175   9.554  -0.906  0.00  0.00    +0.145 A 
ATOM     34  C   UNL     1      10.648   8.299  -0.797  0.00  0.00    +0.045 A 
ATOM     35 CL   UNL     1      13.208  11.331  -1.128  0.00  0.00    -0.081 Cl
BRANCH  33  36
ATOM     36  N   UNL     1      10.277  10.730  -0.946  0.00  0.00    +0.058 N 
ATOM     37  O   UNL     1       8.973  10.565  -0.872  0.00  0.00    -0.126 OA
ATOM     38  O   UNL     1      10.783  11.941  -1.056  0.00  0.00    -0.126 OA
ENDBRANCH  33  36
ENDBRANCH  27  29
ENDBRANCH  23  24
ENDBRANCH  11  22
TORSDOF 5
