REMARK  Name = ZINC67504584
REMARK  7 active torsions:
REMARK  status: ('A' for Active; 'I' for Inactive)
REMARK    1  A    between atoms: C_1  and  C_2
REMARK    2  A    between atoms: C_2  and  C_3
REMARK    3  A    between atoms: C_2  and  C_4
REMARK    4  A    between atoms: C_2  and  C_5
REMARK    5  A    between atoms: C_8  and  C_11
REMARK    6  A    between atoms: C_11  and  N_12
REMARK    7  A    between atoms: N_12  and  C_13
REMARK                            x       y       z     vdW  Elec       q    Type
REMARK                         _______ _______ _______ _____ _____    ______ ____
ROOT
ATOM      1  N   UNL     1       2.520  -0.895  -5.837  0.00  0.00    +0.386 N 
ATOM      2  H   UNL     1       1.556  -0.766  -6.106  0.00  0.00    -0.085 HD
ATOM      3  H   UNL     1       2.887  -0.028  -5.475  0.00  0.00    -0.085 HD
ENDROOT
BRANCH   1   4
ATOM      4  C   UNL     1       3.305  -1.309  -7.007  0.00  0.00    -0.039 C 
ATOM      5  C   UNL     1       4.779  -1.401  -6.617  0.00  0.00    -0.011 C 
ATOM      6  C   UNL     1       5.600  -1.609  -7.895  0.00  0.00    +0.005 C 
ATOM      7  C   UNL     1       5.543  -0.321  -8.715  0.00  0.00    +0.053 C 
ATOM      8  C   UNL     1       4.117   0.135  -8.892  0.00  0.00    +0.021 A 
ATOM      9  C   UNL     1       3.109  -0.307  -8.115  0.00  0.00    -0.042 A 
ATOM     10  C   UNL     1       1.802   0.173  -8.330  0.00  0.00    +0.009 A 
ATOM     11  C   UNL     1       1.564   1.075  -9.321  0.00  0.00    +0.070 A 
ATOM     12  C   UNL     1       2.637   1.511 -10.117  0.00  0.00    +0.249 A 
ATOM     13  O   UNL     1       2.447   2.317 -11.013  0.00  0.00    -0.268 OA
ATOM     14  N   UNL     1       3.870   1.036  -9.889  0.00  0.00    -0.326 N 
ATOM     15  H   UNL     1       4.605   1.341 -10.444  0.00  0.00    +0.169 HD
ENDBRANCH   1   4
BRANCH   1  16
ATOM     16  C   UNL     1       2.603  -1.932  -4.800  0.00  0.00    -0.046 C 
BRANCH  16  20
ATOM     17  C   UNL     1       0.032  -0.905  -1.546  0.00  0.00    -0.042 A 
ATOM     18  C   UNL     1      -0.451  -1.664  -2.595  0.00  0.00    +0.004 A 
ATOM     19  C   UNL     1       0.381  -1.997  -3.648  0.00  0.00    +0.002 A 
ATOM     20  C   UNL     1       1.696  -1.569  -3.652  0.00  0.00    -0.064 A 
ATOM     21  C   UNL     1       2.178  -0.809  -2.603  0.00  0.00    +0.002 A 
ATOM     22  C   UNL     1       1.345  -0.473  -1.552  0.00  0.00    +0.004 A 
BRANCH  17  24
ATOM     23  C   UNL     1      -0.986   0.980  -0.297  0.00  0.00    +0.015 C 
ATOM     24  C   UNL     1      -0.874  -0.543  -0.398  0.00  0.00    -0.013 C 
ATOM     25  C   UNL     1      -0.296  -1.099   0.904  0.00  0.00    +0.015 C 
ATOM     26  C   UNL     1      -2.262  -1.141  -0.636  0.00  0.00    +0.015 C 
ENDBRANCH  17  24
ENDBRANCH  16  20
ENDBRANCH   1  16
TORSDOF 4
