REMARK  Name = ZINC07777402
REMARK  7 active torsions:
REMARK  status: ('A' for Active; 'I' for Inactive)
REMARK    1  A    between atoms: C_1  and  C_2
REMARK    2  A    between atoms: C_4  and  C_24
REMARK    3  A    between atoms: C_8  and  C_23
REMARK    4  A    between atoms: C_10  and  S_12
REMARK    5  A    between atoms: S_12  and  C_13
REMARK    6  A    between atoms: C_13  and  C_14
REMARK    7  A    between atoms: C_20  and  C_22
REMARK                            x       y       z     vdW  Elec       q    Type
REMARK                         _______ _______ _______ _____ _____    ______ ____
ROOT
ATOM      1  C   UNL     1       2.493   1.021  -0.016  0.00  0.00    +0.044 C 
ATOM      2  C   UNL     1       1.190   1.778   0.000  0.00  0.00    -0.050 A 
ATOM      3  C   UNL     1      -0.013   1.076   0.008  0.00  0.00    +0.008 A 
ATOM      4  C   UNL     1      -1.207   1.730   0.017  0.00  0.00    -0.024 A 
ATOM      5  C   UNL     1      -1.232   3.135   0.031  0.00  0.00    +0.075 A 
ATOM      6  C   UNL     1      -0.008   3.846   0.023  0.00  0.00    +0.004 A 
ATOM      7  C   UNL     1       1.204   3.140   0.008  0.00  0.00    +0.013 A 
ATOM      8  C   UNL     1      -0.033   5.256   0.031  0.00  0.00    -0.039 A 
ATOM      9  C   UNL     1      -1.244   5.880   0.045  0.00  0.00    +0.038 A 
ATOM     10  C   UNL     1      -2.422   5.120   0.052  0.00  0.00    +0.098 A 
ATOM     11  N   UNL     1      -2.392   3.802   0.045  0.00  0.00    -0.240 NA
ATOM     12  C   UNL     1       1.247   6.052   0.024  0.00  0.00    +0.044 C 
ATOM     13  C   UNL     1      -2.496   0.950   0.019  0.00  0.00    +0.046 C 
ENDROOT
BRANCH  10  14
ATOM     14  S   UNL     1      -3.979   5.945   0.071  0.00  0.00    -0.100 S 
BRANCH  14  15
ATOM     15  C   UNL     1      -5.091   4.517   0.074  0.00  0.00    +0.131 C 
BRANCH  15  16
ATOM     16  C   UNL     1      -6.521   4.994   0.091  0.00  0.00    +0.061 A 
ATOM     17  C   UNL     1      -7.169   5.202   1.263  0.00  0.00    +0.072 A 
ATOM     18  S   UNL     1      -8.765   5.741   0.668  0.00  0.00    -0.060 S 
ATOM     19  C   UNL     1      -8.423   5.630  -1.031  0.00  0.00    +0.165 A 
ATOM     20  N   UNL     1      -7.171   5.213  -1.035  0.00  0.00    -0.229 NA
ATOM     21  N   UNL     1      -9.254   5.908  -2.110  0.00  0.00    -0.265 N 
ATOM     22  C   UNL     1     -10.516   6.329  -1.897  0.00  0.00    +0.216 C 
ATOM     23  O   UNL     1     -10.927   6.464  -0.764  0.00  0.00    -0.276 OA
ATOM     24  C   UNL     1     -11.418   6.631  -3.066  0.00  0.00    +0.109 C 
ATOM     25  H   UNL     1      -8.925   5.800  -3.016  0.00  0.00    +0.157 HD
ENDBRANCH  15  16
ENDBRANCH  14  15
ENDBRANCH  10  14
TORSDOF 3
