REMARK  Name = ZINC03325513
REMARK  6 active torsions:
REMARK  status: ('A' for Active; 'I' for Inactive)
REMARK    1  A    between atoms: C_1  and  C_2
REMARK    2  A    between atoms: C_2  and  C_4
REMARK    3  A    between atoms: C_2  and  N_47
REMARK    4  A    between atoms: N_6  and  C_7
REMARK    5  A    between atoms: N_18  and  C_21
REMARK    6  A    between atoms: C_26  and  O_27
REMARK                            x       y       z     vdW  Elec       q    Type
REMARK                         _______ _______ _______ _____ _____    ______ ____
ROOT
ATOM      1  C   UNL     1      -5.229  -2.865   0.085  0.00  0.00    -0.004 C 
ATOM      2  C   UNL     1      -4.053  -3.843   0.050  0.00  0.00    +0.017 C 
ENDROOT
BRANCH   2   8
ATOM      3  C   UNL     1      -2.656  -2.303  -1.192  0.00  0.00    -0.059 C 
ATOM      4  C   UNL     1      -1.298  -1.599  -1.199  0.00  0.00    +0.086 C 
ATOM      5  N   UNL     1      -1.190  -0.737  -0.013  0.00  0.00    -0.331 N 
ATOM      6  C   UNL     1      -1.324  -1.525   1.220  0.00  0.00    +0.086 C 
ATOM      7  C   UNL     1      -2.683  -2.229   1.227  0.00  0.00    -0.059 C 
ATOM      8  N   UNL     1      -2.770  -3.108   0.042  0.00  0.00    +0.389 N 
ATOM      9  H   UNL     1      -1.998  -3.785   0.071  0.00  0.00    -0.081 HD
BRANCH   5  10
ATOM     10  C   UNL     1       0.013  -0.020  -0.022  0.00  0.00    +0.072 A 
ATOM     11  C   UNL     1       1.225  -0.695  -0.028  0.00  0.00    +0.027 A 
ATOM     12  C   UNL     1       2.410   0.015  -0.037  0.00  0.00    +0.002 A 
ATOM     13  C   UNL     1       2.392   1.397  -0.040  0.00  0.00    +0.004 A 
ATOM     14  C   UNL     1       1.188   2.077  -0.033  0.00  0.00    +0.047 A 
ATOM     15  C   UNL     1      -0.005   1.373  -0.024  0.00  0.00    +0.138 A 
BRANCH  15  16
ATOM     16  O   UNL     1      -1.190   2.039  -0.024  0.00  0.00    -0.505 OA
ATOM     17  H   UNL     1      -1.532   2.234   0.860  0.00  0.00    +0.292 HD
ENDBRANCH  15  16
ENDBRANCH   5  10
ENDBRANCH   2   8
BRANCH   2  18
ATOM     18  C   UNL     1      -4.100  -4.730   1.267  0.00  0.00    +0.203 C 
ATOM     19  O   UNL     1      -3.174  -4.735   2.050  0.00  0.00    -0.277 OA
ATOM     20  N   UNL     1      -5.172  -5.518   1.486  0.00  0.00    -0.284 N 
ATOM     21  H   UNL     1      -5.946  -5.455   0.905  0.00  0.00    +0.155 HD
BRANCH  20  22
ATOM     22  C   UNL     1      -5.167  -6.426   2.552  0.00  0.00    +0.072 A 
ATOM     23  C   UNL     1      -3.964  -6.902   3.055  0.00  0.00    +0.029 A 
ATOM     24  C   UNL     1      -3.960  -7.798   4.107  0.00  0.00    +0.043 A 
ATOM     25  C   UNL     1      -5.155  -8.222   4.662  0.00  0.00    +0.161 A 
ATOM     26  C   UNL     1      -6.359  -7.750   4.163  0.00  0.00    +0.195 A 
ATOM     27  C   UNL     1      -6.367  -6.849   3.112  0.00  0.00    +0.182 A 
ATOM     28  F   UNL     1      -7.540  -6.383   2.628  0.00  0.00    -0.200 F 
ATOM     29  F   UNL     1      -7.525  -8.167   4.705  0.00  0.00    -0.199 F 
ATOM     30  F   UNL     1      -5.148  -9.098   5.691  0.00  0.00    -0.202 F 
ENDBRANCH  20  22
ENDBRANCH   2  18
TORSDOF 5
