REMARK  Name = ZINC64697335
REMARK  12 active torsions:
REMARK  status: ('A' for Active; 'I' for Inactive)
REMARK    1  A    between atoms: C_1  and  C_2
REMARK    2  A    between atoms: C_2  and  N_3
REMARK    3  A    between atoms: C_9  and  C_11
REMARK    4  A    between atoms: C_11  and  C_13
REMARK    5  A    between atoms: C_11  and  N_14
REMARK    6  A    between atoms: N_14  and  C_15
REMARK    7  A    between atoms: C_15  and  C_16
REMARK    8  A    between atoms: C_16  and  C_18
REMARK    9  A    between atoms: C_16  and  C_27
REMARK   10  A    between atoms: C_21  and  N_24
REMARK   11  A    between atoms: N_24  and  C_25
REMARK   12  A    between atoms: N_24  and  C_26
REMARK                            x       y       z     vdW  Elec       q    Type
REMARK                         _______ _______ _______ _____ _____    ______ ____
ROOT
ATOM      1  C   UNL     1       5.586  -7.027  -3.947  0.00  0.00    +0.030 C 
ENDROOT
BRANCH   1   2
ATOM      2  C   UNL     1       6.112  -6.643  -5.306  0.00  0.00    -0.036 C 
ATOM      3  C   UNL     1       7.290  -6.037  -5.580  0.00  0.00    -0.001 A 
ATOM      4  C   UNL     1       8.391  -5.571  -4.728  0.00  0.00    +0.010 A 
ATOM      5  C   UNL     1       9.465  -4.988  -5.306  0.00  0.00    +0.001 A 
ATOM      6  C   UNL     1       9.554  -4.817  -6.694  0.00  0.00    +0.002 A 
ATOM      7  C   UNL     1       8.583  -5.218  -7.542  0.00  0.00    +0.026 A 
ATOM      8  C   UNL     1       7.408  -5.845  -7.043  0.00  0.00    +0.043 A 
ATOM      9  N   UNL     1       6.344  -6.314  -7.650  0.00  0.00    -0.380 N 
ATOM     10  C   UNL     1       5.433  -6.862  -6.639  0.00  0.00    +0.145 C 
ATOM     11  H   UNL     1       6.188  -6.303  -8.607  0.00  0.00    +0.160 HD
ENDBRANCH   1   2
BRANCH   1  12
ATOM     12  C   UNL     1       5.372  -8.518  -3.894  0.00  0.00    -0.042 A 
ATOM     13  C   UNL     1       4.498  -9.121  -4.780  0.00  0.00    +0.006 A 
ATOM     14  C   UNL     1       4.299 -10.487  -4.734  0.00  0.00    +0.023 A 
ATOM     15  C   UNL     1       4.979 -11.255  -3.797  0.00  0.00    +0.029 A 
ATOM     16  C   UNL     1       5.856 -10.646  -2.909  0.00  0.00    +0.023 A 
ATOM     17  C   UNL     1       6.054  -9.280  -2.964  0.00  0.00    +0.006 A 
BRANCH  15  18
ATOM     18  N   UNL     1       4.780 -12.637  -3.748  0.00  0.00    -0.336 N 
ATOM     19  C   UNL     1       3.764 -13.261  -4.599  0.00  0.00    +0.129 C 
ATOM     20  C   UNL     1       5.588 -13.461  -2.846  0.00  0.00    +0.129 C 
ENDBRANCH  15  18
ENDBRANCH   1  12
BRANCH   1  21
ATOM     21  C   UNL     1       4.257  -6.312  -3.693  0.00  0.00    -0.069 C 
BRANCH  21  22
ATOM     22  N   UNL     1       4.486  -4.862  -3.626  0.00  0.00    +0.387 N 
ATOM     23  H   UNL     1       4.879  -4.543  -4.498  0.00  0.00    -0.085 HD
ATOM     24  H   UNL     1       5.127  -4.658  -2.873  0.00  0.00    -0.085 HD
BRANCH  22  25
ATOM     25  C   UNL     1       3.211  -4.176  -3.382  0.00  0.00    +0.013 C 
ATOM     26  C   UNL     1       2.283  -4.383  -4.581  0.00  0.00    -0.004 C 
BRANCH  25  33
ATOM     27  N   UNL     1       0.961  -0.666  -0.701  0.00  0.00    -0.300 NA
ATOM     28  C   UNL     1       2.354  -0.240  -0.892  0.00  0.00    +0.103 C 
ATOM     29  C   UNL     1       2.772  -0.507  -2.341  0.00  0.00    +0.123 C 
ATOM     30  N   UNL     1       2.506  -1.920  -2.651  0.00  0.00    -0.300 N 
ATOM     31  C   UNL     1       1.168  -2.457  -2.358  0.00  0.00    +0.123 C 
ATOM     32  C   UNL     1       0.813  -2.113  -0.908  0.00  0.00    +0.103 C 
ATOM     33  C   UNL     1       3.462  -2.702  -3.191  0.00  0.00    +0.201 C 
ATOM     34  O   UNL     1       4.524  -2.220  -3.522  0.00  0.00    -0.277 OA
BRANCH  27  36
ATOM     35  C   UNL     1       0.404   1.256   0.711  0.00  0.00    +0.020 C 
ATOM     36  C   UNL     1       0.467  -0.270   0.625  0.00  0.00    +0.081 C 
ENDBRANCH  27  36
ENDBRANCH  25  33
ENDBRANCH  22  25
ENDBRANCH  21  22
ENDBRANCH   1  21
TORSDOF 8
