REMARK  Name = ZINC09448266
REMARK  9 active torsions:
REMARK  status: ('A' for Active; 'I' for Inactive)
REMARK    1  A    between atoms: C_1  and  C_2
REMARK    2  A    between atoms: C_2  and  C_4
REMARK    3  A    between atoms: C_2  and  O_25
REMARK    4  A    between atoms: C_7  and  S_9
REMARK    5  A    between atoms: S_9  and  C_10
REMARK    6  A    between atoms: C_10  and  C_11
REMARK    7  A    between atoms: N_13  and  C_14
REMARK    8  A    between atoms: C_15  and  C_22
REMARK    9  A    between atoms: O_25  and  C_26
REMARK                            x       y       z     vdW  Elec       q    Type
REMARK                         _______ _______ _______ _____ _____    ______ ____
ROOT
ATOM      1  C   UNL     1       1.433   1.284  -5.036  0.00  0.00    +0.175 C 
ENDROOT
BRANCH   1   2
ATOM      2  C   UNL     1       1.819   1.347  -3.580  0.00  0.00    +0.228 C 
ATOM      3  O   UNL     1       2.790   1.986  -3.237  0.00  0.00    -0.275 OA
ATOM      4  N   UNL     1       1.083   0.692  -2.660  0.00  0.00    -0.279 N 
ATOM      5  H   UNL     1       0.306   0.181  -2.935  0.00  0.00    +0.155 HD
BRANCH   4   6
ATOM      6  C   UNL     1       1.437   0.749  -1.321  0.00  0.00    +0.084 A 
ATOM      7  C   UNL     1       0.814   0.151  -0.239  0.00  0.00    +0.068 A 
ATOM      8  C   UNL     1       1.391   0.376   1.085  0.00  0.00    -0.023 A 
ATOM      9  C   UNL     1       2.493   1.146   1.104  0.00  0.00    -0.004 A 
ATOM     10  S   UNL     1       2.767   1.586  -0.595  0.00  0.00    -0.077 S 
ATOM     11  C   UNL     1       3.034   1.323   2.497  0.00  0.00    +0.043 C 
ATOM     12  C   UNL     1       2.369   0.197   3.319  0.00  0.00    +0.010 C 
ATOM     13  C   UNL     1       1.076  -0.055   2.518  0.00  0.00    +0.037 C 
BRANCH   7  14
ATOM     14  C   UNL     1      -0.386  -0.674  -0.415  0.00  0.00    +0.244 C 
ATOM     15  O   UNL     1      -0.278  -1.871  -0.611  0.00  0.00    -0.270 OA
ATOM     16  N   UNL     1      -1.607  -0.107  -0.365  0.00  0.00    -0.325 N 
ATOM     17  H   UNL     1      -2.401  -0.652  -0.486  0.00  0.00    +0.145 HD
ATOM     18  H   UNL     1      -1.693   0.847  -0.209  0.00  0.00    +0.145 HD
ENDBRANCH   7  14
ENDBRANCH   4   6
ENDBRANCH   1   2
BRANCH   1  19
ATOM     19  S   UNL     1       2.607   2.257  -6.013  0.00  0.00    -0.056 S 
BRANCH  19  23
ATOM     20  C   UNL     1       1.603   2.087  -9.753  0.00  0.00    +0.258 A 
ATOM     21  N   UNL     1       0.682   1.354  -9.199  0.00  0.00    -0.108 NA
ATOM     22  N   UNL     1       0.879   1.303  -7.928  0.00  0.00    -0.101 NA
ATOM     23  C   UNL     1       1.937   2.016  -7.624  0.00  0.00    +0.278 A 
ATOM     24  O   UNL     1       2.420   2.524  -8.774  0.00  0.00    -0.412 OA
BRANCH  20  26
ATOM     25  C   UNL     1       2.274   1.161 -11.953  0.00  0.00    +0.062 C 
ATOM     26  C   UNL     1       1.734   2.392 -11.223  0.00  0.00    +0.257 C 
BRANCH  26  27
ATOM     27  O   UNL     1       0.452   2.736 -11.754  0.00  0.00    -0.477 OA
BRANCH  27  28
ATOM     28  C   UNL     1       0.435   3.517 -12.867  0.00  0.00    +0.157 A 
ATOM     29  C   UNL     1       1.622   3.849 -13.501  0.00  0.00    +0.048 A 
ATOM     30  C   UNL     1       1.602   4.642 -14.632  0.00  0.00    +0.004 A 
ATOM     31  C   UNL     1       0.399   5.105 -15.133  0.00  0.00    +0.003 A 
ATOM     32  C   UNL     1      -0.787   4.775 -14.505  0.00  0.00    +0.042 A 
ATOM     33  C   UNL     1      -0.773   3.978 -13.374  0.00  0.00    +0.165 A 
ATOM     34  F   UNL     1      -1.933   3.652 -12.762  0.00  0.00    -0.202 F 
ENDBRANCH  27  28
ENDBRANCH  26  27
ENDBRANCH  20  26
ENDBRANCH  19  23
ENDBRANCH   1  19
TORSDOF 8
