REMARK  Name = ZINC19524757
REMARK  9 active torsions:
REMARK  status: ('A' for Active; 'I' for Inactive)
REMARK    1  A    between atoms: C_1  and  C_2
REMARK    2  A    between atoms: C_2  and  N_3
REMARK    3  A    between atoms: C_5  and  C_12
REMARK    4  A    between atoms: C_12  and  C_14
REMARK    5  A    between atoms: C_12  and  O_34
REMARK    6  A    between atoms: C_14  and  N_15
REMARK    7  A    between atoms: C_22  and  O_33
REMARK    8  A    between atoms: C_26  and  C_32
REMARK    9  A    between atoms: C_27  and  C_31
REMARK                            x       y       z     vdW  Elec       q    Type
REMARK                         _______ _______ _______ _____ _____    ______ ____
ROOT
ATOM      1  N   UNL     1       2.434   7.931   1.668  0.00  0.00    +0.382 N 
ATOM      2  C   UNL     1       3.007   7.637   2.988  0.00  0.00    -0.075 C 
ATOM      3  C   UNL     1       3.747   8.871   3.510  0.00  0.00    +0.029 C 
ATOM      4  C   UNL     1       4.852   9.254   2.523  0.00  0.00    +0.110 C 
ATOM      5  C   UNL     1       4.239   9.503   1.144  0.00  0.00    +0.029 C 
ATOM      6  C   UNL     1       3.484   8.250   0.692  0.00  0.00    -0.075 C 
ATOM      7  C   UNL     1       5.553  10.526   3.011  0.00  0.00    +0.084 C 
ATOM      8  C   UNL     1       6.584  10.944   1.959  0.00  0.00    +0.152 C 
ATOM      9  C   UNL     1       7.415   9.751   1.561  0.00  0.00    +0.023 A 
ATOM     10  C   UNL     1       8.627   9.965   0.924  0.00  0.00    +0.013 A 
ATOM     11  C   UNL     1       9.408   8.895   0.535  0.00  0.00    -0.047 A 
ATOM     12  C   UNL     1       8.982   7.603   0.780  0.00  0.00    -0.044 A 
ATOM     13  C   UNL     1       7.778   7.383   1.417  0.00  0.00    +0.049 A 
ATOM     14  C   UNL     1       6.989   8.459   1.813  0.00  0.00    +0.127 A 
ATOM     15  O   UNL     1       5.813   8.203   2.444  0.00  0.00    -0.485 OA
ATOM     16  C   UNL     1       9.833   6.435   0.354  0.00  0.00    +0.044 C 
ATOM     17  C   UNL     1      10.725   9.136  -0.157  0.00  0.00    +0.044 C 
ATOM     18  H   UNL     1       1.792   8.818   1.772  0.00  0.00    -0.082 HD
ENDROOT
BRANCH   8  19
ATOM     19  O   UNL     1       7.435  11.955   2.504  0.00  0.00    -0.387 OA
ATOM     20  H   UNL     1       8.242  12.383   1.891  0.00  0.00    +0.210 HD
ENDBRANCH   8  19
BRANCH   1  21
ATOM     21  C   UNL     1       1.599   6.818   1.198  0.00  0.00    -0.042 C 
BRANCH  21  22
ATOM     22  C   UNL     1       0.819   7.256  -0.044  0.00  0.00    +0.130 C 
BRANCH  22  25
ATOM     23  N   UNL     1      -1.800   4.788  -0.824  0.00  0.00    -0.347 N 
ATOM     24  C   UNL     1      -1.344   5.923  -0.212  0.00  0.00    +0.093 A 
ATOM     25  C   UNL     1      -0.051   6.120  -0.517  0.00  0.00    +0.004 A 
ATOM     26  C   UNL     1       0.353   5.020  -1.396  0.00  0.00    +0.005 A 
ATOM     27  C   UNL     1      -0.785   4.208  -1.552  0.00  0.00    +0.049 A 
ATOM     28  C   UNL     1      -0.705   3.066  -2.342  0.00  0.00    +0.026 A 
ATOM     29  C   UNL     1       0.485   2.742  -2.957  0.00  0.00    +0.002 A 
ATOM     30  C   UNL     1       1.606   3.545  -2.798  0.00  0.00    +0.001 A 
ATOM     31  C   UNL     1       1.547   4.676  -2.033  0.00  0.00    +0.010 A 
BRANCH  23  33
ATOM     32  C   UNL     1      -3.219   3.211   0.393  0.00  0.00    +0.027 C 
ATOM     33  C   UNL     1      -3.164   4.264  -0.716  0.00  0.00    +0.118 C 
ENDBRANCH  23  33
ENDBRANCH  22  25
BRANCH  22  34
ATOM     34  O   UNL     1      -0.001   8.380   0.281  0.00  0.00    -0.389 OA
ATOM     35  H   UNL     1       0.460   9.310   0.646  0.00  0.00    +0.210 HD
ENDBRANCH  22  34
ENDBRANCH  21  22
ENDBRANCH   1  21
TORSDOF 6
