REMARK  Name = ZINC04851462
REMARK  3 active torsions:
REMARK  status: ('A' for Active; 'I' for Inactive)
REMARK    1  A    between atoms: C_4  and  N_7
REMARK    2  A    between atoms: C_8  and  C_18
REMARK    3  A    between atoms: C_11  and  C_13
REMARK                            x       y       z     vdW  Elec       q    Type
REMARK                         _______ _______ _______ _____ _____    ______ ____
ROOT
ATOM      1  N   UNL     1       3.619  -0.648  -0.036  0.00  0.00    -0.216 N 
ATOM      2  C   UNL     1       3.783  -2.110  -0.052  0.00  0.00    +0.134 C 
ATOM      3  C   UNL     1       5.312  -2.303  -0.066  0.00  0.00    +0.090 C 
ATOM      4  C   UNL     1       5.858  -0.893  -0.056  0.00  0.00    +0.104 C 
ATOM      5  N   UNL     1       4.878  -0.052  -0.046  0.00  0.00    -0.180 NA
ENDROOT
BRANCH   2   6
ATOM      6  C   UNL     1       3.179  -2.724   1.185  0.00  0.00    -0.025 A 
ATOM      7  C   UNL     1       3.298  -2.082   2.404  0.00  0.00    +0.008 A 
ATOM      8  C   UNL     1       2.744  -2.644   3.538  0.00  0.00    +0.038 A 
ATOM      9  C   UNL     1       2.070  -3.851   3.454  0.00  0.00    +0.123 A 
ATOM     10  C   UNL     1       1.951  -4.493   2.233  0.00  0.00    +0.038 A 
ATOM     11  C   UNL     1       2.501  -3.926   1.099  0.00  0.00    +0.008 A 
ATOM     12  F   UNL     1       1.528  -4.401   4.562  0.00  0.00    -0.205 F 
ENDBRANCH   2   6
BRANCH   1  16
ATOM     13  C   UNL     1      -0.017   1.379   0.010  0.00  0.00    +0.000 A 
ATOM     14  C   UNL     1       1.169   2.090   0.002  0.00  0.00    +0.002 A 
ATOM     15  C   UNL     1       2.377   1.421  -0.013  0.00  0.00    +0.025 A 
ATOM     16  C   UNL     1       2.400   0.032  -0.021  0.00  0.00    +0.052 A 
ATOM     17  C   UNL     1       1.206  -0.680  -0.013  0.00  0.00    +0.025 A 
ATOM     18  C   UNL     1       0.002  -0.004   0.002  0.00  0.00    +0.002 A 
ENDBRANCH   1  16
BRANCH   4  19
ATOM     19  C   UNL     1       7.280  -0.536  -0.063  0.00  0.00    +0.150 A 
ATOM     20  C   UNL     1       7.789   0.730  -0.050  0.00  0.00    +0.051 A 
ATOM     21  C   UNL     1       9.191   0.603  -0.063  0.00  0.00    +0.042 A 
ATOM     22  C   UNL     1       9.470  -0.716  -0.084  0.00  0.00    +0.196 A 
ATOM     23  O   UNL     1       8.314  -1.401  -0.078  0.00  0.00    -0.462 OA
ENDBRANCH   4  19
TORSDOF 3
