REMARK  Name = ZINC38705826
REMARK  15 active torsions:
REMARK  status: ('A' for Active; 'I' for Inactive)
REMARK    1  A    between atoms: C_1  and  C_2
REMARK    2  A    between atoms: C_2  and  O_3
REMARK    3  A    between atoms: O_3  and  C_4
REMARK    4  A    between atoms: C_6  and  C_14
REMARK    5  A    between atoms: C_9  and  O_10
REMARK    6  A    between atoms: O_10  and  C_11
REMARK    7  A    between atoms: C_11  and  C_12
REMARK    8  A    between atoms: C_17  and  C_29
REMARK    9  A    between atoms: N_24  and  C_25
REMARK   10  A    between atoms: C_25  and  C_26
REMARK   11  A    between atoms: C_26  and  C_27
REMARK   12  A    between atoms: C_27  and  O_28
REMARK   13  A    between atoms: C_30  and  C_37
REMARK   14  A    between atoms: C_32  and  C_36
REMARK   15  A    between atoms: C_34  and  O_35
REMARK                            x       y       z     vdW  Elec       q    Type
REMARK                         _______ _______ _______ _____ _____    ______ ____
ROOT
ATOM      1  C   UNL     1       0.265  -4.883   0.072  0.00  0.00    +0.141 C 
ATOM      2  C   UNL     1       0.768  -5.373   1.403  0.00  0.00    +0.035 A 
ATOM      3  C   UNL     1       1.274  -5.046   2.665  0.00  0.00    +0.102 A 
ATOM      4  N   UNL     1       1.486  -6.176   3.310  0.00  0.00    -0.173 NA
ATOM      5  N   UNL     1       1.164  -7.184   2.580  0.00  0.00    -0.272 N 
ATOM      6  H   UNL     1       1.236  -8.113   2.850  0.00  0.00    +0.189 HD
ATOM      7  C   UNL     1       0.705  -6.753   1.368  0.00  0.00    +0.126 A 
ATOM      8  C   UNL     1       0.179  -7.163   0.061  0.00  0.00    +0.265 C 
ATOM      9  O   UNL     1       0.002  -8.316  -0.285  0.00  0.00    -0.268 OA
ATOM     10  N   UNL     1      -0.080  -6.084  -0.701  0.00  0.00    -0.285 N 
ENDROOT
BRANCH   3  11
ATOM     11  C   UNL     1       1.526  -3.678   3.183  0.00  0.00    +0.047 A 
ATOM     12  C   UNL     1       1.073  -3.315   4.449  0.00  0.00    -0.037 A 
ATOM     13  C   UNL     1       1.310  -2.042   4.926  0.00  0.00    +0.007 A 
ATOM     14  C   UNL     1       1.996  -1.123   4.151  0.00  0.00    -0.047 A 
ATOM     15  C   UNL     1       2.450  -1.473   2.893  0.00  0.00    +0.049 A 
ATOM     16  C   UNL     1       2.224  -2.750   2.405  0.00  0.00    +0.127 A 
ATOM     17  C   UNL     1       2.250   0.264   4.681  0.00  0.00    +0.044 C 
ATOM     18  C   UNL     1       0.325  -4.311   5.296  0.00  0.00    +0.044 C 
BRANCH  16  19
ATOM     19  O   UNL     1       2.675  -3.098   1.171  0.00  0.00    -0.506 OA
ATOM     20  H   UNL     1       2.069  -2.871   0.453  0.00  0.00    +0.292 HD
ENDBRANCH  16  19
ENDBRANCH   3  11
BRANCH   1  23
ATOM     21  C   UNL     1      -2.002  -1.865   0.231  0.00  0.00    +0.162 A 
ATOM     22  C   UNL     1      -0.879  -2.658   0.054  0.00  0.00    +0.055 A 
ATOM     23  C   UNL     1      -0.957  -4.022   0.265  0.00  0.00    -0.019 A 
ATOM     24  C   UNL     1      -2.153  -4.598   0.651  0.00  0.00    +0.009 A 
ATOM     25  C   UNL     1      -3.277  -3.813   0.829  0.00  0.00    +0.050 A 
ATOM     26  C   UNL     1      -3.204  -2.444   0.626  0.00  0.00    +0.162 A 
BRANCH  21  27
ATOM     27  O   UNL     1      -1.927  -0.523   0.025  0.00  0.00    -0.489 OA
BRANCH  27  29
ATOM     28  C   UNL     1      -0.771   1.517  -0.560  0.00  0.00    +0.048 C 
ATOM     29  C   UNL     1      -0.660   0.002  -0.379  0.00  0.00    +0.226 C 
ENDBRANCH  27  29
ENDBRANCH  21  27
BRANCH  26  30
ATOM     30  O   UNL     1      -4.307  -1.669   0.806  0.00  0.00    -0.484 OA
BRANCH  30  31
ATOM     31  C   UNL     1      -5.506  -2.332   1.211  0.00  0.00    +0.256 C 
BRANCH  31  32
ATOM     32  C   UNL     1      -6.614  -1.320   1.359  0.00  0.00    +0.006 C 
ATOM     33  C   UNL     1      -7.801  -1.572   0.868  0.00  0.00    +0.007 C 
ENDBRANCH  31  32
ENDBRANCH  30  31
ENDBRANCH  26  30
ENDBRANCH   1  23
BRANCH  10  34
ATOM     34  C   UNL     1      -0.614  -6.102  -2.065  0.00  0.00    +0.111 C 
BRANCH  34  35
ATOM     35  C   UNL     1       0.543  -6.156  -3.065  0.00  0.00    +0.047 C 
BRANCH  35  36
ATOM     36  C   UNL     1      -0.015  -6.176  -4.489  0.00  0.00    +0.157 C 
BRANCH  36  37
ATOM     37  O   UNL     1       1.065  -6.226  -5.423  0.00  0.00    -0.395 OA
ATOM     38  H   UNL     1       0.785  -6.240  -6.348  0.00  0.00    +0.209 HD
ENDBRANCH  36  37
ENDBRANCH  35  36
ENDBRANCH  34  35
ENDBRANCH  10  34
TORSDOF 12
