REMARK  Name = ZINC16937235
REMARK  7 active torsions:
REMARK  status: ('A' for Active; 'I' for Inactive)
REMARK    1  A    between atoms: C_1  and  C_2
REMARK    2  A    between atoms: C_5  and  N_9
REMARK    3  A    between atoms: C_6  and  O_8
REMARK    4  A    between atoms: C_15  and  C_16
REMARK    5  A    between atoms: C_19  and  O_24
REMARK    6  A    between atoms: C_20  and  O_22
REMARK    7  A    between atoms: O_22  and  C_23
REMARK                            x       y       z     vdW  Elec       q    Type
REMARK                         _______ _______ _______ _____ _____    ______ ____
ROOT
ATOM      1  N   UNL     1       9.034   4.458  -0.415  0.00  0.00    -0.222 NA
ATOM      2  C   UNL     1       8.148   3.509  -0.612  0.00  0.00    +0.166 C 
ATOM      3  N   UNL     1       8.355   2.149  -0.707  0.00  0.00    -0.260 N 
ATOM      4  C   UNL     1       7.340   1.325  -0.903  0.00  0.00    +0.256 C 
ATOM      5  O   UNL     1       7.503   0.122  -0.983  0.00  0.00    -0.269 OA
ATOM      6  C   UNL     1       6.000   1.931  -1.025  0.00  0.00    +0.078 C 
ATOM      7  C   UNL     1       4.799   1.332  -1.230  0.00  0.00    +0.028 C 
ATOM      8  S   UNL     1       6.382   3.665  -0.822  0.00  0.00    -0.049 S 
ATOM      9  H   UNL     1       9.254   1.793  -0.625  0.00  0.00    +0.157 HD
ENDROOT
BRANCH   1  14
ATOM     10  C   UNL     1       7.343   9.810   0.228  0.00  0.00    +0.044 C 
ATOM     11  C   UNL     1       7.796   8.383   0.054  0.00  0.00    -0.047 A 
ATOM     12  C   UNL     1       7.189   7.375   0.783  0.00  0.00    +0.005 A 
ATOM     13  C   UNL     1       7.597   6.065   0.631  0.00  0.00    +0.032 A 
ATOM     14  C   UNL     1       8.625   5.756  -0.261  0.00  0.00    +0.108 A 
ATOM     15  C   UNL     1       9.240   6.780  -0.992  0.00  0.00    +0.142 A 
ATOM     16  C   UNL     1       8.816   8.087  -0.833  0.00  0.00    +0.051 A 
BRANCH  15  17
ATOM     17  O   UNL     1      10.246   6.490  -1.859  0.00  0.00    -0.505 OA
ATOM     18  H   UNL     1       9.947   6.297  -2.759  0.00  0.00    +0.292 HD
ENDBRANCH  15  17
ENDBRANCH   1  14
BRANCH   7  19
ATOM     19  C   UNL     1       3.604   2.149  -1.477  0.00  0.00    -0.020 A 
ATOM     20  C   UNL     1       3.736   3.490  -1.856  0.00  0.00    +0.012 A 
ATOM     21  C   UNL     1       2.612   4.254  -2.086  0.00  0.00    +0.050 A 
ATOM     22  C   UNL     1       1.349   3.697  -1.943  0.00  0.00    +0.158 A 
ATOM     23  C   UNL     1       1.209   2.362  -1.566  0.00  0.00    +0.162 A 
ATOM     24  C   UNL     1       2.329   1.591  -1.328  0.00  0.00    +0.057 A 
BRANCH  23  25
ATOM     25  O   UNL     1      -0.032   1.822  -1.427  0.00  0.00    -0.491 OA
ATOM     26  C   UNL     1      -0.101   0.449  -1.038  0.00  0.00    +0.277 C 
ENDBRANCH  23  25
BRANCH  22  27
ATOM     27  O   UNL     1       0.245   4.456  -2.172  0.00  0.00    -0.503 OA
ATOM     28  H   UNL     1      -0.085   4.917  -1.388  0.00  0.00    +0.292 HD
ENDBRANCH  22  27
ENDBRANCH   7  19
TORSDOF 5
