REMARK  Name = ZINC63557482
REMARK  4 active torsions:
REMARK  status: ('A' for Active; 'I' for Inactive)
REMARK    1  A    between atoms: C_6  and  C_11
REMARK    2  A    between atoms: C_11  and  C_12
REMARK    3  A    between atoms: C_12  and  N_13
REMARK    4  A    between atoms: C_15  and  C_20
REMARK                            x       y       z     vdW  Elec       q    Type
REMARK                         _______ _______ _______ _____ _____    ______ ____
ROOT
ATOM      1  N   UNL     1       5.000  -3.595  -1.503  0.00  0.00    -0.300 N 
ATOM      2  C   UNL     1       6.416  -3.969  -1.407  0.00  0.00    +0.121 C 
ATOM      3  C   UNL     1       6.489  -5.434  -1.892  0.00  0.00    +0.101 C 
ATOM      4  C   UNL     1       5.057  -5.936  -1.594  0.00  0.00    +0.110 C 
ATOM      5  C   UNL     1       4.213  -4.681  -1.598  0.00  0.00    +0.216 C 
ATOM      6  O   UNL     1       3.003  -4.657  -1.677  0.00  0.00    -0.276 OA
ENDROOT
BRANCH   3   7
ATOM      7  C   UNL     1       7.509  -6.214  -1.104  0.00  0.00    +0.224 C 
ATOM      8  O   UNL     1       8.140  -5.669  -0.223  0.00  0.00    -0.275 OA
ATOM      9  N   UNL     1       7.721  -7.516  -1.378  0.00  0.00    -0.264 N 
ATOM     10  C   UNL     1       8.663  -8.235  -0.651  0.00  0.00    +0.164 A 
ATOM     11  N   UNL     1       9.428  -7.817   0.334  0.00  0.00    -0.233 NA
ATOM     12  C   UNL     1      10.281  -8.631   0.929  0.00  0.00    +0.120 A 
ATOM     13  C   UNL     1      10.329  -9.909   0.478  0.00  0.00    +0.068 A 
ATOM     14  S   UNL     1       9.095  -9.854  -0.811  0.00  0.00    -0.061 S 
ATOM     15  H   UNL     1       7.217  -7.952  -2.083  0.00  0.00    +0.157 HD
ENDBRANCH   3   7
BRANCH   1  16
ATOM     16  C   UNL     1       4.508  -2.215  -1.491  0.00  0.00    +0.112 C 
BRANCH  16  17
ATOM     17  C   UNL     1       4.231  -1.785  -0.049  0.00  0.00    +0.052 C 
BRANCH  17  23
ATOM     18  C   UNL     1      -0.017   1.399   0.010  0.00  0.00    +0.022 A 
ATOM     19  C   UNL     1       1.109   2.143   0.003  0.00  0.00    +0.027 A 
ATOM     20  C   UNL     1       2.385   1.516  -0.013  0.00  0.00    +0.043 A 
ATOM     21  N   UNL     1       3.600   2.009  -0.022  0.00  0.00    -0.380 N 
ATOM     22  C   UNL     1       4.557   0.897  -0.038  0.00  0.00    +0.144 C 
ATOM     23  C   UNL     1       3.724  -0.366  -0.036  0.00  0.00    -0.040 C 
ATOM     24  C   UNL     1       2.433   0.036  -0.021  0.00  0.00    +0.000 A 
ATOM     25  C   UNL     1       1.163  -0.699  -0.013  0.00  0.00    +0.030 A 
ATOM     26  C   UNL     1       0.002  -0.004   0.002  0.00  0.00    +0.042 A 
ATOM     27 CL   UNL     1      -1.502  -0.870   0.012  0.00  0.00    -0.084 Cl
ATOM     28  H   UNL     1       3.828   2.952  -0.020  0.00  0.00    +0.160 HD
ENDBRANCH  17  23
ENDBRANCH  16  17
ENDBRANCH   1  16
TORSDOF 4
