REMARK  Name = ZINC64873558
REMARK  7 active torsions:
REMARK  status: ('A' for Active; 'I' for Inactive)
REMARK    1  A    between atoms: C_1  and  C_2
REMARK    2  A    between atoms: C_2  and  C_4
REMARK    3  A    between atoms: C_2  and  N_10
REMARK    4  A    between atoms: C_4  and  C_5
REMARK    5  A    between atoms: C_11  and  C_13
REMARK    6  A    between atoms: N_22  and  C_30
REMARK    7  A    between atoms: C_30  and  C_31
REMARK                            x       y       z     vdW  Elec       q    Type
REMARK                         _______ _______ _______ _____ _____    ______ ____
ROOT
ATOM      1  C   UNL     1       2.952  -1.211   2.272  0.00  0.00    +0.078 C 
ATOM      2  C   UNL     1       2.699  -0.075   3.265  0.00  0.00    +0.031 C 
ATOM      3  C   UNL     1       3.229  -0.480   4.644  0.00  0.00    +0.107 C 
ATOM      4  N   UNL     1       4.641  -0.864   4.514  0.00  0.00    -0.311 N 
ATOM      5  C   UNL     1       5.007  -1.885   3.522  0.00  0.00    +0.107 C 
ATOM      6  C   UNL     1       4.457  -1.464   2.156  0.00  0.00    +0.031 C 
ATOM      7  C   UNL     1       5.608  -0.276   5.309  0.00  0.00    +0.188 A 
ATOM      8  C   UNL     1       5.211   0.615   6.416  0.00  0.00    +0.292 A 
ATOM      9  O   UNL     1       4.035   0.837   6.637  0.00  0.00    -0.264 OA
ATOM     10  N   UNL     1       6.170   1.180   7.182  0.00  0.00    -0.300 N 
ATOM     11  C   UNL     1       7.497   0.907   6.905  0.00  0.00    +0.071 A 
ATOM     12  C   UNL     1       8.504   1.476   7.679  0.00  0.00    +0.028 A 
ATOM     13  C   UNL     1       9.825   1.199   7.398  0.00  0.00    +0.002 A 
ATOM     14  C   UNL     1      10.159   0.356   6.347  0.00  0.00    +0.002 A 
ATOM     15  C   UNL     1       9.187  -0.212   5.575  0.00  0.00    +0.030 A 
ATOM     16  C   UNL     1       7.836   0.053   5.841  0.00  0.00    +0.090 A 
ATOM     17  N   UNL     1       6.875  -0.514   5.082  0.00  0.00    -0.225 NA
ENDROOT
BRANCH   1  19
ATOM     18  N   UNL     1       1.088  -0.559   0.782  0.00  0.00    -0.312 N 
ATOM     19  C   UNL     1       2.401  -0.830   0.922  0.00  0.00    +0.216 C 
ATOM     20  O   UNL     1       3.139  -0.767  -0.038  0.00  0.00    -0.276 OA
ATOM     21  H   UNL     1       0.498  -0.610   1.550  0.00  0.00    +0.149 HD
BRANCH  18  23
ATOM     22  C   UNL     1       0.736   1.314  -0.750  0.00  0.00    +0.028 C 
ATOM     23  C   UNL     1       0.552  -0.189  -0.530  0.00  0.00    +0.077 C 
BRANCH  23  24
ATOM     24  C   UNL     1      -0.937  -0.535  -0.590  0.00  0.00    +0.096 C 
BRANCH  24  25
ATOM     25  C   UNL     1      -1.109  -2.030  -0.496  0.00  0.00    +0.107 A 
ATOM     26  C   UNL     1      -1.265  -2.734   0.639  0.00  0.00    +0.045 A 
ATOM     27  C   UNL     1      -1.390  -4.091   0.265  0.00  0.00    +0.041 A 
ATOM     28  C   UNL     1      -1.303  -4.136  -1.077  0.00  0.00    +0.195 A 
ATOM     29  O   UNL     1      -1.139  -2.883  -1.533  0.00  0.00    -0.468 OA
ENDBRANCH  24  25
ENDBRANCH  23  24
ENDBRANCH  18  23
ENDBRANCH   1  19
BRANCH  10  30
ATOM     30  C   UNL     1       5.808   2.069   8.288  0.00  0.00    +0.160 C 
BRANCH  30  31
ATOM     31  C   UNL     1       5.638   1.259   9.548  0.00  0.00    -0.028 A 
ATOM     32  C   UNL     1       4.402   0.730   9.868  0.00  0.00    +0.005 A 
ATOM     33  C   UNL     1       4.246  -0.013  11.024  0.00  0.00    +0.000 A 
ATOM     34  C   UNL     1       5.327  -0.226  11.859  0.00  0.00    +0.000 A 
ATOM     35  C   UNL     1       6.563   0.303  11.539  0.00  0.00    +0.000 A 
ATOM     36  C   UNL     1       6.720   1.042  10.381  0.00  0.00    +0.005 A 
ENDBRANCH  30  31
ENDBRANCH  10  30
TORSDOF 6
