REMARK  Name = ZINC66930755
REMARK  8 active torsions:
REMARK  status: ('A' for Active; 'I' for Inactive)
REMARK    1  A    between atoms: C_1  and  C_2
REMARK    2  A    between atoms: C_4  and  C_11
REMARK    3  A    between atoms: C_5  and  O_10
REMARK    4  A    between atoms: C_6  and  O_8
REMARK    5  A    between atoms: O_8  and  C_9
REMARK    6  A    between atoms: N_13  and  C_14
REMARK    7  A    between atoms: C_14  and  C_15
REMARK    8  A    between atoms: C_15  and  O_25
REMARK                            x       y       z     vdW  Elec       q    Type
REMARK                         _______ _______ _______ _____ _____    ______ ____
ROOT
ATOM      1  C   UNL     1       0.423  -2.792  -2.526  0.00  0.00    +0.248 C 
ATOM      2  O   UNL     1       0.525  -4.004  -2.540  0.00  0.00    -0.270 OA
ATOM      3  N   UNL     1       0.169  -2.123  -3.668  0.00  0.00    -0.308 N 
ATOM      4  H   UNL     1       0.087  -1.157  -3.656  0.00  0.00    +0.149 HD
ENDROOT
BRANCH   1   8
ATOM      5  C   UNL     1       0.476   1.525  -0.031  0.00  0.00    +0.044 C 
ATOM      6  C   UNL     1       0.603   0.024  -0.049  0.00  0.00    -0.046 A 
ATOM      7  C   UNL     1       0.460  -0.662  -1.236  0.00  0.00    +0.020 A 
ATOM      8  C   UNL     1       0.577  -2.054  -1.257  0.00  0.00    +0.082 A 
ATOM      9  C   UNL     1       0.840  -2.746  -0.068  0.00  0.00    +0.171 A 
ATOM     10  C   UNL     1       0.983  -2.039   1.122  0.00  0.00    +0.162 A 
ATOM     11  C   UNL     1       0.870  -0.659   1.126  0.00  0.00    +0.052 A 
BRANCH  10  12
ATOM     12  O   UNL     1       1.238  -2.704   2.281  0.00  0.00    -0.491 OA
ATOM     13  C   UNL     1       1.373  -1.915   3.465  0.00  0.00    +0.277 C 
ENDBRANCH  10  12
BRANCH   9  14
ATOM     14  O   UNL     1       0.955  -4.098  -0.077  0.00  0.00    -0.503 OA
ATOM     15  H   UNL     1       1.856  -4.415  -0.228  0.00  0.00    +0.292 HD
ENDBRANCH   9  14
ENDBRANCH   1   8
BRANCH   3  16
ATOM     16  C   UNL     1       0.016  -2.856  -4.927  0.00  0.00    +0.144 C 
BRANCH  16  17
ATOM     17  C   UNL     1      -0.129  -1.862  -6.081  0.00  0.00    +0.107 C 
ATOM     18  C   UNL     1       1.089  -0.940  -6.108  0.00  0.00    +0.041 C 
ATOM     19  C   UNL     1       1.032  -0.102  -7.390  0.00  0.00    +0.008 C 
ATOM     20  C   UNL     1       1.301  -1.022  -8.579  0.00  0.00    +0.035 C 
ATOM     21  C   UNL     1       0.405  -2.232  -8.526  0.00  0.00    -0.041 A 
ATOM     22  C   UNL     1      -0.248  -2.619  -7.377  0.00  0.00    -0.011 A 
ATOM     23  C   UNL     1      -1.055  -3.750  -7.394  0.00  0.00    +0.007 A 
ATOM     24  C   UNL     1      -1.210  -4.484  -8.552  0.00  0.00    +0.000 A 
ATOM     25  C   UNL     1      -0.557  -4.093  -9.705  0.00  0.00    +0.000 A 
ATOM     26  C   UNL     1       0.247  -2.971  -9.690  0.00  0.00    +0.004 A 
BRANCH  17  27
ATOM     27  O   UNL     1      -1.308  -1.079  -5.883  0.00  0.00    -0.382 OA
ATOM     28  H   UNL     1      -2.123  -1.597  -5.846  0.00  0.00    +0.211 HD
ENDBRANCH  17  27
ENDBRANCH  16  17
ENDBRANCH   3  16
TORSDOF 6
