REMARK  Name = ZINC40804862
REMARK  3 active torsions:
REMARK  status: ('A' for Active; 'I' for Inactive)
REMARK    1  A    between atoms: C_1  and  C_2
REMARK    2  A    between atoms: C_2  and  C_13
REMARK    3  A    between atoms: C_18  and  C_21
REMARK                            x       y       z     vdW  Elec       q    Type
REMARK                         _______ _______ _______ _____ _____    ______ ____
ROOT
ATOM      1  C   UNL     1      -1.412  -0.525   0.015  0.00  0.00    +0.272 C 
ATOM      2  O   UNL     1      -1.961  -0.815  -1.027  0.00  0.00    -0.270 OA
ATOM      3  N   UNL     1      -2.067  -0.668   1.184  0.00  0.00    -0.261 N 
ATOM      4  C   UNL     1      -3.371  -1.149   1.196  0.00  0.00    +0.165 A 
ATOM      5  N   UNL     1      -4.176  -1.354   2.221  0.00  0.00    -0.225 NA
ATOM      6  C   UNL     1      -5.403  -1.822   2.049  0.00  0.00    +0.080 A 
ATOM      7  C   UNL     1      -5.845  -2.097   0.785  0.00  0.00    +0.076 A 
ATOM      8  S   UNL     1      -4.405  -1.645  -0.175  0.00  0.00    -0.060 S 
ATOM      9  H   UNL     1      -1.628  -0.437   2.017  0.00  0.00    +0.157 HD
ENDROOT
BRANCH   1  11
ATOM     10  C   UNL     1      -0.019   1.526   0.010  0.00  0.00    +0.076 C 
ATOM     11  C   UNL     1       0.002  -0.004   0.002  0.00  0.00    +0.258 C 
ATOM     12  C   UNL     1       0.704  -0.490  -1.241  0.00  0.00    +0.270 C 
ATOM     13  O   UNL     1       0.065  -0.745  -2.240  0.00  0.00    -0.271 OA
ATOM     14  N   UNL     1       2.045  -0.638  -1.238  0.00  0.00    -0.279 N 
ATOM     15  C   UNL     1       2.750  -0.461  -0.040  0.00  0.00    +0.076 A 
ATOM     16  C   UNL     1       4.133  -0.380  -0.041  0.00  0.00    +0.027 A 
ATOM     17  C   UNL     1       4.813  -0.191   1.148  0.00  0.00    +0.002 A 
ATOM     18  C   UNL     1       4.116  -0.082   2.337  0.00  0.00    +0.004 A 
ATOM     19  C   UNL     1       2.736  -0.166   2.346  0.00  0.00    +0.047 A 
ATOM     20  C   UNL     1       2.049  -0.361   1.160  0.00  0.00    +0.144 A 
ATOM     21  O   UNL     1       0.694  -0.477   1.160  0.00  0.00    -0.465 OA
ATOM     22  H   UNL     1       2.516  -0.866  -2.055  0.00  0.00    +0.155 HD
ENDBRANCH   1  11
BRANCH   6  23
ATOM     23  C   UNL     1      -6.290  -2.045   3.217  0.00  0.00    +0.001 A 
ATOM     24  C   UNL     1      -7.578  -2.543   3.032  0.00  0.00    +0.011 A 
ATOM     25  C   UNL     1      -8.399  -2.750   4.122  0.00  0.00    +0.016 A 
ATOM     26  C   UNL     1      -7.944  -2.462   5.397  0.00  0.00    +0.018 A 
ATOM     27  C   UNL     1      -6.666  -1.967   5.587  0.00  0.00    +0.016 A 
ATOM     28  C   UNL     1      -5.835  -1.763   4.504  0.00  0.00    +0.011 A 
ATOM     29 BR   UNL     1      -9.075  -2.747   6.887  0.00  0.00    -0.050 Br
ENDBRANCH   6  23
TORSDOF 2
