REMARK  Name = ZINC47683002
REMARK  9 active torsions:
REMARK  status: ('A' for Active; 'I' for Inactive)
REMARK    1  A    between atoms: C_1  and  C_2
REMARK    2  A    between atoms: C_2  and  C_3
REMARK    3  A    between atoms: C_6  and  C_8
REMARK    4  A    between atoms: N_10  and  N_11
REMARK    5  A    between atoms: N_11  and  C_12
REMARK    6  A    between atoms: C_12  and  N_14
REMARK    7  A    between atoms: N_14  and  C_15
REMARK    8  A    between atoms: C_20  and  C_25
REMARK    9  A    between atoms: C_22  and  C_24
REMARK                            x       y       z     vdW  Elec       q    Type
REMARK                         _______ _______ _______ _____ _____    ______ ____
ROOT
ATOM      1  N   UNL     1       6.021  -1.811   2.664  0.00  0.00    -0.246 N 
ATOM      2  H   UNL     1       6.139  -2.115   3.578  0.00  0.00    +0.172 HD
ENDROOT
BRANCH   1   5
ATOM      3  C   UNL     1       3.683  -1.546   3.027  0.00  0.00    +0.295 C 
ATOM      4  O   UNL     1       3.831  -1.928   4.173  0.00  0.00    -0.265 OA
ATOM      5  N   UNL     1       4.745  -1.460   2.202  0.00  0.00    -0.229 N 
ATOM      6  H   UNL     1       4.627  -1.156   1.289  0.00  0.00    +0.173 HD
BRANCH   3  10
ATOM      7  C   UNL     1       0.731  -0.503   1.223  0.00  0.00    +0.106 A 
ATOM      8  C   UNL     1       0.165  -0.785   2.417  0.00  0.00    +0.045 A 
ATOM      9  C   UNL     1       1.192  -1.218   3.269  0.00  0.00    +0.055 A 
ATOM     10  C   UNL     1       2.348  -1.178   2.543  0.00  0.00    +0.191 A 
ATOM     11  O   UNL     1       2.046  -0.746   1.301  0.00  0.00    -0.455 OA
BRANCH   7  13
ATOM     12  C   UNL     1      -0.019   1.526   0.010  0.00  0.00    +0.012 C 
ATOM     13  C   UNL     1       0.002  -0.004   0.002  0.00  0.00    +0.071 C 
ENDBRANCH   7  13
ENDBRANCH   3  10
ENDBRANCH   1   5
BRANCH   1  14
ATOM     14  C   UNL     1       7.083  -1.725   1.840  0.00  0.00    +0.147 C 
ATOM     15  S   UNL     1       8.642  -2.154   2.404  0.00  0.00    -0.017 S 
BRANCH  14  16
ATOM     16  N   UNL     1       6.919  -1.302   0.571  0.00  0.00    -0.322 N 
ATOM     17  H   UNL     1       6.036  -1.059   0.251  0.00  0.00    +0.148 HD
BRANCH  16  18
ATOM     18  C   UNL     1       8.074  -1.209  -0.326  0.00  0.00    +0.075 C 
ATOM     19  C   UNL     1       8.771   0.138  -0.122  0.00  0.00    +0.022 C 
ATOM     20  C   UNL     1       7.791   1.271  -0.433  0.00  0.00    +0.002 C 
ATOM     21  C   UNL     1       7.321   1.154  -1.885  0.00  0.00    +0.003 C 
ATOM     22  C   UNL     1       6.624  -0.193  -2.089  0.00  0.00    -0.009 C 
ATOM     23  C   UNL     1       7.604  -1.326  -1.777  0.00  0.00    +0.009 C 
ATOM     24  C   UNL     1       6.908  -2.673  -1.981  0.00  0.00    +0.009 C 
ATOM     25  C   UNL     1       6.154  -0.310  -3.540  0.00  0.00    +0.008 C 
ENDBRANCH  16  18
ENDBRANCH  14  16
ENDBRANCH   1  14
TORSDOF 6
