REMARK  Name = ZINC36159078
REMARK  8 active torsions:
REMARK  status: ('A' for Active; 'I' for Inactive)
REMARK    1  A    between atoms: C_4  and  C_7
REMARK    2  A    between atoms: C_7  and  C_8
REMARK    3  A    between atoms: C_8  and  C_10
REMARK    4  A    between atoms: C_8  and  O_33
REMARK    5  A    between atoms: C_10  and  N_11
REMARK    6  A    between atoms: N_11  and  C_12
REMARK    7  A    between atoms: N_11  and  C_27
REMARK    8  A    between atoms: C_12  and  C_13
REMARK                            x       y       z     vdW  Elec       q    Type
REMARK                         _______ _______ _______ _____ _____    ______ ____
ROOT
ATOM      1  N   UNL     1       5.899  -1.995   2.761  0.00  0.00    +0.388 N 
ATOM      2  H   UNL     1       5.328  -2.249   3.553  0.00  0.00    -0.081 HD
ENDROOT
BRANCH   1   3
ATOM      3  C   UNL     1       6.274  -0.578   2.861  0.00  0.00    -0.068 C 
ATOM      4  C   UNL     1       7.140  -0.367   4.105  0.00  0.00    -0.015 C 
ATOM      5  C   UNL     1       7.530   1.109   4.210  0.00  0.00    -0.002 C 
ATOM      6  C   UNL     1       8.319   1.517   2.964  0.00  0.00    -0.000 C 
ATOM      7  C   UNL     1       7.454   1.305   1.720  0.00  0.00    -0.002 C 
ATOM      8  C   UNL     1       7.063  -0.170   1.616  0.00  0.00    -0.015 C 
ENDBRANCH   1   3
BRANCH   1   9
ATOM      9  C   UNL     1       5.143  -2.215   1.521  0.00  0.00    -0.046 C 
BRANCH   9  10
ATOM     10  C   UNL     1       3.791  -1.506   1.616  0.00  0.00    +0.102 C 
BRANCH  10  11
ATOM     11  O   UNL     1       3.992  -0.092   1.600  0.00  0.00    -0.393 OA
ATOM     12  H   UNL     1       4.353   0.245   0.768  0.00  0.00    +0.210 HD
ENDBRANCH  10  11
BRANCH  10  13
ATOM     13  C   UNL     1       2.918  -1.911   0.426  0.00  0.00    +0.064 C 
BRANCH  13  17
ATOM     14  C   UNL     1      -0.976  -0.211   0.869  0.00  0.00    +0.000 A 
ATOM     15  C   UNL     1       0.013   0.489   0.204  0.00  0.00    +0.000 A 
ATOM     16  C   UNL     1       1.273  -0.060   0.061  0.00  0.00    +0.004 A 
ATOM     17  C   UNL     1       1.545  -1.311   0.583  0.00  0.00    -0.045 A 
ATOM     18  C   UNL     1       0.557  -2.012   1.249  0.00  0.00    +0.004 A 
ATOM     19  C   UNL     1      -0.704  -1.462   1.391  0.00  0.00    +0.000 A 
ENDBRANCH  13  17
ENDBRANCH  10  13
ENDBRANCH   9  10
ENDBRANCH   1   9
BRANCH   1  20
ATOM     20  C   UNL     1       7.113  -2.823   2.748  0.00  0.00    -0.003 C 
BRANCH  20  21
ATOM     21  C   UNL     1       7.578  -3.055   4.163  0.00  0.00    +0.094 A 
ATOM     22  N   UNL     1       8.767  -3.674   4.380  0.00  0.00    -0.312 N 
ATOM     23  H   UNL     1       9.301  -3.957   3.621  0.00  0.00    +0.170 HD
ATOM     24  C   UNL     1       9.220  -3.901   5.628  0.00  0.00    +0.260 A 
ATOM     25  O   UNL     1      10.290  -4.457   5.808  0.00  0.00    -0.267 OA
ATOM     26  C   UNL     1       8.422  -3.477   6.739  0.00  0.00    +0.075 A 
ATOM     27  C   UNL     1       8.715  -3.620   8.173  0.00  0.00    -0.023 A 
ATOM     28  C   UNL     1       7.799  -3.138   9.031  0.00  0.00    -0.004 A 
ATOM     29  S   UNL     1       6.511  -2.471   8.002  0.00  0.00    -0.073 S 
ATOM     30  C   UNL     1       7.212  -2.848   6.417  0.00  0.00    +0.116 A 
ATOM     31  N   UNL     1       6.832  -2.653   5.157  0.00  0.00    -0.229 NA
ATOM     32  C   UNL     1       8.202  -3.343  10.466  0.00  0.00    +0.043 C 
ATOM     33  C   UNL     1       9.312  -4.415  10.408  0.00  0.00    +0.010 C 
ATOM     34  C   UNL     1       9.870  -4.211   8.985  0.00  0.00    +0.037 C 
ENDBRANCH  20  21
ENDBRANCH   1  20
TORSDOF 8
