REMARK  Name = ZINC15108493
REMARK  9 active torsions:
REMARK  status: ('A' for Active; 'I' for Inactive)
REMARK    1  A    between atoms: C_1  and  C_2
REMARK    2  A    between atoms: C_6  and  C_27
REMARK    3  A    between atoms: C_8  and  C_11
REMARK    4  A    between atoms: N_13  and  C_14
REMARK    5  A    between atoms: C_17  and  S_20
REMARK    6  A    between atoms: S_20  and  N_23
REMARK    7  A    between atoms: C_24  and  C_26
REMARK    8  A    between atoms: C_27  and  C_28
REMARK    9  A    between atoms: C_27  and  C_29
REMARK                            x       y       z     vdW  Elec       q    Type
REMARK                         _______ _______ _______ _____ _____    ______ ____
ROOT
ATOM      1  C   UNL     1      -1.992   5.119  -0.162  0.00  0.00    +0.221 C 
ATOM      2  O   UNL     1      -1.731   6.007   0.622  0.00  0.00    -0.275 OA
ATOM      3  N   UNL     1      -2.601   5.407  -1.329  0.00  0.00    -0.285 N 
ATOM      4  H   UNL     1      -2.760   4.706  -1.980  0.00  0.00    +0.155 HD
ENDROOT
BRANCH   1  10
ATOM      5  C   UNL     1       1.637   1.713  -0.273  0.00  0.00    +0.007 C 
ATOM      6  C   UNL     1       0.182   1.979   0.117  0.00  0.00    -0.013 C 
ATOM      7  C   UNL     1       0.005   1.745   1.618  0.00  0.00    +0.003 C 
ATOM      8  C   UNL     1      -1.451   2.010   2.008  0.00  0.00    +0.005 C 
ATOM      9  C   UNL     1      -1.813   3.458   1.671  0.00  0.00    +0.003 C 
ATOM     10  C   UNL     1      -1.636   3.693   0.170  0.00  0.00    +0.079 C 
ATOM     11  C   UNL     1      -0.180   3.427  -0.220  0.00  0.00    +0.016 C 
BRANCH   9  12
ATOM     12  C   UNL     1      -3.268   3.724   2.061  0.00  0.00    -0.013 C 
ATOM     13  C   UNL     1      -4.181   2.743   1.322  0.00  0.00    +0.007 C 
ATOM     14  C   UNL     1      -3.435   3.538   3.570  0.00  0.00    +0.007 C 
ENDBRANCH   9  12
ENDBRANCH   1  10
BRANCH   3  15
ATOM     15  C   UNL     1      -3.003   6.719  -1.603  0.00  0.00    +0.034 A 
ATOM     16  C   UNL     1      -4.164   6.954  -2.328  0.00  0.00    +0.025 A 
ATOM     17  C   UNL     1      -4.561   8.250  -2.593  0.00  0.00    +0.030 A 
ATOM     18  C   UNL     1      -3.798   9.313  -2.145  0.00  0.00    +0.109 A 
ATOM     19  C   UNL     1      -2.639   9.083  -1.427  0.00  0.00    +0.030 A 
ATOM     20  C   UNL     1      -2.240   7.789  -1.155  0.00  0.00    +0.025 A 
BRANCH  18  21
ATOM     21  S   UNL     1      -4.304  10.965  -2.491  0.00  0.00    +0.074 S 
ATOM     22  O   UNL     1      -5.708  10.923  -2.707  0.00  0.00    -0.150 OA
ATOM     23  O   UNL     1      -3.711  11.789  -1.496  0.00  0.00    -0.150 OA
BRANCH  21  24
ATOM     24  N   UNL     1      -3.616  11.396  -3.934  0.00  0.00    -0.186 N 
ATOM     25  C   UNL     1      -3.972  10.760  -5.068  0.00  0.00    +0.229 C 
ATOM     26  O   UNL     1      -4.797   9.871  -5.030  0.00  0.00    -0.275 OA
ATOM     27  C   UNL     1      -3.346  11.152  -6.381  0.00  0.00    +0.111 C 
ATOM     28  H   UNL     1      -2.956  12.107  -3.964  0.00  0.00    +0.177 HD
ENDBRANCH  21  24
ENDBRANCH  18  21
ENDBRANCH   3  15
TORSDOF 5
