REMARK  Name = ZINC13503053
REMARK  13 active torsions:
REMARK  status: ('A' for Active; 'I' for Inactive)
REMARK    1  A    between atoms: C_1  and  C_2
REMARK    2  A    between atoms: C_2  and  C_3
REMARK    3  A    between atoms: C_2  and  C_4
REMARK    4  A    between atoms: C_2  and  N_5
REMARK    5  A    between atoms: C_6  and  C_8
REMARK    6  A    between atoms: C_8  and  N_9
REMARK    7  A    between atoms: N_9  and  C_10
REMARK    8  A    between atoms: C_20  and  C_22
REMARK    9  A    between atoms: C_22  and  N_23
REMARK   10  A    between atoms: N_23  and  S_24
REMARK   11  A    between atoms: S_24  and  C_27
REMARK   12  A    between atoms: C_30  and  O_33
REMARK   13  A    between atoms: O_33  and  C_34
REMARK                            x       y       z     vdW  Elec       q    Type
REMARK                         _______ _______ _______ _____ _____    ______ ____
ROOT
ATOM      1  N   UNL     1       3.621  -0.663  -0.046  0.00  0.00    -0.261 N 
ATOM      2  C   UNL     1       4.778   0.020  -0.158  0.00  0.00    +0.236 C 
ATOM      3  O   UNL     1       4.769   1.233  -0.151  0.00  0.00    -0.274 OA
ENDROOT
BRANCH   1   4
ATOM      4  C   UNL     1       2.401   0.025  -0.021  0.00  0.00    +0.041 A 
ATOM      5  C   UNL     1       1.637   0.042   1.138  0.00  0.00    +0.027 A 
ATOM      6  C   UNL     1       0.433   0.719   1.163  0.00  0.00    +0.051 A 
ATOM      7  C   UNL     1      -0.015   1.385   0.032  0.00  0.00    +0.162 A 
ATOM      8  C   UNL     1       0.749   1.373  -1.129  0.00  0.00    +0.164 A 
ATOM      9  C   UNL     1       1.956   0.691  -1.154  0.00  0.00    +0.073 A 
ATOM     10  O   UNL     1       0.330   2.027  -2.246  0.00  0.00    -0.485 OA
ATOM     11  C   UNL     1      -1.056   2.384  -2.301  0.00  0.00    +0.270 C 
ATOM     12  C   UNL     1      -1.446   3.009  -0.955  0.00  0.00    +0.270 C 
ATOM     13  O   UNL     1      -1.209   2.040   0.073  0.00  0.00    -0.485 OA
ENDBRANCH   1   4
BRANCH   1  14
ATOM     14  C   UNL     1       3.640  -2.125   0.050  0.00  0.00    +0.209 C 
BRANCH  14  16
ATOM     15  N   UNL     1       3.567  -4.058  -1.491  0.00  0.00    -0.309 N 
ATOM     16  C   UNL     1       3.564  -2.720  -1.333  0.00  0.00    +0.231 C 
ATOM     17  O   UNL     1       3.501  -1.994  -2.303  0.00  0.00    -0.274 OA
ATOM     18  H   UNL     1       3.618  -4.638  -0.716  0.00  0.00    +0.149 HD
BRANCH  15  20
ATOM     19  C   UNL     1       4.692  -4.164  -3.660  0.00  0.00    +0.031 C 
ATOM     20  C   UNL     1       3.493  -4.637  -2.835  0.00  0.00    +0.026 C 
ATOM     21  C   UNL     1       3.513  -6.163  -2.735  0.00  0.00    +0.031 C 
ATOM     22  C   UNL     1       2.198  -4.186  -3.514  0.00  0.00    +0.031 C 
ENDBRANCH  15  20
ENDBRANCH  14  16
ENDBRANCH   1  14
BRANCH   2  23
ATOM     23  C   UNL     1       6.082  -0.724  -0.293  0.00  0.00    +0.202 C 
BRANCH  23  24
ATOM     24  N   UNL     1       7.183   0.237  -0.398  0.00  0.00    -0.181 NA
ATOM     25  H   UNL     1       6.997   1.169  -0.593  0.00  0.00    +0.149 HD
BRANCH  24  26
ATOM     26  S   UNL     1       8.745  -0.268  -0.184  0.00  0.00    +0.059 S 
ATOM     27  O   UNL     1       9.571   0.873  -0.373  0.00  0.00    -0.153 OA
ATOM     28  O   UNL     1       8.765  -1.032   1.014  0.00  0.00    -0.153 OA
BRANCH  26  29
ATOM     29  C   UNL     1       9.118  -1.381  -1.498  0.00  0.00    +0.105 A 
ATOM     30  C   UNL     1       8.881  -2.735  -1.344  0.00  0.00    +0.032 A 
ATOM     31  C   UNL     1       9.167  -3.609  -2.374  0.00  0.00    +0.047 A 
ATOM     32  C   UNL     1       9.702  -3.130  -3.561  0.00  0.00    +0.120 A 
ATOM     33  C   UNL     1       9.944  -1.772  -3.711  0.00  0.00    +0.047 A 
ATOM     34  C   UNL     1       9.651  -0.901  -2.679  0.00  0.00    +0.032 A 
BRANCH  32  35
ATOM     35  O   UNL     1       9.989  -3.988  -4.574  0.00  0.00    -0.495 OA
ATOM     36  C   UNL     1       9.714  -5.372  -4.349  0.00  0.00    +0.277 C 
ENDBRANCH  32  35
ENDBRANCH  26  29
ENDBRANCH  24  26
ENDBRANCH  23  24
ENDBRANCH   2  23
TORSDOF 9
