REMARK  Name = ZINC16657447
REMARK  13 active torsions:
REMARK  status: ('A' for Active; 'I' for Inactive)
REMARK    1  A    between atoms: C_1  and  C_2
REMARK    2  A    between atoms: C_2  and  C_3
REMARK    3  A    between atoms: C_2  and  C_4
REMARK    4  A    between atoms: C_4  and  N_5
REMARK    5  A    between atoms: C_6  and  N_30
REMARK    6  A    between atoms: C_7  and  N_14
REMARK    7  A    between atoms: N_14  and  C_15
REMARK    8  A    between atoms: C_15  and  C_16
REMARK    9  A    between atoms: C_16  and  C_17
REMARK   10  A    between atoms: C_16  and  C_18
REMARK   11  A    between atoms: C_19  and  C_21
REMARK   12  A    between atoms: C_21  and  S_22
REMARK   13  A    between atoms: S_22  and  C_23
REMARK                            x       y       z     vdW  Elec       q    Type
REMARK                         _______ _______ _______ _____ _____    ______ ____
ROOT
ATOM      1  N   UNL     1      -1.382   1.878   5.917  0.00  0.00    -0.280 N 
ATOM      2  C   UNL     1      -0.816   1.262   4.825  0.00  0.00    +0.127 A 
ATOM      3  C   UNL     1      -0.678   1.970   3.648  0.00  0.00    +0.140 A 
ATOM      4  C   UNL     1      -1.119   3.306   3.603  0.00  0.00    +0.277 A 
ATOM      5  O   UNL     1      -1.005   3.955   2.578  0.00  0.00    -0.266 OA
ATOM      6  N   UNL     1      -1.672   3.860   4.700  0.00  0.00    -0.273 N 
ATOM      7  H   UNL     1      -1.993   4.807   4.667  0.00  0.00    +0.173 HD
ATOM      8  C   UNL     1      -1.798   3.156   5.838  0.00  0.00    +0.331 A 
ATOM      9  O   UNL     1      -2.296   3.682   6.814  0.00  0.00    -0.246 OA
ENDROOT
BRANCH   3  10
ATOM     10  N   UNL     1      -0.102   1.366   2.511  0.00  0.00    -0.263 N 
ATOM     11  C   UNL     1      -0.848   1.157   1.406  0.00  0.00    +0.230 C 
ATOM     12  O   UNL     1      -0.376   0.564   0.459  0.00  0.00    -0.274 OA
BRANCH  10  13
ATOM     13  C   UNL     1       1.307   0.965   2.530  0.00  0.00    +0.117 C 
BRANCH  13  14
ATOM     14  C   UNL     1       2.184   2.166   2.166  0.00  0.00    +0.001 C 
ATOM     15  C   UNL     1       3.658   1.777   2.292  0.00  0.00    +0.009 C 
ATOM     16  C   UNL     1       1.891   2.594   0.727  0.00  0.00    +0.009 C 
ENDBRANCH  13  14
ENDBRANCH  10  13
BRANCH  11  17
ATOM     17  C   UNL     1      -2.267   1.661   1.349  0.00  0.00    +0.170 C 
BRANCH  17  18
ATOM     18  S   UNL     1      -2.972   1.298  -0.282  0.00  0.00    -0.116 S 
BRANCH  18  19
ATOM     19  C   UNL     1      -4.611   1.940  -0.191  0.00  0.00    +0.009 A 
ATOM     20  C   UNL     1      -5.056   2.546   0.978  0.00  0.00    +0.017 A 
ATOM     21  C   UNL     1      -6.339   3.053   1.045  0.00  0.00    +0.039 A 
ATOM     22  C   UNL     1      -7.184   2.948  -0.047  0.00  0.00    +0.123 A 
ATOM     23  C   UNL     1      -6.744   2.340  -1.210  0.00  0.00    +0.039 A 
ATOM     24  C   UNL     1      -5.461   1.837  -1.285  0.00  0.00    +0.017 A 
ATOM     25  F   UNL     1      -8.441   3.441   0.023  0.00  0.00    -0.205 F 
ENDBRANCH  18  19
ENDBRANCH  17  18
ENDBRANCH  11  17
ENDBRANCH   3  10
BRANCH   2  26
ATOM     26  N   UNL     1      -0.392  -0.042   4.905  0.00  0.00    -0.343 N 
ATOM     27  H   UNL     1       0.059  -0.453   4.151  0.00  0.00    +0.144 HD
ATOM     28  H   UNL     1      -0.542  -0.552   5.717  0.00  0.00    +0.144 HD
ENDBRANCH   2  26
BRANCH   1  29
ATOM     29  C   UNL     1      -1.533   1.140   7.173  0.00  0.00    +0.131 C 
BRANCH  29  31
ATOM     30  C   UNL     1      -0.165   2.803   8.439  0.00  0.00    +0.009 C 
ATOM     31  C   UNL     1      -0.282   1.333   8.032  0.00  0.00    +0.003 C 
ATOM     32  C   UNL     1      -0.386   0.463   9.287  0.00  0.00    +0.009 C 
ENDBRANCH  29  31
ENDBRANCH   1  29
TORSDOF 9
