REMARK  Name = ZINC61720956
REMARK  8 active torsions:
REMARK  status: ('A' for Active; 'I' for Inactive)
REMARK    1  A    between atoms: C_1  and  O_2
REMARK    2  A    between atoms: O_2  and  C_3
REMARK    3  A    between atoms: C_6  and  C_9
REMARK    4  A    between atoms: N_20  and  C_21
REMARK    5  A    between atoms: C_21  and  C_22
REMARK    6  A    between atoms: C_22  and  C_23
REMARK    7  A    between atoms: N_25  and  C_26
REMARK    8  A    between atoms: C_31  and  O_32
REMARK                            x       y       z     vdW  Elec       q    Type
REMARK                         _______ _______ _______ _____ _____    ______ ____
ROOT
ATOM      1  C   UNL     1       2.626  -2.569   4.288  0.00  0.00    +0.193 C 
ATOM      2  N   UNL     1       3.778  -1.764   4.713  0.00  0.00    -0.321 N 
ATOM      3  C   UNL     1       4.931  -1.793   3.937  0.00  0.00    +0.041 A 
ATOM      4  C   UNL     1       5.790  -0.711   3.861  0.00  0.00    +0.024 A 
ATOM      5  C   UNL     1       6.921  -0.790   3.071  0.00  0.00    +0.002 A 
ATOM      6  C   UNL     1       7.201  -1.944   2.355  0.00  0.00    +0.001 A 
ATOM      7  C   UNL     1       6.355  -3.031   2.421  0.00  0.00    +0.015 A 
ATOM      8  C   UNL     1       5.213  -2.966   3.214  0.00  0.00    +0.058 A 
ATOM      9  C   UNL     1       4.279  -4.101   3.327  0.00  0.00    +0.250 C 
ATOM     10  O   UNL     1       4.602  -5.204   2.929  0.00  0.00    -0.270 OA
ATOM     11  N   UNL     1       3.067  -3.901   3.876  0.00  0.00    -0.274 N 
ATOM     12  H   UNL     1       3.735  -1.224   5.518  0.00  0.00    +0.148 HD
ENDROOT
BRANCH   1  16
ATOM     13  C   UNL     1       0.687  -0.640   1.005  0.00  0.00    +0.120 A 
ATOM     14  C   UNL     1       0.735  -2.025   1.067  0.00  0.00    +0.046 A 
ATOM     15  C   UNL     1       1.362  -2.646   2.130  0.00  0.00    +0.010 A 
ATOM     16  C   UNL     1       1.942  -1.889   3.130  0.00  0.00    -0.009 A 
ATOM     17  C   UNL     1       1.895  -0.508   3.070  0.00  0.00    +0.010 A 
ATOM     18  C   UNL     1       1.274   0.118   2.007  0.00  0.00    +0.046 A 
BRANCH  13  20
ATOM     19  C   UNL     1      -0.513  -0.871  -1.035  0.00  0.00    +0.277 C 
ATOM     20  O   UNL     1       0.070  -0.027  -0.040  0.00  0.00    -0.495 OA
ENDBRANCH  13  20
ENDBRANCH   1  16
BRANCH  11  21
ATOM     21  C   UNL     1       2.170  -5.045   4.062  0.00  0.00    +0.119 C 
BRANCH  21  22
ATOM     22  C   UNL     1       2.328  -5.590   5.482  0.00  0.00    +0.115 C 
BRANCH  22  23
ATOM     23  C   UNL     1       1.498  -6.839   5.636  0.00  0.00    +0.219 C 
ATOM     24  O   UNL     1       0.845  -7.252   4.701  0.00  0.00    -0.275 OA
ATOM     25  N   UNL     1       1.482  -7.497   6.812  0.00  0.00    -0.283 N 
ATOM     26  H   UNL     1       2.053  -7.204   7.540  0.00  0.00    +0.155 HD
BRANCH  25  27
ATOM     27  C   UNL     1       0.640  -8.604   6.984  0.00  0.00    +0.075 A 
ATOM     28  C   UNL     1       0.389  -9.459   5.920  0.00  0.00    +0.027 A 
ATOM     29  C   UNL     1      -0.441 -10.550   6.092  0.00  0.00    +0.002 A 
ATOM     30  C   UNL     1      -1.023 -10.793   7.322  0.00  0.00    +0.004 A 
ATOM     31  C   UNL     1      -0.778  -9.946   8.387  0.00  0.00    +0.047 A 
ATOM     32  C   UNL     1       0.058  -8.853   8.224  0.00  0.00    +0.138 A 
BRANCH  32  33
ATOM     33  O   UNL     1       0.304  -8.022   9.272  0.00  0.00    -0.505 OA
ATOM     34  H   UNL     1      -0.320  -7.287   9.347  0.00  0.00    +0.292 HD
ENDBRANCH  32  33
ENDBRANCH  25  27
ENDBRANCH  22  23
ENDBRANCH  21  22
ENDBRANCH  11  21
TORSDOF 7
