REMARK  Name = ZINC04640085
REMARK  9 active torsions:
REMARK  status: ('A' for Active; 'I' for Inactive)
REMARK    1  A    between atoms: C_1  and  C_2
REMARK    2  A    between atoms: C_4  and  C_25
REMARK    3  A    between atoms: C_6  and  S_8
REMARK    4  A    between atoms: S_8  and  C_9
REMARK    5  A    between atoms: C_9  and  C_10
REMARK    6  A    between atoms: C_13  and  C_16
REMARK    7  A    between atoms: C_19  and  N_22
REMARK    8  A    between atoms: N_22  and  C_23
REMARK    9  A    between atoms: N_22  and  C_24
REMARK                            x       y       z     vdW  Elec       q    Type
REMARK                         _______ _______ _______ _____ _____    ______ ____
ROOT
ATOM      1  C   UNL     1      -3.351   8.139   2.491  0.00  0.00    +0.110 C 
ATOM      2  C   UNL     1      -2.410   8.483   3.673  0.00  0.00    -0.046 C 
ATOM      3  C   UNL     1      -1.284   7.121   2.146  0.00  0.00    +0.094 C 
ATOM      4  O   UNL     1      -2.466   7.599   1.491  0.00  0.00    -0.388 OA
ATOM      5  N   UNL     1      -1.440   7.390   3.568  0.00  0.00    +0.401 N 
ATOM      6  H   UNL     1      -1.791   6.555   4.052  0.00  0.00    -0.081 HD
ATOM      7  H   UNL     1      -0.542   7.671   3.978  0.00  0.00    -0.081 HD
ENDROOT
BRANCH   3   8
ATOM      8  C   UNL     1      -1.129   5.643   1.898  0.00  0.00    -0.036 A 
ATOM      9  C   UNL     1      -0.042   5.174   1.183  0.00  0.00    +0.006 A 
ATOM     10  C   UNL     1       0.104   3.820   0.954  0.00  0.00    +0.023 A 
ATOM     11  C   UNL     1      -0.843   2.928   1.443  0.00  0.00    +0.029 A 
ATOM     12  C   UNL     1      -1.936   3.403   2.157  0.00  0.00    +0.023 A 
ATOM     13  C   UNL     1      -2.073   4.758   2.386  0.00  0.00    +0.006 A 
BRANCH  11  14
ATOM     14  N   UNL     1      -0.699   1.558   1.214  0.00  0.00    -0.336 N 
ATOM     15  C   UNL     1       0.452   1.060   0.456  0.00  0.00    +0.129 C 
ATOM     16  C   UNL     1      -1.698   0.620   1.730  0.00  0.00    +0.129 C 
ENDBRANCH  11  14
ENDBRANCH   3   8
BRANCH   1  17
ATOM     17  C   UNL     1      -4.043   9.400   1.970  0.00  0.00    +0.107 C 
BRANCH  17  18
ATOM     18  S   UNL     1      -5.153   8.962   0.610  0.00  0.00    -0.084 S 
BRANCH  18  24
ATOM     19  C   UNL     1      -5.380  14.009   1.427  0.00  0.00    +0.066 C 
ATOM     20  C   UNL     1      -5.851  12.816   0.635  0.00  0.00    +0.043 A 
ATOM     21  C   UNL     1      -6.775  12.972  -0.386  0.00  0.00    +0.046 A 
ATOM     22  C   UNL     1      -7.182  11.849  -1.089  0.00  0.00    +0.043 A 
ATOM     23  N   UNL     1      -6.679  10.669  -0.768  0.00  0.00    -0.227 NA
ATOM     24  C   UNL     1      -5.797  10.553   0.215  0.00  0.00    +0.189 A 
ATOM     25  N   UNL     1      -5.391  11.607   0.910  0.00  0.00    -0.227 NA
ATOM     26  C   UNL     1      -8.185  11.972  -2.207  0.00  0.00    +0.066 C 
ENDBRANCH  18  24
ENDBRANCH  17  18
ENDBRANCH   1  17
TORSDOF 5
