REMARK  Name = ZINC13602590
REMARK  7 active torsions:
REMARK  status: ('A' for Active; 'I' for Inactive)
REMARK    1  A    between atoms: C_4  and  C_7
REMARK    2  A    between atoms: C_13  and  C_15
REMARK    3  A    between atoms: N_17  and  N_18
REMARK    4  A    between atoms: C_19  and  C_20
REMARK    5  A    between atoms: C_23  and  O_26
REMARK    6  A    between atoms: O_26  and  C_27
REMARK    7  A    between atoms: C_27  and  C_29
REMARK                            x       y       z     vdW  Elec       q    Type
REMARK                         _______ _______ _______ _____ _____    ______ ____
ROOT
ATOM      1  N   UNL     1      -3.840   0.692   3.152  0.00  0.00    -0.188 NA
ATOM      2  C   UNL     1      -4.275   0.555   4.367  0.00  0.00    +0.138 C 
ENDROOT
BRANCH   2   3
ATOM      3  C   UNL     1      -3.975  -0.675   5.123  0.00  0.00    -0.005 A 
ATOM      4  C   UNL     1      -2.978  -1.546   4.678  0.00  0.00    +0.013 A 
ATOM      5  C   UNL     1      -2.698  -2.692   5.390  0.00  0.00    +0.047 A 
ATOM      6  C   UNL     1      -3.413  -2.987   6.544  0.00  0.00    +0.132 A 
ATOM      7  C   UNL     1      -4.409  -2.126   6.988  0.00  0.00    +0.047 A 
ATOM      8  C   UNL     1      -4.692  -0.976   6.285  0.00  0.00    +0.013 A 
BRANCH   6   9
ATOM      9  O   UNL     1      -3.138  -4.120   7.240  0.00  0.00    -0.422 OA
BRANCH   9  10
ATOM     10  C   UNL     1      -4.006  -5.143   7.112  0.00  0.00    +0.346 C 
ATOM     11  O   UNL     1      -4.931  -5.060   6.329  0.00  0.00    -0.244 OA
BRANCH  10  12
ATOM     12  C   UNL     1      -3.833  -6.364   7.923  0.00  0.00    +0.078 A 
ATOM     13  C   UNL     1      -2.771  -6.462   8.825  0.00  0.00    +0.018 A 
ATOM     14  C   UNL     1      -2.615  -7.605   9.580  0.00  0.00    +0.021 A 
ATOM     15  C   UNL     1      -3.509  -8.655   9.447  0.00  0.00    +0.042 A 
ATOM     16  C   UNL     1      -4.564  -8.565   8.555  0.00  0.00    +0.040 A 
ATOM     17  C   UNL     1      -4.735  -7.424   7.797  0.00  0.00    +0.056 A 
ATOM     18 CL   UNL     1      -6.063  -7.309   6.684  0.00  0.00    -0.083 Cl
ATOM     19 CL   UNL     1      -3.305 -10.091  10.402  0.00  0.00    -0.083 Cl
ENDBRANCH  10  12
ENDBRANCH   9  10
ENDBRANCH   6   9
ENDBRANCH   2   3
BRANCH   1  22
ATOM     20  C   UNL     1      -2.910  -0.291   1.193  0.00  0.00    +0.245 C 
ATOM     21  O   UNL     1      -2.711   0.820   0.747  0.00  0.00    -0.273 OA
ATOM     22  N   UNL     1      -3.478  -0.438   2.406  0.00  0.00    -0.206 N 
ATOM     23  H   UNL     1      -3.637  -1.326   2.763  0.00  0.00    +0.177 HD
BRANCH  20  29
ATOM     24  C   UNL     1      -0.985  -1.682   0.385  0.00  0.00    +0.057 C 
ATOM     25  C   UNL     1      -0.589  -0.951  -0.917  0.00  0.00    +0.113 C 
ATOM     26  N   UNL     1      -1.778  -1.010  -1.776  0.00  0.00    -0.314 N 
ATOM     27  C   UNL     1      -2.878  -1.314  -1.067  0.00  0.00    +0.226 C 
ATOM     28  O   UNL     1      -3.995  -1.420  -1.528  0.00  0.00    -0.275 OA
ATOM     29  C   UNL     1      -2.521  -1.506   0.391  0.00  0.00    +0.171 C 
ATOM     30  H   UNL     1      -1.770  -0.851  -2.733  0.00  0.00    +0.149 HD
BRANCH  24  34
ATOM     31  C   UNL     1       0.782   0.197   3.790  0.00  0.00    +0.000 A 
ATOM     32  C   UNL     1       0.695  -1.181   3.729  0.00  0.00    +0.000 A 
ATOM     33  C   UNL     1       0.123  -1.789   2.627  0.00  0.00    +0.004 A 
ATOM     34  C   UNL     1      -0.362  -1.019   1.586  0.00  0.00    -0.042 A 
ATOM     35  C   UNL     1      -0.270   0.359   1.645  0.00  0.00    +0.004 A 
ATOM     36  C   UNL     1       0.299   0.967   2.749  0.00  0.00    +0.000 A 
ENDBRANCH  24  34
ENDBRANCH  20  29
ENDBRANCH   1  22
TORSDOF 7
