REMARK  Name = ZINC43761345
REMARK  7 active torsions:
REMARK  status: ('A' for Active; 'I' for Inactive)
REMARK    1  A    between atoms: C_1  and  C_2
REMARK    2  A    between atoms: C_2  and  C_3
REMARK    3  A    between atoms: C_2  and  C_4
REMARK    4  A    between atoms: C_7  and  C_10
REMARK    5  A    between atoms: N_11  and  N_12
REMARK    6  A    between atoms: C_13  and  C_15
REMARK    7  A    between atoms: C_15  and  C_16
REMARK                            x       y       z     vdW  Elec       q    Type
REMARK                         _______ _______ _______ _____ _____    ______ ____
ROOT
ATOM      1  N   UNL     1       2.852  -3.139   6.649  0.00  0.00    -0.207 N 
ATOM      2  C   UNL     1       2.217  -3.932   7.535  0.00  0.00    +0.237 C 
ATOM      3  O   UNL     1       1.059  -4.243   7.350  0.00  0.00    -0.274 OA
ATOM      4  H   UNL     1       3.777  -2.890   6.796  0.00  0.00    +0.177 HD
ENDROOT
BRANCH   1   6
ATOM      5  C   UNL     1       2.784  -1.911   4.661  0.00  0.00    +0.138 C 
ATOM      6  N   UNL     1       2.174  -2.674   5.514  0.00  0.00    -0.188 NA
BRANCH   5  10
ATOM      7  C   UNL     1       0.731  -0.503   1.223  0.00  0.00    -0.045 A 
ATOM      8  C   UNL     1       2.051  -0.146   1.431  0.00  0.00    +0.004 A 
ATOM      9  C   UNL     1       2.725  -0.599   2.546  0.00  0.00    +0.010 A 
ATOM     10  C   UNL     1       2.071  -1.421   3.466  0.00  0.00    -0.005 A 
ATOM     11  C   UNL     1       0.738  -1.778   3.250  0.00  0.00    +0.010 A 
ATOM     12  C   UNL     1       0.075  -1.313   2.134  0.00  0.00    +0.004 A 
BRANCH   7  14
ATOM     13  C   UNL     1      -0.019   1.526   0.010  0.00  0.00    +0.012 C 
ATOM     14  C   UNL     1       0.002  -0.004   0.002  0.00  0.00    +0.013 C 
ATOM     15  C   UNL     1       0.718  -0.497  -1.257  0.00  0.00    +0.012 C 
ENDBRANCH   7  14
ENDBRANCH   5  10
ENDBRANCH   1   6
BRANCH   2  16
ATOM     16  C   UNL     1       2.946  -4.432   8.755  0.00  0.00    +0.134 C 
BRANCH  16  17
ATOM     17  C   UNL     1       2.020  -5.291   9.576  0.00  0.00    -0.014 A 
ATOM     18  C   UNL     1       1.274  -4.892  10.618  0.00  0.00    +0.087 A 
ATOM     19  N   UNL     1       0.560  -5.949  11.114  0.00  0.00    -0.360 N 
ATOM     20  H   UNL     1      -0.050  -5.906  11.866  0.00  0.00    +0.165 HD
ATOM     21  C   UNL     1       0.838  -7.084  10.385  0.00  0.00    +0.047 A 
ATOM     22  C   UNL     1       1.760  -6.720   9.386  0.00  0.00    +0.003 A 
ATOM     23  C   UNL     1       2.223  -7.679   8.483  0.00  0.00    +0.010 A 
ATOM     24  C   UNL     1       1.774  -8.967   8.572  0.00  0.00    +0.001 A 
ATOM     25  C   UNL     1       0.862  -9.330   9.552  0.00  0.00    +0.002 A 
ATOM     26  C   UNL     1       0.399  -8.401  10.460  0.00  0.00    +0.026 A 
ENDBRANCH  16  17
ENDBRANCH   2  16
TORSDOF 5
