REMARK  Name = ZINC59423187
REMARK  10 active torsions:
REMARK  status: ('A' for Active; 'I' for Inactive)
REMARK    1  A    between atoms: C_1  and  O_2
REMARK    2  A    between atoms: O_2  and  C_3
REMARK    3  A    between atoms: C_6  and  C_9
REMARK    4  A    between atoms: C_9  and  N_10
REMARK    5  A    between atoms: N_10  and  C_11
REMARK    6  A    between atoms: N_10  and  C_14
REMARK    7  A    between atoms: C_11  and  C_12
REMARK    8  A    between atoms: C_14  and  C_15
REMARK    9  A    between atoms: N_17  and  C_18
REMARK   10  A    between atoms: C_19  and  C_27
REMARK                            x       y       z     vdW  Elec       q    Type
REMARK                         _______ _______ _______ _____ _____    ______ ____
ROOT
ATOM      1  C   UNL     1       6.033  -3.541  -4.482  0.00  0.00    +0.201 C 
ATOM      2  O   UNL     1       6.421  -3.185  -3.389  0.00  0.00    -0.278 OA
ATOM      3  N   UNL     1       6.878  -4.163  -5.327  0.00  0.00    -0.281 N 
ATOM      4  H   UNL     1       6.568  -4.448  -6.201  0.00  0.00    +0.155 HD
ENDROOT
BRANCH   3   5
ATOM      5  C   UNL     1       8.191  -4.397  -4.948  0.00  0.00    +0.084 A 
ATOM      6  C   UNL     1       9.194  -5.012  -5.681  0.00  0.00    +0.068 A 
ATOM      7  C   UNL     1      10.497  -5.136  -5.051  0.00  0.00    -0.023 A 
ATOM      8  C   UNL     1      10.559  -4.622  -3.804  0.00  0.00    -0.004 A 
ATOM      9  S   UNL     1       8.934  -3.993  -3.497  0.00  0.00    -0.077 S 
ATOM     10  C   UNL     1      11.752  -4.598  -2.899  0.00  0.00    +0.043 C 
ATOM     11  C   UNL     1      12.796  -5.579  -3.451  0.00  0.00    +0.005 C 
ATOM     12  C   UNL     1      12.967  -5.327  -4.952  0.00  0.00    +0.005 C 
ATOM     13  C   UNL     1      11.712  -5.779  -5.703  0.00  0.00    +0.037 C 
BRANCH   6  14
ATOM     14  C   UNL     1       8.949  -5.517  -7.036  0.00  0.00    +0.244 C 
ATOM     15  O   UNL     1       9.129  -4.792  -7.997  0.00  0.00    -0.270 OA
ATOM     16  N   UNL     1       8.525  -6.783  -7.217  0.00  0.00    -0.325 N 
ATOM     17  H   UNL     1       8.381  -7.361  -6.450  0.00  0.00    +0.145 HD
ATOM     18  H   UNL     1       8.363  -7.117  -8.113  0.00  0.00    +0.145 HD
ENDBRANCH   6  14
ENDBRANCH   3   5
BRANCH   1  19
ATOM     19  C   UNL     1       4.606  -3.287  -4.895  0.00  0.00    +0.020 C 
BRANCH  19  20
ATOM     20  N   UNL     1       3.934  -2.483  -3.865  0.00  0.00    +0.390 N 
ATOM     21  H   UNL     1       4.042  -2.930  -2.966  0.00  0.00    -0.080 HD
BRANCH  20  22
ATOM     22  C   UNL     1       4.534  -1.143  -3.821  0.00  0.00    -0.042 C 
BRANCH  22  26
ATOM     23  C   UNL     1       2.821   1.079  -0.598  0.00  0.00    +0.120 A 
ATOM     24  C   UNL     1       3.957   0.311  -0.386  0.00  0.00    +0.046 A 
ATOM     25  C   UNL     1       4.508  -0.407  -1.429  0.00  0.00    +0.005 A 
ATOM     26  C   UNL     1       3.930  -0.360  -2.684  0.00  0.00    -0.064 A 
ATOM     27  C   UNL     1       2.799   0.406  -2.898  0.00  0.00    +0.005 A 
ATOM     28  C   UNL     1       2.240   1.121  -1.857  0.00  0.00    +0.046 A 
BRANCH  23  30
ATOM     29  C   UNL     1       2.929   1.696   1.696  0.00  0.00    +0.277 C 
ATOM     30  O   UNL     1       2.277   1.786   0.427  0.00  0.00    -0.495 OA
ENDBRANCH  23  30
ENDBRANCH  22  26
ENDBRANCH  20  22
BRANCH  20  31
ATOM     31  C   UNL     1       2.505  -2.370  -4.187  0.00  0.00    -0.051 C 
BRANCH  31  32
ATOM     32  C   UNL     1       1.861  -3.729  -4.095  0.00  0.00    -0.053 C 
ATOM     33  C   UNL     1       0.811  -3.906  -3.331  0.00  0.00    +0.002 C 
ENDBRANCH  31  32
ENDBRANCH  20  31
ENDBRANCH  19  20
ENDBRANCH   1  19
TORSDOF 9
