REMARK  Name = ZINC09886519
REMARK  11 active torsions:
REMARK  status: ('A' for Active; 'I' for Inactive)
REMARK    1  A    between atoms: C_1  and  C_2
REMARK    2  A    between atoms: C_5  and  C_8
REMARK    3  A    between atoms: N_10  and  C_11
REMARK    4  A    between atoms: C_11  and  C_13
REMARK    5  A    between atoms: C_11  and  C_16
REMARK    6  A    between atoms: C_13  and  C_14
REMARK    7  A    between atoms: C_13  and  C_15
REMARK    8  A    between atoms: N_18  and  N_19
REMARK    9  A    between atoms: C_20  and  C_21
REMARK   10  A    between atoms: C_22  and  C_31
REMARK   11  A    between atoms: N_23  and  C_30
REMARK                            x       y       z     vdW  Elec       q    Type
REMARK                         _______ _______ _______ _____ _____    ______ ____
ROOT
ATOM      1  C   UNL     1      -0.479  -2.317  -1.058  0.00  0.00    +0.253 C 
ATOM      2  O   UNL     1       0.633  -2.405  -1.534  0.00  0.00    -0.272 OA
ATOM      3  N   UNL     1      -1.193  -3.431  -0.803  0.00  0.00    -0.205 N 
ATOM      4  H   UNL     1      -2.102  -3.360  -0.473  0.00  0.00    +0.177 HD
ENDROOT
BRANCH   3   5
ATOM      5  N   UNL     1      -0.622  -4.693  -1.015  0.00  0.00    -0.188 NA
ATOM      6  C   UNL     1      -1.291  -5.767  -0.721  0.00  0.00    +0.140 C 
BRANCH   6   7
ATOM      7  C   UNL     1      -2.694  -5.664  -0.288  0.00  0.00    +0.023 A 
ATOM      8  C   UNL     1      -3.235  -6.183   0.847  0.00  0.00    +0.025 A 
ATOM      9  N   UNL     1      -4.562  -5.878   0.905  0.00  0.00    -0.346 N 
ATOM     10  C   UNL     1      -4.934  -5.152  -0.206  0.00  0.00    +0.050 A 
ATOM     11  C   UNL     1      -3.788  -4.983  -1.002  0.00  0.00    +0.009 A 
ATOM     12  C   UNL     1      -3.869  -4.279  -2.201  0.00  0.00    +0.010 A 
ATOM     13  C   UNL     1      -5.077  -3.749  -2.601  0.00  0.00    +0.001 A 
ATOM     14  C   UNL     1      -6.209  -3.915  -1.816  0.00  0.00    +0.002 A 
ATOM     15  C   UNL     1      -6.144  -4.609  -0.628  0.00  0.00    +0.026 A 
ATOM     16  C   UNL     1      -5.465  -6.272   1.989  0.00  0.00    +0.149 C 
ATOM     17  C   UNL     1      -2.480  -6.973   1.885  0.00  0.00    +0.064 C 
ENDBRANCH   6   7
ENDBRANCH   3   5
BRANCH   1  18
ATOM     18  C   UNL     1      -1.062  -0.962  -0.751  0.00  0.00    +0.163 C 
BRANCH  18  21
ATOM     19  C   UNL     1      -0.820   1.263  -1.716  0.00  0.00    +0.245 C 
ATOM     20  O   UNL     1      -1.987   1.473  -1.450  0.00  0.00    -0.270 OA
ATOM     21  N   UNL     1      -0.263   0.074  -1.409  0.00  0.00    -0.300 N 
ATOM     22  H   UNL     1       0.668  -0.095  -1.624  0.00  0.00    +0.150 HD
BRANCH  19  27
ATOM     23  C   UNL     1       2.322   5.334  -4.298  0.00  0.00    +0.044 C 
ATOM     24  C   UNL     1       1.499   4.268  -3.622  0.00  0.00    -0.050 A 
ATOM     25  C   UNL     1       0.172   4.512  -3.317  0.00  0.00    +0.004 A 
ATOM     26  C   UNL     1      -0.587   3.540  -2.698  0.00  0.00    +0.013 A 
ATOM     27  C   UNL     1      -0.013   2.308  -2.380  0.00  0.00    +0.037 A 
ATOM     28  C   UNL     1       1.328   2.070  -2.685  0.00  0.00    +0.013 A 
ATOM     29  C   UNL     1       2.074   3.049  -3.309  0.00  0.00    +0.004 A 
ENDBRANCH  19  27
ENDBRANCH  18  21
BRANCH  18  30
ATOM     30  C   UNL     1      -1.050  -0.732   0.761  0.00  0.00    +0.012 C 
ATOM     31  C   UNL     1      -1.522   0.692   1.065  0.00  0.00    +0.009 C 
ATOM     32  C   UNL     1      -1.987  -1.734   1.437  0.00  0.00    +0.009 C 
ENDBRANCH  18  30
ENDBRANCH   1  18
TORSDOF 6
