REMARK  Name = ZINC64502578
REMARK  12 active torsions:
REMARK  status: ('A' for Active; 'I' for Inactive)
REMARK    1  A    between atoms: C_1  and  C_2
REMARK    2  A    between atoms: C_8  and  C_11
REMARK    3  A    between atoms: C_11  and  C_12
REMARK    4  A    between atoms: C_12  and  N_13
REMARK    5  A    between atoms: C_14  and  C_16
REMARK    6  A    between atoms: C_16  and  C_17
REMARK    7  A    between atoms: C_23  and  C_25
REMARK    8  A    between atoms: C_27  and  C_38
REMARK    9  A    between atoms: C_29  and  C_34
REMARK   10  A    between atoms: C_31  and  C_33
REMARK   11  A    between atoms: C_34  and  O_36
REMARK   12  A    between atoms: O_36  and  C_37
REMARK                            x       y       z     vdW  Elec       q    Type
REMARK                         _______ _______ _______ _____ _____    ______ ____
ROOT
ATOM      1  C   UNL     1      -3.913  -2.339   8.345  0.00  0.00    +0.001 C 
ATOM      2  C   UNL     1      -4.724  -1.195   7.733  0.00  0.00    +0.023 C 
ATOM      3  C   UNL     1      -6.177  -1.292   8.209  0.00  0.00    +0.108 C 
ATOM      4  N   UNL     1      -6.191  -1.324   9.678  0.00  0.00    -0.297 N 
ATOM      5  C   UNL     1      -5.373  -2.328  10.371  0.00  0.00    +0.108 C 
ATOM      6  C   UNL     1      -3.930  -2.219   9.870  0.00  0.00    +0.023 C 
ATOM      7  C   UNL     1      -6.941  -0.448  10.376  0.00  0.00    +0.261 C 
ATOM      8  O   UNL     1      -7.012  -0.538  11.585  0.00  0.00    -0.269 OA
ENDROOT
BRANCH   7   9
ATOM      9  C   UNL     1      -7.678   0.627   9.668  0.00  0.00    +0.101 C 
ATOM     10  N   UNL     1      -7.760   0.729   8.401  0.00  0.00    -0.279 NA
ATOM     11  C   UNL     1      -8.551   1.891   7.980  0.00  0.00    +0.117 C 
ATOM     12  C   UNL     1      -9.333   2.324   9.242  0.00  0.00    +0.130 C 
ATOM     13  C   UNL     1      -8.435   1.741  10.357  0.00  0.00    +0.055 C 
ATOM     14  C   UNL     1      -7.467   2.807  10.875  0.00  0.00    +0.015 C 
ATOM     15  C   UNL     1      -9.518   1.498   6.861  0.00  0.00    +0.033 C 
BRANCH  12  16
ATOM     16  C   UNL     1     -10.704   1.700   9.273  0.00  0.00    +0.313 C 
ATOM     17  O   UNL     1     -11.010   0.958  10.176  0.00  0.00    -0.250 OA
BRANCH  16  18
ATOM     18  O   UNL     1     -11.586   1.967   8.296  0.00  0.00    -0.468 OA
ATOM     19  C   UNL     1     -12.867   1.340   8.389  0.00  0.00    +0.280 C 
ENDBRANCH  16  18
ENDBRANCH  12  16
ENDBRANCH   7   9
BRANCH   1  20
ATOM     20  C   UNL     1      -2.469  -2.265   7.843  0.00  0.00    +0.099 C 
BRANCH  20  22
ATOM     21  N   UNL     1      -1.268  -2.488   5.693  0.00  0.00    -0.315 N 
ATOM     22  C   UNL     1      -2.441  -2.506   6.356  0.00  0.00    +0.213 C 
ATOM     23  O   UNL     1      -3.474  -2.716   5.756  0.00  0.00    -0.276 OA
ATOM     24  H   UNL     1      -0.442  -2.320   6.173  0.00  0.00    +0.149 HD
BRANCH  21  25
ATOM     25  C   UNL     1      -1.241  -2.722   4.247  0.00  0.00    +0.108 C 
BRANCH  25  26
ATOM     26  C   UNL     1       0.203  -2.648   3.745  0.00  0.00    +0.052 C 
BRANCH  26  34
ATOM     27  C   UNL     1       0.162   1.703   0.173  0.00  0.00    +0.044 C 
ATOM     28  C   UNL     1       0.196   0.196   0.145  0.00  0.00    -0.050 A 
ATOM     29  C   UNL     1       0.228  -0.463  -1.092  0.00  0.00    +0.005 A 
ATOM     30  C   UNL     1       0.259  -1.808  -1.201  0.00  0.00    +0.026 A 
ATOM     31  C   UNL     1       0.260  -2.623  -0.036  0.00  0.00    +0.043 A 
ATOM     32  N   UNL     1       0.285  -3.925   0.118  0.00  0.00    -0.380 N 
ATOM     33  C   UNL     1       0.270  -4.226   1.554  0.00  0.00    +0.144 C 
ATOM     34  C   UNL     1       0.231  -2.889   2.258  0.00  0.00    -0.040 C 
ATOM     35  C   UNL     1       0.226  -1.952   1.283  0.00  0.00    -0.001 A 
ATOM     36  C   UNL     1       0.199  -0.484   1.313  0.00  0.00    +0.013 A 
ATOM     37  H   UNL     1       0.310  -4.579  -0.598  0.00  0.00    +0.160 HD
ENDBRANCH  26  34
ENDBRANCH  25  26
ENDBRANCH  21  25
ENDBRANCH  20  22
ENDBRANCH   1  20
TORSDOF 8
