REMARK  Name = ZINC13063759
REMARK  12 active torsions:
REMARK  status: ('A' for Active; 'I' for Inactive)
REMARK    1  A    between atoms: C_1  and  C_2
REMARK    2  A    between atoms: C_2  and  C_3
REMARK    3  A    between atoms: C_10  and  C_15
REMARK    4  A    between atoms: C_15  and  N_72
REMARK    5  A    between atoms: C_16  and  N_72
REMARK    6  A    between atoms: C_21  and  C_23
REMARK    7  A    between atoms: C_21  and  C_25
REMARK    8  A    between atoms: C_21  and  N_72
REMARK    9  A    between atoms: C_23  and  C_24
REMARK   10  A    between atoms: N_29  and  C_30
REMARK   11  A    between atoms: C_30  and  C_31
REMARK   12  A    between atoms: C_31  and  C_32
REMARK                            x       y       z     vdW  Elec       q    Type
REMARK                         _______ _______ _______ _____ _____    ______ ____
ROOT
ATOM      1  N   UNL     1       1.742   3.636   1.261  0.00  0.00    +0.391 N 
ATOM      2  H   UNL     1       0.883   3.202   1.618  0.00  0.00    -0.080 HD
ENDROOT
BRANCH   1   3
ATOM      3  C   UNL     1       2.886   3.182   2.080  0.00  0.00    -0.067 C 
ATOM      4  C   UNL     1       2.804   1.653   2.267  0.00  0.00    -0.015 C 
ATOM      5  C   UNL     1       3.277   1.424   3.725  0.00  0.00    -0.002 C 
ATOM      6  C   UNL     1       2.664   2.631   4.478  0.00  0.00    -0.002 C 
ATOM      7  C   UNL     1       2.797   3.804   3.484  0.00  0.00    -0.015 C 
ENDBRANCH   1   3
BRANCH   1   8
ATOM      8  C   UNL     1       1.936   3.231  -0.147  0.00  0.00    -0.036 C 
BRANCH   8  16
ATOM      9  C   UNL     1      -1.623  -1.812  -0.592  0.00  0.00    -0.047 A 
ATOM     10  C   UNL     1      -0.584  -2.727  -0.691  0.00  0.00    +0.005 A 
ATOM     11  C   UNL     1       0.729  -2.308  -0.664  0.00  0.00    +0.026 A 
ATOM     12  C   UNL     1       1.018  -0.953  -0.537  0.00  0.00    +0.049 A 
ATOM     13  C   UNL     1      -0.039  -0.027  -0.437  0.00  0.00    -0.001 A 
ATOM     14  C   UNL     1      -1.363  -0.476  -0.467  0.00  0.00    +0.013 A 
ATOM     15  C   UNL     1       0.276   1.396  -0.304  0.00  0.00    +0.017 A 
ATOM     16  C   UNL     1       1.578   1.773  -0.282  0.00  0.00    +0.001 A 
ATOM     17  C   UNL     1       2.600   0.805  -0.386  0.00  0.00    +0.251 A 
ATOM     18  O   UNL     1       3.764   1.165  -0.365  0.00  0.00    -0.268 OA
ATOM     19  N   UNL     1       2.321  -0.505  -0.509  0.00  0.00    -0.322 N 
ATOM     20  H   UNL     1       3.048  -1.144  -0.577  0.00  0.00    +0.169 HD
BRANCH   9  22
ATOM     21  C   UNL     1      -3.548  -2.321  -2.069  0.00  0.00    +0.009 C 
ATOM     22  C   UNL     1      -3.050  -2.295  -0.623  0.00  0.00    +0.032 C 
ENDBRANCH   9  22
ENDBRANCH   8  16
ENDBRANCH   1   8
BRANCH   1  23
ATOM     23  C   UNL     1       1.609   5.106   1.350  0.00  0.00    +0.003 C 
BRANCH  23  24
ATOM     24  C   UNL     1       2.821   5.782   0.762  0.00  0.00    +0.138 A 
ATOM     25  N   UNL     1       3.679   5.258  -0.078  0.00  0.00    -0.115 NA
ATOM     26  N   UNL     1       4.570   6.150  -0.346  0.00  0.00    -0.023 NA
ATOM     27  N   UNL     1       4.306   7.227   0.308  0.00  0.00    -0.044 NA
ATOM     28  N   UNL     1       3.235   7.040   1.003  0.00  0.00    -0.231 N 
BRANCH  28  29
ATOM     29  C   UNL     1       2.590   8.014   1.887  0.00  0.00    +0.152 C 
BRANCH  29  30
ATOM     30  C   UNL     1       3.031   7.762   3.330  0.00  0.00    +0.058 C 
BRANCH  30  31
ATOM     31  C   UNL     1       2.389   8.781   4.237  0.00  0.00    -0.046 A 
ATOM     32  C   UNL     1       3.032   9.976   4.499  0.00  0.00    +0.004 A 
ATOM     33  C   UNL     1       2.440  10.912   5.326  0.00  0.00    +0.000 A 
ATOM     34  C   UNL     1       1.211  10.649   5.900  0.00  0.00    +0.000 A 
ATOM     35  C   UNL     1       0.570   9.451   5.643  0.00  0.00    +0.000 A 
ATOM     36  C   UNL     1       1.159   8.517   4.811  0.00  0.00    +0.004 A 
ENDBRANCH  30  31
ENDBRANCH  29  30
ENDBRANCH  28  29
ENDBRANCH  23  24
BRANCH  23  37
ATOM     37  C   UNL     1       0.360   5.538   0.580  0.00  0.00    -0.011 C 
ATOM     38  C   UNL     1      -0.870   4.854   1.179  0.00  0.00    +0.002 C 
ENDBRANCH  23  37
ENDBRANCH   1  23
TORSDOF 10
