REMARK  Name = ZINC02245907
REMARK  6 active torsions:
REMARK  status: ('A' for Active; 'I' for Inactive)
REMARK    1  A    between atoms: C_1  and  O_2
REMARK    2  A    between atoms: O_2  and  C_3
REMARK    3  A    between atoms: C_6  and  C_11
REMARK    4  A    between atoms: C_8  and  O_9
REMARK    5  A    between atoms: O_9  and  C_10
REMARK    6  A    between atoms: C_28  and  C_30
REMARK                            x       y       z     vdW  Elec       q    Type
REMARK                         _______ _______ _______ _____ _____    ______ ____
ROOT
ATOM      1  C   UNL     1      -5.066  -2.048   0.511  0.00  0.00    +0.234 C 
ATOM      2  C   UNL     1      -5.481  -2.266   1.937  0.00  0.00    +0.028 C 
ATOM      3  C   UNL     1      -6.160  -1.313   2.608  0.00  0.00    +0.083 C 
ATOM      4  C   UNL     1      -6.484  -0.060   1.881  0.00  0.00    +0.042 A 
ATOM      5  C   UNL     1      -6.879   1.088   2.552  0.00  0.00    +0.013 A 
ATOM      6  C   UNL     1      -7.168   2.233   1.834  0.00  0.00    +0.001 A 
ATOM      7  C   UNL     1      -7.065   2.235   0.454  0.00  0.00    +0.004 A 
ATOM      8  C   UNL     1      -6.672   1.094  -0.222  0.00  0.00    +0.046 A 
ATOM      9  C   UNL     1      -6.380  -0.060   0.484  0.00  0.00    +0.131 A 
ATOM     10  O   UNL     1      -6.000  -1.193  -0.151  0.00  0.00    -0.479 OA
ATOM     11  N   UNL     1      -6.535  -1.493   3.899  0.00  0.00    -0.216 NA
ATOM     12  C   UNL     1      -6.290  -2.581   4.594  0.00  0.00    +0.209 C 
ATOM     13  N   UNL     1      -6.592  -2.932   5.884  0.00  0.00    -0.275 N 
ATOM     14  C   UNL     1      -6.104  -4.196   6.111  0.00  0.00    +0.208 C 
ATOM     15  N   UNL     1      -5.524  -4.629   5.038  0.00  0.00    -0.169 NA
ATOM     16  N   UNL     1      -5.617  -3.640   4.057  0.00  0.00    -0.182 N 
ATOM     17  C   UNL     1      -5.156  -3.552   2.664  0.00  0.00    +0.166 C 
ATOM     18  H   UNL     1      -7.069  -2.382   6.526  0.00  0.00    +0.156 HD
ENDROOT
BRANCH  17  19
ATOM     19  C   UNL     1      -3.660  -3.733   2.652  0.00  0.00    +0.014 A 
ATOM     20  C   UNL     1      -2.891  -3.198   3.668  0.00  0.00    +0.009 A 
ATOM     21  C   UNL     1      -1.519  -3.364   3.657  0.00  0.00    +0.001 A 
ATOM     22  C   UNL     1      -0.914  -4.065   2.630  0.00  0.00    +0.003 A 
ATOM     23  C   UNL     1      -1.681  -4.601   1.613  0.00  0.00    +0.039 A 
ATOM     24  C   UNL     1      -3.056  -4.440   1.626  0.00  0.00    +0.129 A 
ATOM     25  F   UNL     1      -3.808  -4.968   0.635  0.00  0.00    -0.205 F 
ENDBRANCH  17  19
BRANCH   1  29
ATOM     26  C   UNL     1      -1.188  -0.247   0.425  0.00  0.00    +0.162 A 
ATOM     27  C   UNL     1      -1.365  -1.542  -0.035  0.00  0.00    +0.050 A 
ATOM     28  C   UNL     1      -2.619  -2.122  -0.006  0.00  0.00    +0.011 A 
ATOM     29  C   UNL     1      -3.701  -1.412   0.482  0.00  0.00    +0.001 A 
ATOM     30  C   UNL     1      -3.532  -0.119   0.942  0.00  0.00    +0.057 A 
ATOM     31  C   UNL     1      -2.276   0.466   0.921  0.00  0.00    +0.162 A 
BRANCH  26  33
ATOM     32  C   UNL     1       1.115  -0.466  -0.126  0.00  0.00    +0.277 C 
ATOM     33  O   UNL     1       0.045   0.324   0.397  0.00  0.00    -0.491 OA
ENDBRANCH  26  33
BRANCH  31  34
ATOM     34  O   UNL     1      -2.107   1.735   1.379  0.00  0.00    -0.491 OA
ATOM     35  C   UNL     1      -3.244   2.368   1.968  0.00  0.00    +0.277 C 
ENDBRANCH  31  34
ENDBRANCH   1  29
TORSDOF 4
