REMARK  Name = ZINC20680058
REMARK  7 active torsions:
REMARK  status: ('A' for Active; 'I' for Inactive)
REMARK    1  A    between atoms: C_4  and  O_7
REMARK    2  A    between atoms: O_7  and  C_8
REMARK    3  A    between atoms: C_8  and  C_9
REMARK    4  A    between atoms: C_9  and  O_10
REMARK    5  A    between atoms: O_10  and  C_11
REMARK    6  A    between atoms: C_24  and  C_27
REMARK    7  A    between atoms: C_30  and  O_33
REMARK                            x       y       z     vdW  Elec       q    Type
REMARK                         _______ _______ _______ _____ _____    ______ ____
ROOT
ATOM      1  C   UNL     1       4.950   5.438  -0.192  0.00  0.00    +0.121 A 
ATOM      2  C   UNL     1       4.928   4.961  -1.495  0.00  0.00    +0.047 A 
ATOM      3  C   UNL     1       4.409   3.708  -1.754  0.00  0.00    +0.027 A 
ATOM      4  C   UNL     1       3.912   2.931  -0.716  0.00  0.00    +0.032 A 
ATOM      5  C   UNL     1       3.932   3.401   0.588  0.00  0.00    -0.016 A 
ATOM      6  C   UNL     1       4.455   4.662   0.841  0.00  0.00    +0.051 A 
ATOM      7  C   UNL     1       3.411   2.597   1.737  0.00  0.00    +0.049 C 
ATOM      8  C   UNL     1       2.074   3.114   2.211  0.00  0.00    -0.023 C 
ATOM      9  C   UNL     1       1.309   2.117   2.586  0.00  0.00    -0.030 C 
ATOM     10  C   UNL     1       2.036   0.797   2.417  0.00  0.00    +0.033 C 
ATOM     11  C   UNL     1       3.140   1.125   1.368  0.00  0.00    +0.029 C 
ATOM     12  C   UNL     1       2.490   1.045  -0.016  0.00  0.00    +0.105 C 
ATOM     13  N   UNL     1       3.387   1.662  -0.999  0.00  0.00    -0.336 N 
ATOM     14  H   UNL     1       3.632   1.130  -1.929  0.00  0.00    +0.147 HD
ENDROOT
BRANCH  12  15
ATOM     15  C   UNL     1       1.176   1.783   0.000  0.00  0.00    -0.027 A 
ATOM     16  C   UNL     1       0.011   1.110   0.319  0.00  0.00    +0.009 A 
ATOM     17  C   UNL     1      -1.196   1.783   0.330  0.00  0.00    +0.046 A 
ATOM     18  C   UNL     1      -1.237   3.137   0.031  0.00  0.00    +0.117 A 
ATOM     19  C   UNL     1      -0.066   3.810  -0.288  0.00  0.00    +0.046 A 
ATOM     20  C   UNL     1       1.137   3.131  -0.303  0.00  0.00    +0.009 A 
BRANCH  18  21
ATOM     21  O   UNL     1      -2.422   3.802   0.045  0.00  0.00    -0.507 OA
ATOM     22  H   UNL     1      -2.453   4.875  -0.192  0.00  0.00    +0.292 HD
ENDBRANCH  18  21
ENDBRANCH  12  15
BRANCH   1  23
ATOM     23  O   UNL     1       5.460   6.671   0.070  0.00  0.00    -0.489 OA
BRANCH  23  24
ATOM     24  C   UNL     1       5.954   7.419  -1.043  0.00  0.00    +0.270 C 
BRANCH  24  25
ATOM     25  C   UNL     1       6.483   8.769  -0.556  0.00  0.00    +0.270 C 
BRANCH  25  26
ATOM     26  O   UNL     1       7.614   8.560   0.291  0.00  0.00    -0.489 OA
BRANCH  26  30
ATOM     27  C   UNL     1       9.416  11.917   1.872  0.00  0.00    +0.000 A 
ATOM     28  C   UNL     1       9.913  10.662   2.170  0.00  0.00    +0.004 A 
ATOM     29  C   UNL     1       9.312   9.536   1.642  0.00  0.00    +0.045 A 
ATOM     30  C   UNL     1       8.208   9.666   0.812  0.00  0.00    +0.121 A 
ATOM     31  C   UNL     1       7.715  10.927   0.509  0.00  0.00    +0.045 A 
ATOM     32  C   UNL     1       8.316  12.049   1.045  0.00  0.00    +0.004 A 
ENDBRANCH  26  30
ENDBRANCH  25  26
ENDBRANCH  24  25
ENDBRANCH  23  24
ENDBRANCH   1  23
TORSDOF 7
