REMARK  Name = ZINC06161841
REMARK  5 active torsions:
REMARK  status: ('A' for Active; 'I' for Inactive)
REMARK    1  A    between atoms: C_3  and  C_8
REMARK    2  A    between atoms: C_8  and  N_9
REMARK    3  A    between atoms: C_14  and  C_16
REMARK    4  A    between atoms: N_21  and  S_23
REMARK    5  A    between atoms: S_23  and  C_26
REMARK                            x       y       z     vdW  Elec       q    Type
REMARK                         _______ _______ _______ _____ _____    ______ ____
ROOT
ATOM      1  N   UNL     1       4.104   2.427   1.357  0.00  0.00    -0.222 N 
ATOM      2  C   UNL     1       3.780   3.498   2.135  0.00  0.00    +0.186 A 
ATOM      3  C   UNL     1       4.421   3.293   3.363  0.00  0.00    +0.195 A 
ATOM      4  C   UNL     1       4.242   4.308   4.404  0.00  0.00    +0.281 A 
ATOM      5  N   UNL     1       3.468   5.378   4.111  0.00  0.00    -0.309 N 
ATOM      6  C   UNL     1       2.886   5.488   2.890  0.00  0.00    +0.117 A 
ATOM      7  N   UNL     1       3.035   4.597   1.954  0.00  0.00    -0.213 NA
ATOM      8  O   UNL     1       4.771   4.193   5.496  0.00  0.00    -0.265 OA
ATOM      9  N   UNL     1       5.096   2.137   3.293  0.00  0.00    -0.122 NA
ATOM     10  N   UNL     1       4.928   1.599   2.135  0.00  0.00    -0.063 NA
ATOM     11  H   UNL     1       3.327   6.069   4.777  0.00  0.00    +0.170 HD
ENDROOT
BRANCH   6  12
ATOM     12  C   UNL     1       2.031   6.696   2.607  0.00  0.00    +0.071 C 
ATOM     13  C   UNL     1       2.919   7.852   2.139  0.00  0.00    +0.014 C 
ATOM     14  C   UNL     1       2.055   9.089   1.881  0.00  0.00    +0.018 C 
ATOM     15  C   UNL     1       1.042   8.778   0.775  0.00  0.00    +0.109 C 
ATOM     16  N   UNL     1       0.281   7.580   1.153  0.00  0.00    -0.176 NA
ATOM     17  C   UNL     1       1.017   6.359   1.509  0.00  0.00    +0.120 C 
BRANCH  16  18
ATOM     18  S   UNL     1      -1.374   7.603   1.178  0.00  0.00    +0.061 S 
ATOM     19  O   UNL     1      -1.782   6.577   2.072  0.00  0.00    -0.153 OA
ATOM     20  O   UNL     1      -1.758   8.961   1.350  0.00  0.00    -0.153 OA
BRANCH  18  21
ATOM     21  C   UNL     1      -1.926   7.123  -0.425  0.00  0.00    +0.107 A 
ATOM     22  C   UNL     1      -2.126   8.080  -1.403  0.00  0.00    +0.028 A 
ATOM     23  C   UNL     1      -2.559   7.704  -2.660  0.00  0.00    +0.003 A 
ATOM     24  C   UNL     1      -2.793   6.371  -2.941  0.00  0.00    +0.020 A 
ATOM     25  C   UNL     1      -2.594   5.413  -1.963  0.00  0.00    +0.043 A 
ATOM     26  C   UNL     1      -2.154   5.790  -0.706  0.00  0.00    +0.048 A 
ATOM     27 CL   UNL     1      -2.887   3.739  -2.315  0.00  0.00    -0.083 Cl
ENDBRANCH  18  21
ENDBRANCH  16  18
ENDBRANCH   6  12
BRANCH   1  28
ATOM     28  C   UNL     1       3.672   2.184  -0.021  0.00  0.00    +0.182 C 
BRANCH  28  31
ATOM     29  C   UNL     1      -0.017   1.378   0.010  0.00  0.00    +0.002 A 
ATOM     30  C   UNL     1       1.171   2.086   0.002  0.00  0.00    +0.005 A 
ATOM     31  C   UNL     1       2.378   1.412  -0.013  0.00  0.00    -0.025 A 
ATOM     32  C   UNL     1       2.398   0.029  -0.021  0.00  0.00    +0.025 A 
ATOM     33  C   UNL     1       1.210  -0.679  -0.013  0.00  0.00    +0.041 A 
ATOM     34  C   UNL     1       0.002  -0.004   0.002  0.00  0.00    +0.020 A 
ATOM     35 CL   UNL     1       1.234  -2.415  -0.024  0.00  0.00    -0.084 Cl
ENDBRANCH  28  31
ENDBRANCH   1  28
TORSDOF 5
