REMARK  Name = ZINC63073028
REMARK  3 active torsions:
REMARK  status: ('A' for Active; 'I' for Inactive)
REMARK    1  A    between atoms: C_1  and  C_2
REMARK    2  A    between atoms: C_2  and  C_20
REMARK    3  A    between atoms: C_9  and  C_17
REMARK                            x       y       z     vdW  Elec       q    Type
REMARK                         _______ _______ _______ _____ _____    ______ ____
ROOT
ATOM      1  C   UNL     1       0.424  -2.808   1.936  0.00  0.00    +0.031 C 
ATOM      2  C   UNL     1      -0.157  -1.392   1.924  0.00  0.00    +0.031 C 
ATOM      3  C   UNL     1      -1.524  -1.392   1.209  0.00  0.00    +0.027 C 
ATOM      4  C   UNL     1      -1.503  -0.057   0.418  0.00  0.00    +0.021 C 
ATOM      5  C   UNL     1      -0.011   0.040   0.012  0.00  0.00    +0.107 C 
ATOM      6  N   UNL     1       0.730  -0.494   1.169  0.00  0.00    -0.311 N 
ATOM      7  C   UNL     1       2.046  -0.198   1.493  0.00  0.00    +0.100 A 
ATOM      8  C   UNL     1       2.754   0.707   0.688  0.00  0.00    +0.057 A 
ATOM      9  C   UNL     1       4.071   1.011   1.002  0.00  0.00    +0.075 A 
ATOM     10  C   UNL     1       4.651   0.356   2.175  0.00  0.00    +0.013 A 
ATOM     11  C   UNL     1       5.971   0.599   2.571  0.00  0.00    +0.011 A 
ATOM     12  C   UNL     1       6.471  -0.033   3.671  0.00  0.00    +0.001 A 
ATOM     13  C   UNL     1       5.684  -0.917   4.405  0.00  0.00    +0.002 A 
ATOM     14  C   UNL     1       4.396  -1.175   4.047  0.00  0.00    +0.026 A 
ATOM     15  C   UNL     1       3.846  -0.542   2.918  0.00  0.00    +0.049 A 
ATOM     16  N   UNL     1       2.584  -0.772   2.546  0.00  0.00    -0.343 N 
ATOM     17  C   UNL     1      -0.316  -0.883   3.358  0.00  0.00    +0.031 C 
ATOM     18  H   UNL     1       2.046  -1.387   3.069  0.00  0.00    +0.167 HD
ENDROOT
BRANCH   9  19
ATOM     19  C   UNL     1       4.856   1.958   0.184  0.00  0.00    +0.387 C 
ATOM     20  O   UNL     1       4.316   2.576  -0.722  0.00  0.00    -0.241 OA
ATOM     21  O   UNL     1       6.046   2.122   0.412  0.00  0.00    -0.241 OA
ENDBRANCH   9  19
TORSDOF 1
