REMARK  Name = ZINC14066595
REMARK  12 active torsions:
REMARK  status: ('A' for Active; 'I' for Inactive)
REMARK    1  A    between atoms: C_1  and  C_2
REMARK    2  A    between atoms: C_2  and  C_4
REMARK    3  A    between atoms: C_2  and  N_63
REMARK    4  A    between atoms: C_7  and  S_10
REMARK    5  A    between atoms: S_10  and  N_13
REMARK    6  A    between atoms: C_14  and  N_63
REMARK    7  A    between atoms: C_15  and  C_16
REMARK    8  A    between atoms: C_15  and  N_63
REMARK    9  A    between atoms: C_19  and  C_32
REMARK   10  A    between atoms: C_22  and  C_24
REMARK   11  A    between atoms: C_27  and  O_30
REMARK   12  A    between atoms: O_30  and  C_31
REMARK                            x       y       z     vdW  Elec       q    Type
REMARK                         _______ _______ _______ _____ _____    ______ ____
ROOT
ATOM      1  C   UNL     1      -5.796   1.751  -1.595  0.00  0.00    +0.219 C 
ATOM      2  O   UNL     1      -5.501   2.841  -2.038  0.00  0.00    -0.276 OA
ATOM      3  N   UNL     1      -7.052   1.284  -1.738  0.00  0.00    -0.184 N 
ATOM      4  C   UNL     1      -8.157   1.990  -2.405  0.00  0.00    +0.172 C 
ATOM      5  C   UNL     1      -9.341   1.011  -2.278  0.00  0.00    +0.090 C 
ATOM      6  C   UNL     1      -8.759  -0.170  -1.533  0.00  0.00    +0.069 C 
ATOM      7  N   UNL     1      -7.515   0.051  -1.282  0.00  0.00    -0.181 NA
ENDROOT
BRANCH   6   8
ATOM      8  C   UNL     1      -9.499  -1.388  -1.158  0.00  0.00    -0.002 A 
ATOM      9  C   UNL     1     -10.852  -1.515  -1.487  0.00  0.00    +0.013 A 
ATOM     10  C   UNL     1     -11.538  -2.658  -1.139  0.00  0.00    +0.046 A 
ATOM     11  C   UNL     1     -10.891  -3.678  -0.453  0.00  0.00    +0.120 A 
ATOM     12  C   UNL     1      -9.549  -3.554  -0.119  0.00  0.00    +0.046 A 
ATOM     13  C   UNL     1      -8.852  -2.417  -0.468  0.00  0.00    +0.013 A 
BRANCH  11  14
ATOM     14  O   UNL     1     -11.573  -4.801  -0.107  0.00  0.00    -0.495 OA
ATOM     15  C   UNL     1     -12.951  -4.864  -0.481  0.00  0.00    +0.277 C 
ENDBRANCH  11  14
ENDBRANCH   6   8
BRANCH   4  16
ATOM     16  C   UNL     1      -7.829   2.238  -3.855  0.00  0.00    +0.128 A 
ATOM     17  C   UNL     1      -8.131   3.349  -4.551  0.00  0.00    +0.046 A 
ATOM     18  C   UNL     1      -7.640   3.157  -5.863  0.00  0.00    +0.041 A 
ATOM     19  C   UNL     1      -7.067   1.940  -5.890  0.00  0.00    +0.195 A 
ATOM     20  O   UNL     1      -7.179   1.391  -4.670  0.00  0.00    -0.466 OA
ENDBRANCH   4  16
BRANCH   1  21
ATOM     21  C   UNL     1      -4.759   0.920  -0.886  0.00  0.00    +0.021 C 
BRANCH  21  23
ATOM     22  C   UNL     1      -2.939   1.799  -2.219  0.00  0.00    -0.095 C 
ATOM     23  N   UNL     1      -3.486   1.671  -0.852  0.00  0.00    +0.388 N 
ATOM     24  H   UNL     1      -3.663   2.610  -0.475  0.00  0.00    -0.081 HD
BRANCH  23  26
ATOM     25  C   UNL     1      -3.073   0.926   1.442  0.00  0.00    -0.008 C 
ATOM     26  C   UNL     1      -2.514   0.980   0.019  0.00  0.00    -0.041 C 
BRANCH  26  27
ATOM     27  C   UNL     1      -1.219   1.751   0.017  0.00  0.00    -0.061 A 
ATOM     28  C   UNL     1      -0.013   1.076   0.008  0.00  0.00    +0.004 A 
ATOM     29  C   UNL     1       1.175   1.783   0.000  0.00  0.00    +0.029 A 
ATOM     30  C   UNL     1       1.156   3.165   0.008  0.00  0.00    +0.105 A 
ATOM     31  C   UNL     1      -0.050   3.840   0.022  0.00  0.00    +0.029 A 
ATOM     32  C   UNL     1      -1.238   3.133   0.029  0.00  0.00    +0.004 A 
BRANCH  30  33
ATOM     33  S   UNL     1       2.670   4.067  -0.001  0.00  0.00    +0.056 S 
ATOM     34  O   UNL     1       2.387   5.342   0.559  0.00  0.00    -0.153 OA
ATOM     35  O   UNL     1       3.661   3.202   0.536  0.00  0.00    -0.153 OA
BRANCH  33  36
ATOM     36  N   UNL     1       3.076   4.326  -1.585  0.00  0.00    -0.204 NA
ATOM     37  H   UNL     1       2.503   3.993  -2.294  0.00  0.00    +0.144 HD
ATOM     38  H   UNL     1       3.887   4.811  -1.805  0.00  0.00    +0.144 HD
ENDBRANCH  33  36
ENDBRANCH  30  33
ENDBRANCH  26  27
ENDBRANCH  23  26
ENDBRANCH  21  23
ENDBRANCH   1  21
TORSDOF 9
