REMARK  Name = ZINC39669036
REMARK  4 active torsions:
REMARK  status: ('A' for Active; 'I' for Inactive)
REMARK    1  A    between atoms: C_10  and  C_12
REMARK    2  A    between atoms: C_12  and  N_13
REMARK    3  A    between atoms: C_14  and  C_16
REMARK    4  A    between atoms: C_27  and  C_29
REMARK                            x       y       z     vdW  Elec       q    Type
REMARK                         _______ _______ _______ _____ _____    ______ ____
ROOT
ATOM      1  C   UNL     1       8.878  -0.660   1.114  0.00  0.00    +0.100 C 
ATOM      2  C   UNL     1       8.620  -2.078   1.673  0.00  0.00    +0.121 C 
ATOM      3  N   UNL     1       9.782  -2.350   2.551  0.00  0.00    -0.296 N 
ATOM      4  C   UNL     1      10.042  -1.059   3.231  0.00  0.00    +0.115 C 
ATOM      5  C   UNL     1       9.811   0.005   2.140  0.00  0.00    -0.004 C 
ATOM      6  C   UNL     1       9.142   1.239   2.740  0.00  0.00    -0.010 C 
ATOM      7  C   UNL     1      10.111   1.916   3.713  0.00  0.00    -0.082 C 
ATOM      8  N   UNL     1      11.337   2.297   3.000  0.00  0.00    +0.379 N 
ATOM      9  C   UNL     1      12.022   1.097   2.507  0.00  0.00    -0.082 C 
ATOM     10  C   UNL     1      11.134   0.384   1.482  0.00  0.00    -0.010 C 
ATOM     11  C   UNL     1      10.452  -3.511   2.699  0.00  0.00    +0.248 C 
ATOM     12  O   UNL     1      11.330  -3.604   3.534  0.00  0.00    -0.270 OA
ATOM     13  H   UNL     1      11.100   2.892   2.221  0.00  0.00    -0.086 HD
ATOM     14  H   UNL     1      11.948   2.797   3.629  0.00  0.00    -0.086 HD
ENDROOT
BRANCH  11  15
ATOM     15  C   UNL     1      10.118  -4.670   1.845  0.00  0.00    +0.057 A 
ATOM     16  C   UNL     1       8.796  -4.901   1.461  0.00  0.00    +0.014 A 
ATOM     17  C   UNL     1       8.491  -5.984   0.664  0.00  0.00    +0.002 A 
ATOM     18  C   UNL     1       9.491  -6.843   0.243  0.00  0.00    +0.021 A 
ATOM     19  C   UNL     1      10.805  -6.622   0.619  0.00  0.00    +0.060 A 
ATOM     20  C   UNL     1      11.126  -5.536   1.413  0.00  0.00    +0.071 A 
ATOM     21 CL   UNL     1      12.774  -5.254   1.878  0.00  0.00    -0.081 Cl
ATOM     22 CL   UNL     1      12.052  -7.705   0.087  0.00  0.00    -0.082 Cl
ENDBRANCH  11  15
BRANCH   1  24
ATOM     23  N   UNL     1       7.442   1.060   0.067  0.00  0.00    -0.312 N 
ATOM     24  C   UNL     1       7.584   0.105   1.007  0.00  0.00    +0.218 C 
ATOM     25  O   UNL     1       6.671  -0.139   1.768  0.00  0.00    -0.275 OA
ATOM     26  H   UNL     1       8.172   1.255  -0.541  0.00  0.00    +0.149 HD
BRANCH  23  27
ATOM     27  C   UNL     1       6.184   1.804  -0.036  0.00  0.00    +0.140 C 
BRANCH  27  37
ATOM     28  C   UNL     1       2.759   5.238  -1.175  0.00  0.00    +0.000 A 
ATOM     29  C   UNL     1       3.396   4.927   0.012  0.00  0.00    +0.000 A 
ATOM     30  C   UNL     1       4.533   4.144  -0.002  0.00  0.00    +0.006 A 
ATOM     31  C   UNL     1       5.039   3.667  -1.201  0.00  0.00    -0.014 A 
ATOM     32  C   UNL     1       4.401   3.974  -2.385  0.00  0.00    -0.040 A 
ATOM     33  C   UNL     1       3.261   4.763  -2.370  0.00  0.00    +0.004 A 
ATOM     34  C   UNL     1       4.913   3.464  -3.707  0.00  0.00    +0.063 C 
ATOM     35  C   UNL     1       6.360   2.991  -3.554  0.00  0.00    +0.165 C 
ATOM     36  O   UNL     1       6.438   2.128  -2.414  0.00  0.00    -0.370 OA
ATOM     37  C   UNL     1       6.285   2.820  -1.176  0.00  0.00    +0.165 C 
ENDBRANCH  27  37
ENDBRANCH  23  27
ENDBRANCH   1  24
TORSDOF 4
