REMARK  Name = ZINC16363661
REMARK  10 active torsions:
REMARK  status: ('A' for Active; 'I' for Inactive)
REMARK    1  A    between atoms: C_1  and  N_2
REMARK    2  A    between atoms: C_3  and  S_7
REMARK    3  A    between atoms: S_7  and  C_8
REMARK    4  A    between atoms: C_8  and  C_9
REMARK    5  A    between atoms: C_9  and  N_45
REMARK    6  A    between atoms: C_10  and  C_11
REMARK    7  A    between atoms: C_10  and  N_45
REMARK    8  A    between atoms: C_16  and  O_17
REMARK    9  A    between atoms: O_17  and  C_18
REMARK   10  A    between atoms: C_18  and  C_19
REMARK                            x       y       z     vdW  Elec       q    Type
REMARK                         _______ _______ _______ _____ _____    ______ ____
ROOT
ATOM      1  C   UNL     1       2.125   0.993   1.166  0.00  0.00    -0.022 A 
ATOM      2  C   UNL     1       2.289   1.750   2.309  0.00  0.00    +0.020 A 
ATOM      3  C   UNL     1       2.998   1.240   3.382  0.00  0.00    +0.018 A 
ATOM      4  C   UNL     1       3.543  -0.030   3.312  0.00  0.00    +0.019 A 
ATOM      5  C   UNL     1       3.381  -0.790   2.170  0.00  0.00    +0.047 A 
ATOM      6  C   UNL     1       2.665  -0.282   1.096  0.00  0.00    +0.122 A 
ATOM      7 BR   UNL     1       3.221   2.278   4.947  0.00  0.00    -0.050 Br
ENDROOT
BRANCH   1   8
ATOM      8  C   UNL     1       1.353   1.550  -0.003  0.00  0.00    -0.043 C 
BRANCH   8   9
ATOM      9  N   UNL     1      -0.015   0.998   0.015  0.00  0.00    +0.382 N 
ATOM     10  H   UNL     1       0.032  -0.025  -0.054  0.00  0.00    -0.085 HD
ATOM     11  H   UNL     1      -0.475   1.261   0.894  0.00  0.00    -0.085 HD
BRANCH   9  12
ATOM     12  C   UNL     1      -0.795   1.527  -1.120  0.00  0.00    -0.071 C 
BRANCH  12  13
ATOM     13  C   UNL     1      -2.207   0.938  -1.076  0.00  0.00    +0.058 C 
BRANCH  13  14
ATOM     14  S   UNL     1      -3.173   1.581  -2.465  0.00  0.00    -0.086 S 
BRANCH  14  17
ATOM     15  C   UNL     1      -6.025   1.694  -4.120  0.00  0.00    +0.177 C 
ATOM     16  N   UNL     1      -5.831   0.877  -2.921  0.00  0.00    -0.223 N 
ATOM     17  C   UNL     1      -4.707   0.764  -2.175  0.00  0.00    +0.209 A 
ATOM     18  N   UNL     1      -4.976  -0.067  -1.192  0.00  0.00    -0.102 NA
ATOM     19  N   UNL     1      -6.188  -0.484  -1.275  0.00  0.00    -0.022 NA
ATOM     20  N   UNL     1      -6.773   0.039  -2.297  0.00  0.00    -0.043 NA
ENDBRANCH  14  17
ENDBRANCH  13  14
ENDBRANCH  12  13
ENDBRANCH   9  12
ENDBRANCH   8   9
ENDBRANCH   1   8
BRANCH   6  21
ATOM     21  O   UNL     1       2.499  -1.031  -0.026  0.00  0.00    -0.487 OA
BRANCH  21  22
ATOM     22  C   UNL     1       3.084  -2.335  -0.028  0.00  0.00    +0.266 C 
BRANCH  22  23
ATOM     23  C   UNL     1       2.799  -3.011  -1.345  0.00  0.00    +0.008 A 
ATOM     24  C   UNL     1       2.068  -2.353  -2.316  0.00  0.00    +0.010 A 
ATOM     25  C   UNL     1       1.807  -2.972  -3.524  0.00  0.00    +0.020 A 
ATOM     26  C   UNL     1       2.276  -4.252  -3.761  0.00  0.00    +0.042 A 
ATOM     27  C   UNL     1       3.006  -4.912  -2.789  0.00  0.00    +0.040 A 
ATOM     28  C   UNL     1       3.272  -4.289  -1.582  0.00  0.00    +0.049 A 
ATOM     29 CL   UNL     1       4.194  -5.114  -0.365  0.00  0.00    -0.083 Cl
ATOM     30 CL   UNL     1       1.947  -5.030  -5.277  0.00  0.00    -0.083 Cl
ENDBRANCH  22  23
ENDBRANCH  21  22
ENDBRANCH   6  21
TORSDOF 9
