REMARK  Name = ZINC35377759
REMARK  10 active torsions:
REMARK  status: ('A' for Active; 'I' for Inactive)
REMARK    1  A    between atoms: C_1  and  C_2
REMARK    2  A    between atoms: C_2  and  O_3
REMARK    3  A    between atoms: O_3  and  C_4
REMARK    4  A    between atoms: C_9  and  N_10
REMARK    5  A    between atoms: C_11  and  C_13
REMARK    6  A    between atoms: C_13  and  N_14
REMARK    7  A    between atoms: N_23  and  C_26
REMARK    8  A    between atoms: C_29  and  C_32
REMARK    9  A    between atoms: C_32  and  C_33
REMARK   10  A    between atoms: N_35  and  C_36
REMARK                            x       y       z     vdW  Elec       q    Type
REMARK                         _______ _______ _______ _____ _____    ______ ____
ROOT
ATOM      1  N   UNL     1       3.610  -1.900   6.678  0.00  0.00    -0.284 N 
ATOM      2  C   UNL     1       2.781  -2.307   7.713  0.00  0.00    +0.059 A 
ATOM      3  C   UNL     1       1.433  -1.980   7.735  0.00  0.00    +0.027 A 
ATOM      4  C   UNL     1       0.643  -2.405   8.784  0.00  0.00    +0.002 A 
ATOM      5  C   UNL     1       1.183  -3.155   9.818  0.00  0.00    +0.001 A 
ATOM      6  C   UNL     1       2.521  -3.489   9.813  0.00  0.00    +0.015 A 
ATOM      7  C   UNL     1       3.329  -3.067   8.760  0.00  0.00    +0.064 A 
ATOM      8  C   UNL     1       4.765  -3.396   8.706  0.00  0.00    +0.269 A 
ATOM      9  O   UNL     1       5.288  -4.051   9.586  0.00  0.00    -0.266 OA
ATOM     10  N   UNL     1       5.484  -2.950   7.652  0.00  0.00    -0.228 N 
ATOM     11  C   UNL     1       4.913  -2.231   6.674  0.00  0.00    +0.337 A 
ATOM     12  O   UNL     1       5.605  -1.859   5.746  0.00  0.00    -0.246 OA
ENDROOT
BRANCH  10  13
ATOM     13  C   UNL     1       6.851  -3.249   7.578  0.00  0.00    +0.054 A 
ATOM     14  C   UNL     1       7.267  -4.565   7.426  0.00  0.00    +0.027 A 
ATOM     15  C   UNL     1       8.615  -4.857   7.353  0.00  0.00    +0.006 A 
ATOM     16  C   UNL     1       9.550  -3.840   7.430  0.00  0.00    -0.038 A 
ATOM     17  C   UNL     1       9.137  -2.529   7.581  0.00  0.00    +0.006 A 
ATOM     18  C   UNL     1       7.791  -2.230   7.650  0.00  0.00    +0.027 A 
BRANCH  16  19
ATOM     19  C   UNL     1      11.020  -4.162   7.350  0.00  0.00    +0.130 C 
BRANCH  19  20
ATOM     20  C   UNL     1      11.465  -4.121   5.911  0.00  0.00    +0.217 C 
ATOM     21  O   UNL     1      10.668  -3.857   5.037  0.00  0.00    -0.275 OA
ATOM     22  N   UNL     1      12.750  -4.378   5.596  0.00  0.00    -0.318 N 
ATOM     23  C   UNL     1      13.184  -4.338   4.197  0.00  0.00    +0.128 C 
ATOM     24  H   UNL     1      13.388  -4.590   6.296  0.00  0.00    +0.148 HD
ENDBRANCH  19  20
ENDBRANCH  16  19
ENDBRANCH  10  13
BRANCH   1  25
ATOM     25  C   UNL     1       3.059  -1.107   5.576  0.00  0.00    +0.222 C 
BRANCH  25  27
ATOM     26  N   UNL     1       2.014  -1.518   3.373  0.00  0.00    -0.281 N 
ATOM     27  C   UNL     1       2.565  -2.029   4.492  0.00  0.00    +0.237 C 
ATOM     28  O   UNL     1       2.663  -3.230   4.626  0.00  0.00    -0.274 OA
ATOM     29  H   UNL     1       2.009  -0.559   3.229  0.00  0.00    +0.155 HD
BRANCH  26  35
ATOM     30  C   UNL     1       1.347  -1.967   1.089  0.00  0.00    +0.142 A 
ATOM     31  C   UNL     1       0.791  -2.818   0.148  0.00  0.00    +0.047 A 
ATOM     32  C   UNL     1       0.335  -4.067   0.528  0.00  0.00    +0.004 A 
ATOM     33  C   UNL     1       0.431  -4.469   1.848  0.00  0.00    +0.002 A 
ATOM     34  C   UNL     1       0.984  -3.626   2.793  0.00  0.00    +0.027 A 
ATOM     35  C   UNL     1       1.448  -2.374   2.417  0.00  0.00    +0.076 A 
BRANCH  30  36
ATOM     36  O   UNL     1       1.796  -0.739   0.716  0.00  0.00    -0.490 OA
BRANCH  36  38
ATOM     37  C   UNL     1       2.215   1.018  -0.890  0.00  0.00    +0.048 C 
ATOM     38  C   UNL     1       1.659  -0.389  -0.663  0.00  0.00    +0.226 C 
ENDBRANCH  36  38
ENDBRANCH  30  36
ENDBRANCH  26  35
ENDBRANCH  25  27
ENDBRANCH   1  25
TORSDOF 8
