REMARK  Name = ZINC12718883
REMARK  13 active torsions:
REMARK  status: ('A' for Active; 'I' for Inactive)
REMARK    1  A    between atoms: C_1  and  C_2
REMARK    2  A    between atoms: C_2  and  O_3
REMARK    3  A    between atoms: O_3  and  C_4
REMARK    4  A    between atoms: C_7  and  C_10
REMARK    5  A    between atoms: C_10  and  N_58
REMARK    6  A    between atoms: C_16  and  C_18
REMARK    7  A    between atoms: C_18  and  C_19
REMARK    8  A    between atoms: N_21  and  C_22
REMARK    9  A    between atoms: C_22  and  C_23
REMARK   10  A    between atoms: C_23  and  C_24
REMARK   11  A    between atoms: C_23  and  C_25
REMARK   12  A    between atoms: C_23  and  C_26
REMARK   13  A    between atoms: C_26  and  O_27
REMARK                            x       y       z     vdW  Elec       q    Type
REMARK                         _______ _______ _______ _____ _____    ______ ____
ROOT
ATOM      1  C   UNL     1       0.320  -0.518   6.409  0.00  0.00    -0.058 C 
ATOM      2  C   UNL     1      -0.739  -0.146   7.449  0.00  0.00    +0.085 C 
ATOM      3  N   UNL     1      -1.161   1.239   7.259  0.00  0.00    -0.318 N 
ATOM      4  C   UNL     1      -0.952   1.912   6.125  0.00  0.00    +0.200 C 
ATOM      5  O   UNL     1      -1.364   3.050   6.042  0.00  0.00    -0.278 OA
ATOM      6  C   UNL     1      -0.224   1.323   4.950  0.00  0.00    +0.028 C 
ATOM      7  H   UNL     1      -1.616   1.689   7.989  0.00  0.00    +0.149 HD
ATOM      8  N   UNL     1      -0.197  -0.146   5.077  0.00  0.00    +0.391 N 
ATOM      9  H   UNL     1      -1.152  -0.510   4.973  0.00  0.00    -0.080 HD
ENDROOT
BRANCH   8  10
ATOM     10  C   UNL     1       0.658  -0.730   4.019  0.00  0.00    -0.042 C 
BRANCH  10  14
ATOM     11  C   UNL     1      -0.122  -4.925   3.767  0.00  0.00    +0.121 A 
ATOM     12  C   UNL     1      -0.864  -4.033   3.006  0.00  0.00    +0.046 A 
ATOM     13  C   UNL     1      -0.610  -2.678   3.090  0.00  0.00    +0.005 A 
ATOM     14  C   UNL     1       0.383  -2.209   3.930  0.00  0.00    -0.064 A 
ATOM     15  C   UNL     1       1.127  -3.096   4.685  0.00  0.00    +0.005 A 
ATOM     16  C   UNL     1       0.873  -4.452   4.610  0.00  0.00    +0.046 A 
BRANCH  11  17
ATOM     17  O   UNL     1      -0.370  -6.258   3.687  0.00  0.00    -0.492 OA
BRANCH  17  19
ATOM     18  C   UNL     1       0.011  -8.571   4.275  0.00  0.00    +0.048 C 
ATOM     19  C   UNL     1       0.433  -7.117   4.499  0.00  0.00    +0.225 C 
ENDBRANCH  17  19
ENDBRANCH  11  17
ENDBRANCH  10  14
ENDBRANCH   8  10
BRANCH   6  20
ATOM     20  C   UNL     1      -0.957   1.697   3.660  0.00  0.00    +0.089 C 
BRANCH  20  21
ATOM     21  C   UNL     1      -2.341   1.102   3.677  0.00  0.00    +0.212 C 
ATOM     22  O   UNL     1      -2.671   0.361   4.579  0.00  0.00    -0.276 OA
ATOM     23  N   UNL     1      -3.213   1.394   2.691  0.00  0.00    -0.315 N 
ATOM     24  H   UNL     1      -2.949   1.986   1.970  0.00  0.00    +0.149 HD
BRANCH  23  25
ATOM     25  C   UNL     1      -4.559   0.815   2.709  0.00  0.00    +0.112 C 
BRANCH  25  26
ATOM     26  C   UNL     1      -5.339   1.303   1.486  0.00  0.00    +0.004 C 
ATOM     27  C   UNL     1      -5.439   2.829   1.521  0.00  0.00    +0.015 C 
ATOM     28  C   UNL     1      -4.614   0.868   0.211  0.00  0.00    +0.015 C 
BRANCH  26  29
ATOM     29  C   UNL     1      -6.745   0.699   1.504  0.00  0.00    +0.163 C 
BRANCH  29  30
ATOM     30  O   UNL     1      -7.474   1.154   0.363  0.00  0.00    -0.394 OA
ATOM     31  H   UNL     1      -8.376   0.810   0.309  0.00  0.00    +0.209 HD
ENDBRANCH  29  30
ENDBRANCH  26  29
ENDBRANCH  25  26
ENDBRANCH  23  25
ENDBRANCH  20  21
ENDBRANCH   6  20
TORSDOF 10
