REMARK  Name = ZINC13608148
REMARK  13 active torsions:
REMARK  status: ('A' for Active; 'I' for Inactive)
REMARK    1  A    between atoms: C_1  and  C_2
REMARK    2  A    between atoms: C_6  and  O_8
REMARK    3  A    between atoms: O_8  and  C_9
REMARK    4  A    between atoms: C_9  and  C_10
REMARK    5  A    between atoms: N_12  and  C_13
REMARK    6  A    between atoms: C_13  and  C_15
REMARK    7  A    between atoms: C_13  and  C_24
REMARK    8  A    between atoms: C_15  and  S_16
REMARK    9  A    between atoms: S_16  and  C_17
REMARK   10  A    between atoms: C_17  and  C_18
REMARK   11  A    between atoms: N_26  and  C_27
REMARK   12  A    between atoms: C_27  and  C_28
REMARK   13  A    between atoms: C_27  and  C_29
REMARK                            x       y       z     vdW  Elec       q    Type
REMARK                         _______ _______ _______ _____ _____    ______ ____
ROOT
ATOM      1  C   UNL     1       5.949  -1.114  -1.891  0.00  0.00    +0.251 C 
ATOM      2  O   UNL     1       5.642   0.055  -1.792  0.00  0.00    -0.272 OA
ATOM      3  N   UNL     1       7.192  -1.453  -2.287  0.00  0.00    -0.300 N 
ATOM      4  H   UNL     1       7.438  -2.388  -2.366  0.00  0.00    +0.150 HD
ENDROOT
BRANCH   1   5
ATOM      5  C   UNL     1       4.941  -2.188  -1.572  0.00  0.00    +0.324 C 
BRANCH   5   6
ATOM      6  O   UNL     1       3.708  -1.582  -1.179  0.00  0.00    -0.482 OA
BRANCH   6  12
ATOM      7  C   UNL     1       2.029  -6.130  -0.649  0.00  0.00    +0.044 C 
ATOM      8  C   UNL     1       1.822  -4.639  -0.582  0.00  0.00    -0.043 A 
ATOM      9  C   UNL     1       0.596  -4.137  -0.192  0.00  0.00    +0.050 A 
ATOM     10  C   UNL     1       0.394  -2.766  -0.126  0.00  0.00    +0.143 A 
ATOM     11  C   UNL     1       1.446  -1.895  -0.459  0.00  0.00    +0.063 A 
ATOM     12  C   UNL     1       2.688  -2.416  -0.855  0.00  0.00    +0.132 A 
ATOM     13  C   UNL     1       2.863  -3.788  -0.912  0.00  0.00    +0.050 A 
ATOM     14  C   UNL     1       1.224  -0.450  -0.385  0.00  0.00    -0.023 A 
ATOM     15  C   UNL     1       0.002  -0.004   0.002  0.00  0.00    +0.041 A 
ATOM     16  C   UNL     1      -1.010  -0.938   0.321  0.00  0.00    +0.341 A 
ATOM     17  O   UNL     1      -2.104  -0.530   0.668  0.00  0.00    -0.245 OA
ATOM     18  O   UNL     1      -0.799  -2.260   0.253  0.00  0.00    -0.422 OA
ATOM     19  C   UNL     1      -0.018   1.509   0.010  0.00  0.00    +0.043 C 
ATOM     20  C   UNL     1       1.467   1.932  -0.002  0.00  0.00    +0.010 C 
ATOM     21  C   UNL     1       2.142   0.716  -0.673  0.00  0.00    +0.037 C 
ENDBRANCH   6  12
ENDBRANCH   5   6
ENDBRANCH   1   5
BRANCH   3  22
ATOM     22  C   UNL     1       8.172  -0.409  -2.598  0.00  0.00    +0.169 C 
BRANCH  22  23
ATOM     23  C   UNL     1       7.995   0.037  -4.026  0.00  0.00    +0.234 C 
ATOM     24  O   UNL     1       7.135  -0.467  -4.717  0.00  0.00    -0.274 OA
ATOM     25  N   UNL     1       8.792   0.997  -4.536  0.00  0.00    -0.311 N 
ATOM     26  H   UNL     1       9.480   1.400  -3.984  0.00  0.00    +0.149 HD
BRANCH  25  27
ATOM     27  C   UNL     1       8.620   1.431  -5.925  0.00  0.00    +0.067 C 
ATOM     28  C   UNL     1       7.532   2.504  -5.993  0.00  0.00    +0.027 C 
ATOM     29  C   UNL     1       9.938   2.007  -6.447  0.00  0.00    +0.027 C 
ENDBRANCH  25  27
ENDBRANCH  22  23
BRANCH  22  30
ATOM     30  C   UNL     1       9.585  -0.964  -2.409  0.00  0.00    +0.101 C 
BRANCH  30  31
ATOM     31  S   UNL     1       9.799  -1.501  -0.689  0.00  0.00    -0.154 S 
BRANCH  31  32
ATOM     32  C   UNL     1      11.502  -2.123  -0.632  0.00  0.00    +0.104 C 
BRANCH  32  33
ATOM     33  C   UNL     1      11.813  -2.607   0.761  0.00  0.00    -0.038 A 
ATOM     34  C   UNL     1      12.351  -1.738   1.691  0.00  0.00    +0.004 A 
ATOM     35  C   UNL     1      12.632  -2.181   2.970  0.00  0.00    +0.000 A 
ATOM     36  C   UNL     1      12.385  -3.496   3.316  0.00  0.00    +0.000 A 
ATOM     37  C   UNL     1      11.852  -4.367   2.384  0.00  0.00    +0.000 A 
ATOM     38  C   UNL     1      11.566  -3.923   1.106  0.00  0.00    +0.004 A 
ENDBRANCH  32  33
ENDBRANCH  31  32
ENDBRANCH  30  31
ENDBRANCH  22  30
ENDBRANCH   3  22
TORSDOF 10
