REMARK  Name = ZINC66425331
REMARK  8 active torsions:
REMARK  status: ('A' for Active; 'I' for Inactive)
REMARK    1  A    between atoms: C_1  and  N_2
REMARK    2  A    between atoms: C_3  and  C_5
REMARK    3  A    between atoms: C_5  and  C_7
REMARK    4  A    between atoms: C_5  and  N_13
REMARK    5  A    between atoms: C_14  and  C_16
REMARK    6  A    between atoms: C_16  and  N_17
REMARK    7  A    between atoms: C_21  and  C_23
REMARK    8  A    between atoms: C_23  and  C_24
REMARK                            x       y       z     vdW  Elec       q    Type
REMARK                         _______ _______ _______ _____ _____    ______ ____
ROOT
ATOM      1  N   UNL     1      -2.567  -2.594  -0.056  0.00  0.00    -0.302 N 
ATOM      2  C   UNL     1      -3.251  -2.604   1.105  0.00  0.00    +0.197 C 
ATOM      3  O   UNL     1      -2.744  -2.154   2.111  0.00  0.00    -0.278 OA
ATOM      4  H   UNL     1      -2.941  -3.020  -0.843  0.00  0.00    +0.150 HD
ENDROOT
BRANCH   1   5
ATOM      5  C   UNL     1      -1.258  -1.940  -0.130  0.00  0.00    +0.189 C 
BRANCH   5   6
ATOM      6  C   UNL     1      -0.452  -2.552  -1.247  0.00  0.00    -0.018 A 
ATOM      7  C   UNL     1      -1.064  -2.876  -2.443  0.00  0.00    +0.006 A 
ATOM      8  C   UNL     1      -0.325  -3.438  -3.467  0.00  0.00    +0.000 A 
ATOM      9  C   UNL     1       1.026  -3.676  -3.295  0.00  0.00    +0.000 A 
ATOM     10  C   UNL     1       1.638  -3.352  -2.099  0.00  0.00    +0.000 A 
ATOM     11  C   UNL     1       0.900  -2.786  -1.076  0.00  0.00    +0.006 A 
ENDBRANCH   5   6
BRANCH   5  14
ATOM     12  C   UNL     1      -0.555   1.770  -0.761  0.00  0.00    +0.128 C 
ATOM     13  N   UNL     1      -0.372   0.340  -0.503  0.00  0.00    -0.317 N 
ATOM     14  C   UNL     1      -1.446  -0.468  -0.395  0.00  0.00    +0.238 C 
ATOM     15  O   UNL     1      -2.563  -0.011  -0.511  0.00  0.00    -0.273 OA
ATOM     16  H   UNL     1       0.521  -0.026  -0.411  0.00  0.00    +0.148 HD
ENDBRANCH   5  14
ENDBRANCH   1   5
BRANCH   2  17
ATOM     17  C   UNL     1      -4.644  -3.174   1.153  0.00  0.00    +0.019 C 
BRANCH  17  18
ATOM     18  N   UNL     1      -5.197  -3.003   2.504  0.00  0.00    +0.387 N 
ATOM     19  C   UNL     1      -4.421  -3.817   3.465  0.00  0.00    -0.078 C 
ATOM     20  C   UNL     1      -5.468  -4.328   4.486  0.00  0.00    -0.020 C 
ATOM     21  C   UNL     1      -6.695  -4.590   3.572  0.00  0.00    -0.017 C 
ATOM     22  C   UNL     1      -6.599  -3.458   2.528  0.00  0.00    -0.064 C 
ATOM     23  H   UNL     1      -5.151  -2.031   2.770  0.00  0.00    -0.081 HD
BRANCH  22  24
ATOM     24  C   UNL     1      -6.998  -3.987   1.149  0.00  0.00    +0.021 C 
BRANCH  24  25
ATOM     25  C   UNL     1      -8.448  -4.399   1.169  0.00  0.00    -0.031 A 
ATOM     26  C   UNL     1      -8.787  -5.725   1.359  0.00  0.00    +0.005 A 
ATOM     27  C   UNL     1     -10.117  -6.103   1.378  0.00  0.00    +0.000 A 
ATOM     28  C   UNL     1     -11.108  -5.154   1.206  0.00  0.00    +0.001 A 
ATOM     29  C   UNL     1     -10.770  -3.828   1.016  0.00  0.00    +0.020 A 
ATOM     30  C   UNL     1      -9.439  -3.448   1.003  0.00  0.00    +0.044 A 
ATOM     31 CL   UNL     1      -9.014  -1.781   0.770  0.00  0.00    -0.083 Cl
ENDBRANCH  24  25
ENDBRANCH  22  24
ENDBRANCH  17  18
ENDBRANCH   2  17
TORSDOF 7
