REMARK  Name = ZINC63964314
REMARK  6 active torsions:
REMARK  status: ('A' for Active; 'I' for Inactive)
REMARK    1  A    between atoms: C_1  and  C_2
REMARK    2  A    between atoms: C_2  and  C_3
REMARK    3  A    between atoms: C_8  and  N_13
REMARK    4  A    between atoms: C_14  and  C_16
REMARK    5  A    between atoms: C_16  and  C_18
REMARK    6  A    between atoms: C_26  and  C_28
REMARK                            x       y       z     vdW  Elec       q    Type
REMARK                         _______ _______ _______ _____ _____    ______ ____
ROOT
ATOM      1  N   UNL     1      -3.071  -5.209   3.239  0.00  0.00    -0.279 N 
ATOM      2  C   UNL     1      -3.785  -5.458   4.354  0.00  0.00    +0.288 C 
ATOM      3  O   UNL     1      -4.307  -4.543   4.957  0.00  0.00    -0.266 OA
ATOM      4  H   UNL     1      -2.699  -5.945   2.726  0.00  0.00    +0.155 HD
ENDROOT
BRANCH   1   9
ATOM      5  C   UNL     1      -3.731   0.598   2.039  0.00  0.00    +0.260 C 
ATOM      6  N   UNL     1      -4.492  -0.510   2.631  0.00  0.00    -0.307 N 
ATOM      7  C   UNL     1      -3.658  -1.635   2.573  0.00  0.00    +0.074 A 
ATOM      8  C   UNL     1      -3.864  -2.943   2.989  0.00  0.00    +0.050 A 
ATOM      9  C   UNL     1      -2.865  -3.891   2.820  0.00  0.00    +0.036 A 
ATOM     10  C   UNL     1      -1.659  -3.527   2.233  0.00  0.00    +0.027 A 
ATOM     11  C   UNL     1      -1.454  -2.226   1.819  0.00  0.00    +0.049 A 
ATOM     12  C   UNL     1      -2.450  -1.272   1.986  0.00  0.00    +0.144 A 
ATOM     13  O   UNL     1      -2.466   0.050   1.659  0.00  0.00    -0.469 OA
ATOM     14  H   UNL     1      -5.392  -0.470   2.991  0.00  0.00    +0.150 HD
BRANCH   5  16
ATOM     15  C   UNL     1      -3.708   2.356   0.264  0.00  0.00    +0.009 C 
ATOM     16  C   UNL     1      -4.461   1.140   0.809  0.00  0.00    +0.062 C 
ENDBRANCH   5  16
ENDBRANCH   1   9
BRANCH   2  17
ATOM     17  C   UNL     1      -3.935  -6.855   4.846  0.00  0.00    +0.246 C 
ATOM     18  O   UNL     1      -3.515  -7.783   4.180  0.00  0.00    -0.282 OA
BRANCH  17  19
ATOM     19  C   UNL     1      -4.564  -7.103   6.085  0.00  0.00    +0.035 C 
ATOM     20  C   UNL     1      -4.884  -8.337   6.631  0.00  0.00    +0.007 A 
ATOM     21  C   UNL     1      -4.708  -9.663   6.178  0.00  0.00    +0.010 A 
ATOM     22  C   UNL     1      -5.128 -10.704   6.935  0.00  0.00    +0.001 A 
ATOM     23  C   UNL     1      -5.745 -10.528   8.183  0.00  0.00    +0.002 A 
ATOM     24  C   UNL     1      -5.960  -9.301   8.707  0.00  0.00    +0.026 A 
ATOM     25  C   UNL     1      -5.533  -8.114   7.946  0.00  0.00    +0.043 A 
ATOM     26  N   UNL     1      -5.614  -6.840   8.206  0.00  0.00    -0.377 N 
ATOM     27  C   UNL     1      -5.024  -6.080   7.100  0.00  0.00    +0.111 C 
ATOM     28  C   UNL     1      -3.833  -5.259   7.597  0.00  0.00    +0.035 C 
ATOM     29  H   UNL     1      -6.000  -6.455   9.008  0.00  0.00    +0.160 HD
ENDBRANCH  17  19
ENDBRANCH   2  17
TORSDOF 4
