REMARK  Name = ZINC66398819
REMARK  8 active torsions:
REMARK  status: ('A' for Active; 'I' for Inactive)
REMARK    1  A    between atoms: C_1  and  C_2
REMARK    2  A    between atoms: C_7  and  C_8
REMARK    3  A    between atoms: C_8  and  C_10
REMARK    4  A    between atoms: C_8  and  N_12
REMARK    5  A    between atoms: C_13  and  C_15
REMARK    6  A    between atoms: C_15  and  C_16
REMARK    7  A    between atoms: C_16  and  N_17
REMARK    8  A    between atoms: N_20  and  C_21
REMARK                            x       y       z     vdW  Elec       q    Type
REMARK                         _______ _______ _______ _____ _____    ______ ____
ROOT
ATOM      1  C   UNL     1      -2.451  -0.260   6.730  0.00  0.00    +0.115 C 
ENDROOT
BRANCH   1   2
ATOM      2  N   UNL     1      -3.013  -1.114   7.780  0.00  0.00    -0.299 N 
ATOM      3  C   UNL     1      -3.666  -0.560   8.821  0.00  0.00    +0.300 C 
ATOM      4  O   UNL     1      -3.788   0.648   8.889  0.00  0.00    -0.253 OA
ATOM      5  N   UNL     1      -4.183  -1.345   9.787  0.00  0.00    -0.294 N 
ATOM      6  H   UNL     1      -2.916  -2.077   7.726  0.00  0.00    +0.150 HD
ATOM      7  H   UNL     1      -4.086  -2.308   9.732  0.00  0.00    +0.151 HD
BRANCH   5   8
ATOM      8  C   UNL     1      -4.893  -0.743  10.918  0.00  0.00    +0.037 C 
ATOM      9  C   UNL     1      -3.948   0.196  11.671  0.00  0.00    +0.029 C 
ATOM     10  C   UNL     1      -4.689   0.824  12.853  0.00  0.00    -0.008 C 
ATOM     11  C   UNL     1      -5.172  -0.279  13.797  0.00  0.00    +0.007 C 
ATOM     12  C   UNL     1      -6.117  -1.217  13.044  0.00  0.00    -0.008 C 
ATOM     13  C   UNL     1      -5.376  -1.846  11.862  0.00  0.00    +0.029 C 
ATOM     14  C   UNL     1      -7.319  -0.424  12.528  0.00  0.00    +0.007 C 
ATOM     15  C   UNL     1      -6.836   0.678  11.584  0.00  0.00    -0.008 C 
ATOM     16  C   UNL     1      -5.892   1.617  12.338  0.00  0.00    +0.007 C 
ATOM     17  C   UNL     1      -6.095   0.050  10.403  0.00  0.00    +0.029 C 
ENDBRANCH   5   8
ENDBRANCH   1   2
BRANCH   1  18
ATOM     18  C   UNL     1      -1.768  -1.133   5.675  0.00  0.00    +0.114 C 
BRANCH  18  20
ATOM     19  N   UNL     1      -0.537  -0.808   3.554  0.00  0.00    -0.296 N 
ATOM     20  C   UNL     1      -1.190  -0.255   4.595  0.00  0.00    +0.216 C 
ATOM     21  O   UNL     1      -1.312   0.950   4.663  0.00  0.00    -0.276 OA
ATOM     22  H   UNL     1      -0.440  -1.772   3.500  0.00  0.00    +0.150 HD
BRANCH  19  23
ATOM     23  C   UNL     1       0.025   0.045   2.504  0.00  0.00    +0.207 C 
BRANCH  23  30
ATOM     24  C   UNL     1      -0.096   1.486   0.003  0.00  0.00    +0.044 C 
ATOM     25  C   UNL     1      -0.017  -0.019   0.003  0.00  0.00    -0.045 A 
ATOM     26  C   UNL     1       0.003  -0.710  -1.195  0.00  0.00    +0.004 A 
ATOM     27  C   UNL     1       0.076  -2.090  -1.195  0.00  0.00    +0.000 A 
ATOM     28  C   UNL     1       0.129  -2.780   0.002  0.00  0.00    +0.000 A 
ATOM     29  C   UNL     1       0.110  -2.089   1.199  0.00  0.00    +0.007 A 
ATOM     30  C   UNL     1       0.041  -0.709   1.199  0.00  0.00    -0.010 A 
ENDBRANCH  23  30
BRANCH  23  31
ATOM     31  C   UNL     1       1.400   0.428   2.867  0.00  0.00    +0.090 C 
ATOM     32  N   UNL     1       2.460   0.723   3.147  0.00  0.00    -0.194 NA
ENDBRANCH  23  31
ENDBRANCH  19  23
ENDBRANCH  18  20
ENDBRANCH   1  18
TORSDOF 7
