REMARK  Name = ZINC15033690
REMARK  5 active torsions:
REMARK  status: ('A' for Active; 'I' for Inactive)
REMARK    1  A    between atoms: C_4  and  C_7
REMARK    2  A    between atoms: C_16  and  C_17
REMARK    3  A    between atoms: C_16  and  N_60
REMARK    4  A    between atoms: N_22  and  S_25
REMARK    5  A    between atoms: S_25  and  C_28
REMARK                            x       y       z     vdW  Elec       q    Type
REMARK                         _______ _______ _______ _____ _____    ______ ____
ROOT
ATOM      1  C   UNL     1       4.909   1.557   0.411  0.00  0.00    +0.020 C 
ENDROOT
BRANCH   1  10
ATOM      2  C   UNL     1       3.318   2.967  -0.746  0.00  0.00    -0.005 C 
ATOM      3  C   UNL     1       1.909   3.546  -0.657  0.00  0.00    -0.047 A 
ATOM      4  C   UNL     1       1.215   4.072  -1.744  0.00  0.00    +0.010 A 
ATOM      5  C   UNL     1      -0.033   4.569  -1.574  0.00  0.00    +0.045 A 
ATOM      6  S   UNL     1      -0.301   4.304   0.173  0.00  0.00    -0.101 S 
ATOM      7  C   UNL     1       1.264   3.564   0.543  0.00  0.00    -0.010 A 
ATOM      8  C   UNL     1       1.794   3.064   1.848  0.00  0.00    +0.024 C 
ATOM      9  C   UNL     1       3.308   2.851   1.688  0.00  0.00    -0.072 C 
ATOM     10  N   UNL     1       3.535   2.095   0.432  0.00  0.00    +0.393 N 
ATOM     11  H   UNL     1       2.870   1.314   0.393  0.00  0.00    -0.080 HD
BRANCH   2  15
ATOM     12  C   UNL     1       3.675   0.605  -4.288  0.00  0.00    +0.000 A 
ATOM     13  C   UNL     1       4.168   1.896  -4.266  0.00  0.00    +0.000 A 
ATOM     14  C   UNL     1       4.052   2.661  -3.119  0.00  0.00    +0.002 A 
ATOM     15  C   UNL     1       3.444   2.134  -1.996  0.00  0.00    -0.057 A 
ATOM     16  C   UNL     1       2.955   0.841  -2.016  0.00  0.00    +0.002 A 
ATOM     17  C   UNL     1       3.067   0.078  -3.163  0.00  0.00    +0.000 A 
ENDBRANCH   2  15
ENDBRANCH   1  10
BRANCH   1  18
ATOM     18  C   UNL     1       5.922   2.668   0.503  0.00  0.00    +0.199 C 
ATOM     19  O   UNL     1       5.554   3.813   0.664  0.00  0.00    -0.278 OA
ATOM     20  N   UNL     1       7.238   2.391   0.405  0.00  0.00    -0.300 N 
ATOM     21  C   UNL     1       7.699   1.009   0.215  0.00  0.00    +0.125 C 
ATOM     22  C   UNL     1       8.582   0.960  -1.043  0.00  0.00    +0.128 C 
ATOM     23  N   UNL     1       9.581   2.034  -0.956  0.00  0.00    -0.174 NA
ATOM     24  C   UNL     1       9.120   3.416  -0.760  0.00  0.00    +0.128 C 
ATOM     25  C   UNL     1       8.237   3.465   0.492  0.00  0.00    +0.125 C 
BRANCH  23  26
ATOM     26  S   UNL     1      11.197   1.693  -1.075  0.00  0.00    +0.061 S 
ATOM     27  O   UNL     1      11.303   0.469  -1.789  0.00  0.00    -0.153 OA
ATOM     28  O   UNL     1      11.833   2.887  -1.510  0.00  0.00    -0.153 OA
BRANCH  26  29
ATOM     29  C   UNL     1      11.784   1.376   0.556  0.00  0.00    +0.105 A 
ATOM     30  C   UNL     1      12.275   2.413   1.328  0.00  0.00    +0.028 A 
ATOM     31  C   UNL     1      12.731   2.166   2.609  0.00  0.00    +0.002 A 
ATOM     32  C   UNL     1      12.706   0.879   3.115  0.00  0.00    +0.000 A 
ATOM     33  C   UNL     1      12.221  -0.159   2.341  0.00  0.00    +0.002 A 
ATOM     34  C   UNL     1      11.760   0.090   1.062  0.00  0.00    +0.028 A 
ENDBRANCH  26  29
ENDBRANCH  23  26
ENDBRANCH   1  18
TORSDOF 5
