REMARK  Name = ZINC27537061
REMARK  13 active torsions:
REMARK  status: ('A' for Active; 'I' for Inactive)
REMARK    1  A    between atoms: C_1  and  C_2
REMARK    2  A    between atoms: C_5  and  N_9
REMARK    3  A    between atoms: C_6  and  C_8
REMARK    4  A    between atoms: C_10  and  C_12
REMARK    5  A    between atoms: C_12  and  C_14
REMARK    6  A    between atoms: C_12  and  N_15
REMARK    7  A    between atoms: N_15  and  C_16
REMARK    8  A    between atoms: N_15  and  C_17
REMARK    9  A    between atoms: C_17  and  C_18
REMARK   10  A    between atoms: N_20  and  C_21
REMARK   11  A    between atoms: C_22  and  C_29
REMARK   12  A    between atoms: C_24  and  C_28
REMARK   13  A    between atoms: C_26  and  C_27
REMARK                            x       y       z     vdW  Elec       q    Type
REMARK                         _______ _______ _______ _____ _____    ______ ____
ROOT
ATOM      1  N   UNL     1       1.606  -7.640  -2.256  0.00  0.00    +0.391 N 
ATOM      2  C   UNL     1       2.947  -8.190  -2.497  0.00  0.00    -0.094 C 
ATOM      3  H   UNL     1       1.419  -6.906  -2.923  0.00  0.00    -0.080 HD
ENDROOT
BRANCH   1   4
ATOM      4  C   UNL     1       1.539  -7.092  -0.894  0.00  0.00    +0.017 C 
ATOM      5  C   UNL     1       0.115  -6.611  -0.608  0.00  0.00    -0.004 C 
BRANCH   4   7
ATOM      6  N   UNL     1       2.824  -5.459   0.447  0.00  0.00    -0.287 N 
ATOM      7  C   UNL     1       2.495  -5.934  -0.771  0.00  0.00    +0.203 C 
ATOM      8  O   UNL     1       2.969  -5.430  -1.767  0.00  0.00    -0.277 OA
ATOM      9  H   UNL     1       2.510  -5.912   1.245  0.00  0.00    +0.155 HD
BRANCH   6  14
ATOM     10  C   UNL     1       6.046  -0.812   0.902  0.00  0.00    +0.044 C 
ATOM     11  C   UNL     1       5.190  -2.046   0.781  0.00  0.00    -0.050 A 
ATOM     12  C   UNL     1       5.381  -2.918  -0.276  0.00  0.00    +0.005 A 
ATOM     13  C   UNL     1       4.598  -4.050  -0.390  0.00  0.00    +0.024 A 
ATOM     14  C   UNL     1       3.619  -4.313   0.559  0.00  0.00    +0.036 A 
ATOM     15  C   UNL     1       3.430  -3.437   1.620  0.00  0.00    -0.029 A 
ATOM     16  C   UNL     1       4.220  -2.309   1.730  0.00  0.00    +0.008 A 
ATOM     17  C   UNL     1       2.369  -3.719   2.652  0.00  0.00    +0.045 C 
ENDBRANCH   6  14
ENDBRANCH   4   7
ENDBRANCH   1   4
BRANCH   1  18
ATOM     18  C   UNL     1       0.606  -8.705  -2.405  0.00  0.00    +0.020 C 
BRANCH  18  19
ATOM     19  C   UNL     1       0.590  -9.182  -3.835  0.00  0.00    +0.201 C 
ATOM     20  O   UNL     1       1.339  -8.684  -4.649  0.00  0.00    -0.278 OA
ATOM     21  N   UNL     1      -0.255 -10.163  -4.209  0.00  0.00    -0.287 N 
ATOM     22  H   UNL     1      -0.877 -10.538  -3.566  0.00  0.00    +0.155 HD
BRANCH  21  23
ATOM     23  C   UNL     1      -0.236 -10.640  -5.524  0.00  0.00    +0.039 A 
ATOM     24  C   UNL     1      -0.028 -11.991  -5.771  0.00  0.00    -0.029 A 
ATOM     25  C   UNL     1      -0.009 -12.458  -7.071  0.00  0.00    +0.008 A 
ATOM     26  C   UNL     1      -0.197 -11.583  -8.125  0.00  0.00    -0.050 A 
ATOM     27  C   UNL     1      -0.404 -10.238  -7.882  0.00  0.00    +0.008 A 
ATOM     28  C   UNL     1      -0.430  -9.765  -6.585  0.00  0.00    -0.029 A 
ATOM     29  C   UNL     1      -0.662  -8.299  -6.320  0.00  0.00    +0.045 C 
ATOM     30  C   UNL     1      -0.176 -12.097  -9.541  0.00  0.00    +0.044 C 
ATOM     31  C   UNL     1       0.177 -12.945  -4.623  0.00  0.00    +0.045 C 
ENDBRANCH  21  23
ENDBRANCH  18  19
ENDBRANCH   1  18
TORSDOF 6
