REMARK  Name = ZINC14270233
REMARK  11 active torsions:
REMARK  status: ('A' for Active; 'I' for Inactive)
REMARK    1  A    between atoms: C_1  and  C_2
REMARK    2  A    between atoms: C_4  and  N_18
REMARK    3  A    between atoms: C_6  and  C_9
REMARK    4  A    between atoms: C_7  and  O_8
REMARK    5  A    between atoms: N_18  and  C_19
REMARK    6  A    between atoms: C_19  and  N_21
REMARK    7  A    between atoms: C_22  and  C_24
REMARK    8  A    between atoms: C_25  and  C_26
REMARK    9  A    between atoms: C_29  and  C_32
REMARK   10  A    between atoms: C_32  and  C_33
REMARK   11  A    between atoms: C_32  and  C_34
REMARK                            x       y       z     vdW  Elec       q    Type
REMARK                         _______ _______ _______ _____ _____    ______ ____
ROOT
ATOM      1  N   UNL     1      -0.011   0.966   0.007  0.00  0.00    -0.297 N 
ATOM      2  H   UNL     1       0.038   0.043   0.304  0.00  0.00    +0.154 HD
ENDROOT
BRANCH   1   6
ATOM      3  C   UNL     1       4.153   2.480   2.139  0.00  0.00    +0.047 C 
ATOM      4  C   UNL     1       3.190   2.502   0.980  0.00  0.00    -0.007 A 
ATOM      5  C   UNL     1       2.043   1.734   1.022  0.00  0.00    +0.030 A 
ATOM      6  C   UNL     1       1.150   1.748  -0.043  0.00  0.00    +0.034 A 
ATOM      7  C   UNL     1       1.409   2.530  -1.157  0.00  0.00    +0.040 A 
ATOM      8  C   UNL     1       2.563   3.312  -1.204  0.00  0.00    +0.080 A 
ATOM      9  C   UNL     1       3.458   3.293  -0.126  0.00  0.00    +0.132 A 
BRANCH   8  10
ATOM     10  C   UNL     1       2.843   4.152  -2.385  0.00  0.00    +0.232 A 
ATOM     11  N   UNL     1       2.074   4.242  -3.442  0.00  0.00    -0.209 NA
ATOM     12  C   UNL     1       2.643   5.104  -4.323  0.00  0.00    +0.110 A 
ATOM     13  C   UNL     1       2.277   5.571  -5.588  0.00  0.00    +0.031 A 
ATOM     14  C   UNL     1       3.090   6.467  -6.247  0.00  0.00    +0.002 A 
ATOM     15  C   UNL     1       4.268   6.907  -5.662  0.00  0.00    +0.004 A 
ATOM     16  C   UNL     1       4.643   6.454  -4.414  0.00  0.00    +0.048 A 
ATOM     17  C   UNL     1       3.837   5.552  -3.736  0.00  0.00    +0.156 A 
ATOM     18  O   UNL     1       3.923   4.943  -2.532  0.00  0.00    -0.435 OA
ENDBRANCH   8  10
BRANCH   9  19
ATOM     19  O   UNL     1       4.587   4.047  -0.166  0.00  0.00    -0.506 OA
ATOM     20  H   UNL     1       5.349   3.595  -0.552  0.00  0.00    +0.292 HD
ENDBRANCH   9  19
ENDBRANCH   1   6
BRANCH   1  21
ATOM     21  C   UNL     1      -1.196   1.493  -0.361  0.00  0.00    +0.141 C 
ATOM     22  S   UNL     1      -1.266   3.085  -0.986  0.00  0.00    -0.018 S 
BRANCH  21  23
ATOM     23  N   UNL     1      -2.324   0.767  -0.237  0.00  0.00    -0.264 N 
ATOM     24  C   UNL     1      -3.509   1.294  -0.605  0.00  0.00    +0.242 C 
ATOM     25  O   UNL     1      -3.559   2.426  -1.050  0.00  0.00    -0.270 OA
ATOM     26  H   UNL     1      -2.284  -0.135   0.118  0.00  0.00    +0.157 HD
BRANCH  24  27
ATOM     27  C   UNL     1      -4.734   0.506  -0.470  0.00  0.00    +0.068 C 
ATOM     28  C   UNL     1      -5.919   1.034  -0.839  0.00  0.00    +0.013 C 
BRANCH  28  29
ATOM     29  C   UNL     1      -7.152   0.241  -0.703  0.00  0.00    -0.025 A 
ATOM     30  C   UNL     1      -7.097  -1.062  -0.198  0.00  0.00    +0.008 A 
ATOM     31  C   UNL     1      -8.257  -1.796  -0.069  0.00  0.00    +0.004 A 
ATOM     32  C   UNL     1      -9.472  -1.251  -0.448  0.00  0.00    -0.045 A 
ATOM     33  C   UNL     1      -9.533   0.035  -0.954  0.00  0.00    +0.004 A 
ATOM     34  C   UNL     1      -8.383   0.784  -1.084  0.00  0.00    +0.008 A 
BRANCH  32  35
ATOM     35  C   UNL     1     -10.733  -2.063  -0.310  0.00  0.00    +0.013 C 
ATOM     36  C   UNL     1     -10.617  -3.335  -1.152  0.00  0.00    +0.012 C 
ATOM     37  C   UNL     1     -10.938  -2.442   1.159  0.00  0.00    +0.012 C 
ENDBRANCH  32  35
ENDBRANCH  28  29
ENDBRANCH  24  27
ENDBRANCH  21  23
ENDBRANCH   1  21
TORSDOF 8
