REMARK  Name = ZINC38687458
REMARK  12 active torsions:
REMARK  status: ('A' for Active; 'I' for Inactive)
REMARK    1  A    between atoms: C_1  and  C_2
REMARK    2  A    between atoms: C_2  and  O_3
REMARK    3  A    between atoms: O_3  and  C_4
REMARK    4  A    between atoms: C_9  and  C_10
REMARK    5  A    between atoms: C_15  and  O_24
REMARK    6  A    between atoms: C_19  and  N_23
REMARK    7  A    between atoms: C_20  and  C_21
REMARK    8  A    between atoms: O_24  and  C_25
REMARK    9  A    between atoms: C_25  and  C_27
REMARK   10  A    between atoms: C_28  and  C_38
REMARK   11  A    between atoms: C_30  and  C_37
REMARK   12  A    between atoms: C_32  and  C_36
REMARK                            x       y       z     vdW  Elec       q    Type
REMARK                         _______ _______ _______ _____ _____    ______ ____
ROOT
ATOM      1  C   UNL     1      -3.855  -1.308   0.087  0.00  0.00    +0.101 C 
ATOM      2  C   UNL     1      -4.672  -1.604   1.317  0.00  0.00    +0.008 A 
ATOM      3  C   UNL     1      -4.231  -1.156   2.550  0.00  0.00    +0.012 A 
ATOM      4  C   UNL     1      -4.967  -1.417   3.689  0.00  0.00    +0.047 A 
ATOM      5  C   UNL     1      -6.153  -2.132   3.599  0.00  0.00    +0.136 A 
ATOM      6  C   UNL     1      -6.597  -2.583   2.366  0.00  0.00    +0.093 A 
ATOM      7  C   UNL     1      -5.855  -2.319   1.222  0.00  0.00    +0.138 A 
ATOM      8  O   UNL     1      -6.303  -2.766   0.022  0.00  0.00    -0.441 OA
ATOM      9  C   UNL     1      -5.842  -2.215  -1.113  0.00  0.00    +0.199 C 
ATOM     10  C   UNL     1      -4.688  -1.514  -1.147  0.00  0.00    +0.098 C 
ENDROOT
BRANCH   1  16
ATOM     11  C   UNL     1      -1.380  -1.706   0.054  0.00  0.00    +0.125 A 
ATOM     12  C   UNL     1      -0.285  -2.558   0.021  0.00  0.00    +0.046 A 
ATOM     13  C   UNL     1      -0.476  -3.925  -0.028  0.00  0.00    +0.004 A 
ATOM     14  C   UNL     1      -1.758  -4.445  -0.043  0.00  0.00    +0.001 A 
ATOM     15  C   UNL     1      -2.850  -3.598  -0.010  0.00  0.00    +0.008 A 
ATOM     16  C   UNL     1      -2.664  -2.230   0.044  0.00  0.00    +0.007 A 
BRANCH  11  17
ATOM     17  O   UNL     1      -1.194  -0.360   0.102  0.00  0.00    -0.492 OA
BRANCH  17  19
ATOM     18  C   UNL     1       0.164   1.637   0.166  0.00  0.00    +0.048 C 
ATOM     19  C   UNL     1       0.156   0.108   0.110  0.00  0.00    +0.225 C 
ENDBRANCH  17  19
ENDBRANCH  11  17
ENDBRANCH   1  16
BRANCH   9  20
ATOM     20  N   UNL     1      -6.563  -2.372  -2.270  0.00  0.00    -0.328 N 
ATOM     21  H   UNL     1      -7.393  -2.874  -2.260  0.00  0.00    +0.145 HD
ATOM     22  H   UNL     1      -6.243  -1.981  -3.098  0.00  0.00    +0.145 HD
ENDBRANCH   9  20
BRANCH  10  23
ATOM     23  C   UNL     1      -4.250  -0.953  -2.390  0.00  0.00    +0.101 C 
ATOM     24  N   UNL     1      -3.903  -0.508  -3.376  0.00  0.00    -0.191 NA
ENDBRANCH  10  23
BRANCH   5  25
ATOM     25  O   UNL     1      -6.879  -2.390   4.719  0.00  0.00    -0.420 OA
BRANCH  25  26
ATOM     26  C   UNL     1      -6.979  -3.672   5.127  0.00  0.00    +0.380 C 
ATOM     27  O   UNL     1      -6.352  -4.543   4.555  0.00  0.00    -0.241 OA
BRANCH  26  28
ATOM     28  C   UNL     1      -7.846  -4.016   6.260  0.00  0.00    +0.216 A 
ATOM     29  C   UNL     1      -8.021  -5.268   6.760  0.00  0.00    +0.010 A 
ATOM     30  C   UNL     1      -8.961  -5.132   7.872  0.00  0.00    +0.027 A 
ATOM     31  C   UNL     1      -9.536  -6.029   8.776  0.00  0.00    -0.039 A 
ATOM     32  C   UNL     1     -10.403  -5.569   9.726  0.00  0.00    +0.007 A 
ATOM     33  C   UNL     1     -10.717  -4.219   9.798  0.00  0.00    -0.047 A 
ATOM     34  C   UNL     1     -10.161  -3.318   8.916  0.00  0.00    +0.050 A 
ATOM     35  C   UNL     1      -9.276  -3.762   7.941  0.00  0.00    +0.137 A 
ATOM     36  O   UNL     1      -8.586  -3.136   6.967  0.00  0.00    -0.448 OA
ATOM     37  C   UNL     1     -11.677  -3.732  10.853  0.00  0.00    +0.044 C 
ATOM     38  C   UNL     1      -9.200  -7.496   8.704  0.00  0.00    +0.044 C 
ATOM     39  C   UNL     1      -7.378  -6.538   6.267  0.00  0.00    +0.048 C 
ENDBRANCH  26  28
ENDBRANCH  25  26
ENDBRANCH   5  25
TORSDOF 8
