REMARK  Name = ZINC64743984
REMARK  8 active torsions:
REMARK  status: ('A' for Active; 'I' for Inactive)
REMARK    1  A    between atoms: C_1  and  C_2
REMARK    2  A    between atoms: C_2  and  C_4
REMARK    3  A    between atoms: C_2  and  N_10
REMARK    4  A    between atoms: C_4  and  C_5
REMARK    5  A    between atoms: C_11  and  C_13
REMARK    6  A    between atoms: C_13  and  C_15
REMARK    7  A    between atoms: C_13  and  C_16
REMARK    8  A    between atoms: C_22  and  C_24
REMARK                            x       y       z     vdW  Elec       q    Type
REMARK                         _______ _______ _______ _____ _____    ______ ____
ROOT
ATOM      1  C   UNL     1      -3.951  -1.243   2.633  0.00  0.00    +0.004 C 
ATOM      2  C   UNL     1      -5.386  -1.774   2.644  0.00  0.00    +0.023 C 
ATOM      3  C   UNL     1      -5.879  -1.872   4.091  0.00  0.00    +0.108 C 
ATOM      4  N   UNL     1      -5.716  -0.562   4.736  0.00  0.00    -0.300 N 
ATOM      5  C   UNL     1      -4.395   0.081   4.704  0.00  0.00    +0.108 C 
ATOM      6  C   UNL     1      -3.919   0.157   3.250  0.00  0.00    +0.023 C 
ATOM      7  C   UNL     1      -6.758   0.038   5.344  0.00  0.00    +0.242 C 
ATOM      8  O   UNL     1      -7.843  -0.503   5.363  0.00  0.00    -0.273 OA
ENDROOT
BRANCH   7   9
ATOM      9  C   UNL     1      -6.574   1.382   6.001  0.00  0.00    +0.190 C 
ATOM     10  C   UNL     1      -5.575   1.278   7.131  0.00  0.00    +0.016 C 
ATOM     11  C   UNL     1      -6.241   1.630   8.254  0.00  0.00    -0.002 A 
ATOM     12  C   UNL     1      -5.835   1.731   9.661  0.00  0.00    +0.029 A 
ATOM     13  C   UNL     1      -6.747   2.120  10.582  0.00  0.00    +0.042 A 
ATOM     14  C   UNL     1      -8.068   2.429  10.225  0.00  0.00    +0.022 A 
ATOM     15  C   UNL     1      -8.515   2.361   8.954  0.00  0.00    +0.027 A 
ATOM     16  C   UNL     1      -7.641   1.962   7.904  0.00  0.00    +0.043 A 
ATOM     17  N   UNL     1      -7.833   1.821   6.614  0.00  0.00    -0.370 N 
ATOM     18 CL   UNL     1      -6.271   2.240  12.247  0.00  0.00    -0.084 Cl
ATOM     19  H   UNL     1      -8.666   1.980   6.144  0.00  0.00    +0.161 HD
ENDBRANCH   7   9
BRANCH   1  20
ATOM     20  C   UNL     1      -3.442  -1.177   1.191  0.00  0.00    +0.075 C 
ATOM     21  C   UNL     1      -3.474  -2.577   0.575  0.00  0.00    +0.017 C 
BRANCH  20  23
ATOM     22  N   UNL     1      -1.372  -0.511   0.012  0.00  0.00    -0.312 N 
ATOM     23  C   UNL     1      -2.029  -0.655   1.181  0.00  0.00    +0.216 C 
ATOM     24  O   UNL     1      -1.481  -0.365   2.224  0.00  0.00    -0.276 OA
ATOM     25  H   UNL     1      -1.810  -0.743  -0.822  0.00  0.00    +0.149 HD
BRANCH  22  27
ATOM     26  C   UNL     1      -0.019   1.526   0.010  0.00  0.00    +0.028 C 
ATOM     27  C   UNL     1       0.002  -0.004   0.002  0.00  0.00    +0.077 C 
BRANCH  27  28
ATOM     28  C   UNL     1       0.718  -0.497  -1.257  0.00  0.00    +0.096 C 
BRANCH  28  29
ATOM     29  C   UNL     1       0.847  -1.998  -1.206  0.00  0.00    +0.107 A 
ATOM     30  C   UNL     1      -0.044  -2.881  -1.691  0.00  0.00    +0.045 A 
ATOM     31  C   UNL     1       0.474  -4.171  -1.430  0.00  0.00    +0.041 A 
ATOM     32  C   UNL     1       1.650  -3.998  -0.801  0.00  0.00    +0.195 A 
ATOM     33  O   UNL     1       1.874  -2.680  -0.673  0.00  0.00    -0.468 OA
ENDBRANCH  28  29
ENDBRANCH  27  28
ENDBRANCH  22  27
ENDBRANCH  20  23
ENDBRANCH   1  20
TORSDOF 6
