REMARK  Name = ZINC10346972
REMARK  7 active torsions:
REMARK  status: ('A' for Active; 'I' for Inactive)
REMARK    1  A    between atoms: C_1  and  C_2
REMARK    2  A    between atoms: C_5  and  N_19
REMARK    3  A    between atoms: C_6  and  O_8
REMARK    4  A    between atoms: O_8  and  C_9
REMARK    5  A    between atoms: C_9  and  C_10
REMARK    6  A    between atoms: C_13  and  O_17
REMARK    7  A    between atoms: O_17  and  C_18
REMARK                            x       y       z     vdW  Elec       q    Type
REMARK                         _______ _______ _______ _____ _____    ______ ____
ROOT
ATOM      1  O   UNL     1      -1.715  -1.010  -1.335  0.00  0.00    -0.485 OA
ENDROOT
BRANCH   1   7
ATOM      2  C   UNL     1      -5.550  -3.312   0.619  0.00  0.00    +0.044 C 
ATOM      3  C   UNL     1      -4.770  -2.835  -0.579  0.00  0.00    -0.047 A 
ATOM      4  C   UNL     1      -5.235  -3.098  -1.855  0.00  0.00    +0.006 A 
ATOM      5  C   UNL     1      -4.523  -2.661  -2.956  0.00  0.00    +0.037 A 
ATOM      6  C   UNL     1      -3.344  -1.962  -2.785  0.00  0.00    +0.168 A 
ATOM      7  C   UNL     1      -2.875  -1.697  -1.506  0.00  0.00    +0.151 A 
ATOM      8  C   UNL     1      -3.590  -2.140  -0.402  0.00  0.00    +0.051 A 
BRANCH   6   9
ATOM      9  N   UNL     1      -2.581  -1.495  -3.964  0.00  0.00    +0.060 N 
ATOM     10  O   UNL     1      -2.993  -1.728  -5.087  0.00  0.00    -0.126 OA
ATOM     11  O   UNL     1      -1.542  -0.878  -3.813  0.00  0.00    -0.126 OA
ENDBRANCH   6   9
ENDBRANCH   1   7
BRANCH   1  12
ATOM     12  C   UNL     1      -1.293  -0.774   0.010  0.00  0.00    +0.264 C 
BRANCH  12  13
ATOM     13  C   UNL     1       0.002  -0.004   0.002  0.00  0.00    -0.009 A 
ATOM     14  C   UNL     1       1.208  -0.682  -0.013  0.00  0.00    +0.010 A 
ATOM     15  C   UNL     1       2.397   0.021  -0.021  0.00  0.00    +0.047 A 
ATOM     16  C   UNL     1       2.381   1.409  -0.013  0.00  0.00    +0.134 A 
ATOM     17  C   UNL     1       1.170   2.087   0.002  0.00  0.00    +0.060 A 
ATOM     18  C   UNL     1      -0.017   1.378   0.010  0.00  0.00    +0.026 A 
ATOM     19 BR   UNL     1       1.144   3.977   0.012  0.00  0.00    -0.047 Br
BRANCH  16  20
ATOM     20  O   UNL     1       3.550   2.102  -0.021  0.00  0.00    -0.494 OA
ATOM     21  C   UNL     1       4.758   1.339  -0.037  0.00  0.00    +0.277 C 
ENDBRANCH  16  20
ENDBRANCH  12  13
ENDBRANCH   1  12
TORSDOF 5
