REMARK  Name = ZINC39667156
REMARK  9 active torsions:
REMARK  status: ('A' for Active; 'I' for Inactive)
REMARK    1  A    between atoms: C_1  and  C_2
REMARK    2  A    between atoms: C_5  and  C_9
REMARK    3  A    between atoms: C_6  and  C_8
REMARK    4  A    between atoms: C_9  and  C_10
REMARK    5  A    between atoms: C_10  and  N_11
REMARK    6  A    between atoms: C_12  and  C_14
REMARK    7  A    between atoms: C_25  and  C_27
REMARK    8  A    between atoms: C_30  and  O_34
REMARK    9  A    between atoms: O_34  and  C_35
REMARK                            x       y       z     vdW  Elec       q    Type
REMARK                         _______ _______ _______ _____ _____    ______ ____
ROOT
ATOM      1  C   UNL     1      -2.681  -8.121  -0.371  0.00  0.00    +0.100 C 
ATOM      2  C   UNL     1      -2.083  -8.895  -1.567  0.00  0.00    +0.121 C 
ATOM      3  N   UNL     1      -2.923 -10.111  -1.683  0.00  0.00    -0.296 N 
ATOM      4  C   UNL     1      -4.300  -9.634  -1.410  0.00  0.00    +0.115 C 
ATOM      5  C   UNL     1      -4.136  -8.608  -0.272  0.00  0.00    -0.004 C 
ATOM      6  C   UNL     1      -5.099  -7.441  -0.471  0.00  0.00    -0.010 C 
ATOM      7  C   UNL     1      -6.538  -7.940  -0.310  0.00  0.00    -0.082 C 
ATOM      8  N   UNL     1      -6.710  -8.520   1.027  0.00  0.00    +0.379 N 
ATOM      9  C   UNL     1      -5.848  -9.698   1.177  0.00  0.00    -0.082 C 
ATOM     10  C   UNL     1      -4.379  -9.274   1.079  0.00  0.00    -0.010 C 
ATOM     11  C   UNL     1      -2.525 -11.365  -1.972  0.00  0.00    +0.247 C 
ATOM     12  O   UNL     1      -1.339 -11.625  -2.044  0.00  0.00    -0.270 OA
ATOM     13  H   UNL     1      -6.463  -7.834   1.725  0.00  0.00    -0.086 HD
ATOM     14  H   UNL     1      -7.673  -8.792   1.153  0.00  0.00    -0.086 HD
ENDROOT
BRANCH  11  15
ATOM     15  C   UNL     1      -3.528 -12.424  -2.199  0.00  0.00    +0.040 A 
ATOM     16  C   UNL     1      -4.837 -12.085  -2.548  0.00  0.00    +0.036 A 
ATOM     17  C   UNL     1      -5.771 -13.076  -2.759  0.00  0.00    +0.085 A 
ATOM     18  C   UNL     1      -5.412 -14.413  -2.624  0.00  0.00    +0.157 A 
ATOM     19  C   UNL     1      -4.109 -14.754  -2.277  0.00  0.00    +0.085 A 
ATOM     20  C   UNL     1      -3.168 -13.768  -2.070  0.00  0.00    +0.036 A 
ATOM     21 CL   UNL     1      -3.666 -16.424  -2.109  0.00  0.00    -0.080 Cl
ATOM     22 CL   UNL     1      -7.399 -12.656  -3.193  0.00  0.00    -0.080 Cl
BRANCH  18  23
ATOM     23  O   UNL     1      -6.334 -15.387  -2.832  0.00  0.00    -0.492 OA
ATOM     24  C   UNL     1      -6.457 -15.891  -4.164  0.00  0.00    +0.277 C 
ENDBRANCH  18  23
ENDBRANCH  11  15
BRANCH   1  26
ATOM     25  N   UNL     1      -2.521  -5.774   0.395  0.00  0.00    -0.315 N 
ATOM     26  C   UNL     1      -2.641  -6.637  -0.633  0.00  0.00    +0.218 C 
ATOM     27  O   UNL     1      -2.716  -6.220  -1.770  0.00  0.00    -0.275 OA
ATOM     28  H   UNL     1      -2.460  -6.108   1.304  0.00  0.00    +0.149 HD
BRANCH  25  29
ATOM     29  C   UNL     1      -2.482  -4.332   0.140  0.00  0.00    +0.109 C 
BRANCH  29  30
ATOM     30  C   UNL     1      -2.343  -3.583   1.466  0.00  0.00    +0.054 C 
BRANCH  30  35
ATOM     31  C   UNL     1      -2.190   2.105   0.457  0.00  0.00    +0.044 C 
ATOM     32  C   UNL     1      -2.229   0.622   0.720  0.00  0.00    -0.050 A 
ATOM     33  C   UNL     1      -1.051  -0.090   0.847  0.00  0.00    +0.003 A 
ATOM     34  C   UNL     1      -1.087  -1.450   1.089  0.00  0.00    +0.004 A 
ATOM     35  C   UNL     1      -2.303  -2.099   1.204  0.00  0.00    -0.043 A 
ATOM     36  C   UNL     1      -3.481  -1.388   1.078  0.00  0.00    -0.047 A 
ATOM     37  C   UNL     1      -3.444  -0.026   0.840  0.00  0.00    +0.007 A 
ATOM     38  C   UNL     1      -4.806  -2.096   1.203  0.00  0.00    +0.044 C 
ENDBRANCH  30  35
ENDBRANCH  29  30
ENDBRANCH  25  29
ENDBRANCH   1  26
TORSDOF 6
