REMARK  Name = ZINC06403709
REMARK  9 active torsions:
REMARK  status: ('A' for Active; 'I' for Inactive)
REMARK    1  A    between atoms: C_1  and  O_2
REMARK    2  A    between atoms: O_2  and  C_3
REMARK    3  A    between atoms: C_5  and  C_10
REMARK    4  A    between atoms: C_8  and  O_9
REMARK    5  A    between atoms: C_10  and  C_12
REMARK    6  A    between atoms: C_10  and  C_22
REMARK    7  A    between atoms: C_23  and  C_32
REMARK    8  A    between atoms: C_32  and  C_33
REMARK    9  A    between atoms: C_33  and  N_56
REMARK                            x       y       z     vdW  Elec       q    Type
REMARK                         _______ _______ _______ _____ _____    ______ ____
ROOT
ATOM      1  C   UNL     1      -1.099  -3.565  -0.007  0.00  0.00    +0.098 C 
ENDROOT
BRANCH   1   2
ATOM      2  C   UNL     1      -0.708  -4.329  -1.245  0.00  0.00    -0.009 A 
ATOM      3  C   UNL     1       0.534  -4.694  -1.600  0.00  0.00    +0.088 A 
ATOM      4  N   UNL     1       0.500  -5.374  -2.787  0.00  0.00    -0.360 N 
ATOM      5  H   UNL     1       1.275  -5.737  -3.243  0.00  0.00    +0.165 HD
ATOM      6  C   UNL     1      -0.798  -5.466  -3.236  0.00  0.00    +0.047 A 
ATOM      7  C   UNL     1      -1.613  -4.820  -2.288  0.00  0.00    +0.004 A 
ATOM      8  C   UNL     1      -2.993  -4.751  -2.486  0.00  0.00    +0.010 A 
ATOM      9  C   UNL     1      -3.547  -5.321  -3.598  0.00  0.00    +0.001 A 
ATOM     10  C   UNL     1      -2.749  -5.964  -4.533  0.00  0.00    +0.002 A 
ATOM     11  C   UNL     1      -1.384  -6.039  -4.360  0.00  0.00    +0.026 A 
ENDBRANCH   1   2
BRANCH   1  12
ATOM     12  C   UNL     1      -0.411  -2.224  -0.006  0.00  0.00    +0.032 A 
ATOM     13  C   UNL     1      -1.037  -1.036   0.006  0.00  0.00    -0.020 A 
ATOM     14  C   UNL     1       0.002  -0.004   0.002  0.00  0.00    +0.003 A 
ATOM     15  C   UNL     1      -0.017   1.392   0.010  0.00  0.00    +0.010 A 
ATOM     16  C   UNL     1       1.160   2.086   0.002  0.00  0.00    +0.001 A 
ATOM     17  C   UNL     1       2.375   1.415  -0.014  0.00  0.00    +0.002 A 
ATOM     18  C   UNL     1       2.417   0.038  -0.021  0.00  0.00    +0.026 A 
ATOM     19  C   UNL     1       1.230  -0.689  -0.013  0.00  0.00    +0.047 A 
ATOM     20  N   UNL     1       0.944  -2.036  -0.018  0.00  0.00    -0.357 N 
ATOM     21  H   UNL     1       1.605  -2.746  -0.028  0.00  0.00    +0.166 HD
BRANCH  13  22
ATOM     22  C   UNL     1      -2.527  -0.809   0.022  0.00  0.00    +0.018 C 
BRANCH  22  23
ATOM     23  C   UNL     1      -3.045  -0.724  -1.415  0.00  0.00    -0.082 C 
BRANCH  23  26
ATOM     24  H   UNL     1      -4.731   0.322  -0.867  0.00  0.00    -0.090 HD
ATOM     25  H   UNL     1      -4.864  -0.443  -2.337  0.00  0.00    -0.090 HD
ATOM     26  N   UNL     1      -4.505  -0.524  -1.388  0.00  0.00    +0.378 N 
ATOM     27  H   UNL     1      -4.948  -1.329  -0.929  0.00  0.00    -0.090 HD
ENDBRANCH  23  26
ENDBRANCH  22  23
ENDBRANCH  13  22
ENDBRANCH   1  12
BRANCH   1  30
ATOM     28  C   UNL     1      -1.256  -5.462   3.256  0.00  0.00    +0.162 A 
ATOM     29  C   UNL     1      -1.636  -4.743   2.135  0.00  0.00    +0.054 A 
ATOM     30  C   UNL     1      -0.684  -4.343   1.216  0.00  0.00    -0.030 A 
ATOM     31  C   UNL     1       0.649  -4.650   1.418  0.00  0.00    +0.008 A 
ATOM     32  C   UNL     1       1.035  -5.362   2.538  0.00  0.00    +0.049 A 
ATOM     33  C   UNL     1       0.085  -5.771   3.460  0.00  0.00    +0.158 A 
BRANCH  28  35
ATOM     34  C   UNL     1      -3.550  -5.508   3.885  0.00  0.00    +0.277 C 
ATOM     35  O   UNL     1      -2.192  -5.861   4.159  0.00  0.00    -0.491 OA
ENDBRANCH  28  35
BRANCH  33  36
ATOM     36  O   UNL     1       0.463  -6.472   4.563  0.00  0.00    -0.503 OA
ATOM     37  H   UNL     1       0.679  -5.918   5.326  0.00  0.00    +0.292 HD
ENDBRANCH  33  36
ENDBRANCH   1  30
TORSDOF 8
