REMARK  Name = ZINC40038115
REMARK  9 active torsions:
REMARK  status: ('A' for Active; 'I' for Inactive)
REMARK    1  A    between atoms: C_1  and  C_2
REMARK    2  A    between atoms: C_2  and  O_3
REMARK    3  A    between atoms: O_3  and  C_4
REMARK    4  A    between atoms: C_4  and  C_6
REMARK    5  A    between atoms: C_10  and  N_11
REMARK    6  A    between atoms: C_12  and  C_14
REMARK    7  A    between atoms: C_15  and  C_25
REMARK    8  A    between atoms: C_18  and  C_24
REMARK    9  A    between atoms: C_20  and  C_23
REMARK                            x       y       z     vdW  Elec       q    Type
REMARK                         _______ _______ _______ _____ _____    ______ ____
ROOT
ATOM      1  N   UNL     1      -0.601  -2.454  -3.921  0.00  0.00    -0.273 N 
ATOM      2  C   UNL     1      -1.116  -2.781  -5.123  0.00  0.00    +0.284 C 
ATOM      3  O   UNL     1      -0.393  -3.226  -5.994  0.00  0.00    -0.266 OA
ATOM      4  H   UNL     1      -1.178  -2.099  -3.227  0.00  0.00    +0.156 HD
ENDROOT
BRANCH   2   5
ATOM      5  C   UNL     1      -2.551  -2.601  -5.381  0.00  0.00    +0.194 A 
ATOM      6  C   UNL     1      -3.180  -2.900  -6.548  0.00  0.00    +0.008 A 
ATOM      7  C   UNL     1      -4.588  -2.561  -6.348  0.00  0.00    +0.024 A 
ATOM      8  C   UNL     1      -5.730  -2.631  -7.150  0.00  0.00    +0.015 A 
ATOM      9  C   UNL     1      -6.934  -2.223  -6.651  0.00  0.00    -0.049 A 
ATOM     10  C   UNL     1      -7.030  -1.738  -5.353  0.00  0.00    +0.010 A 
ATOM     11  C   UNL     1      -5.915  -1.660  -4.546  0.00  0.00    -0.007 A 
ATOM     12  C   UNL     1      -4.679  -2.071  -5.032  0.00  0.00    +0.139 A 
ATOM     13  O   UNL     1      -3.445  -2.119  -4.493  0.00  0.00    -0.450 OA
ATOM     14  C   UNL     1      -6.037  -1.131  -3.140  0.00  0.00    +0.047 C 
ATOM     15  C   UNL     1      -8.167  -2.298  -7.514  0.00  0.00    +0.044 C 
ATOM     16  C   UNL     1      -2.552  -3.467  -7.795  0.00  0.00    +0.048 C 
ENDBRANCH   2   5
BRANCH   1  21
ATOM     17  C   UNL     1       1.449  -2.344  -2.516  0.00  0.00    +0.091 A 
ATOM     18  C   UNL     1       2.885  -2.621  -2.515  0.00  0.00    -0.021 A 
ATOM     19  C   UNL     1       3.349  -3.117  -3.675  0.00  0.00    -0.004 A 
ATOM     20  S   UNL     1       1.921  -3.211  -4.726  0.00  0.00    -0.077 S 
ATOM     21  C   UNL     1       0.751  -2.623  -3.678  0.00  0.00    +0.087 A 
ATOM     22  C   UNL     1       4.830  -3.379  -3.621  0.00  0.00    +0.043 C 
ATOM     23  C   UNL     1       5.324  -2.577  -2.396  0.00  0.00    +0.010 C 
ATOM     24  C   UNL     1       4.048  -2.505  -1.532  0.00  0.00    +0.037 C 
BRANCH  17  25
ATOM     25  C   UNL     1       0.776  -1.800  -1.335  0.00  0.00    +0.342 C 
ATOM     26  O   UNL     1       0.312  -2.552  -0.499  0.00  0.00    -0.245 OA
BRANCH  25  27
ATOM     27  O   UNL     1       0.671  -0.465  -1.174  0.00  0.00    -0.461 OA
BRANCH  27  29
ATOM     28  C   UNL     1      -0.019   1.526   0.010  0.00  0.00    +0.048 C 
ATOM     29  C   UNL     1       0.002  -0.004   0.002  0.00  0.00    +0.229 C 
ENDBRANCH  27  29
ENDBRANCH  25  27
ENDBRANCH  17  25
ENDBRANCH   1  21
TORSDOF 5
