REMARK  Name = ZINC09207156
REMARK  10 active torsions:
REMARK  status: ('A' for Active; 'I' for Inactive)
REMARK    1  A    between atoms: C_1  and  C_2
REMARK    2  A    between atoms: C_2  and  C_3
REMARK    3  A    between atoms: C_3  and  C_5
REMARK    4  A    between atoms: C_3  and  N_6
REMARK    5  A    between atoms: N_6  and  S_7
REMARK    6  A    between atoms: S_7  and  C_10
REMARK    7  A    between atoms: C_13  and  N_16
REMARK    8  A    between atoms: N_16  and  C_17
REMARK    9  A    between atoms: C_17  and  N_19
REMARK   10  A    between atoms: C_20  and  C_22
REMARK                            x       y       z     vdW  Elec       q    Type
REMARK                         _______ _______ _______ _____ _____    ______ ____
ROOT
ATOM      1  N   UNL     1       2.468  -1.752   5.101  0.00  0.00    -0.297 N 
ATOM      2  H   UNL     1       3.188  -1.235   5.494  0.00  0.00    +0.154 HD
ENDROOT
BRANCH   1   6
ATOM      3  C   UNL     1       0.712  -0.505   1.535  0.00  0.00    +0.105 A 
ATOM      4  C   UNL     1       2.085  -0.444   1.687  0.00  0.00    +0.030 A 
ATOM      5  C   UNL     1       2.670  -0.851   2.870  0.00  0.00    +0.025 A 
ATOM      6  C   UNL     1       1.878  -1.334   3.904  0.00  0.00    +0.033 A 
ATOM      7  C   UNL     1       0.500  -1.400   3.746  0.00  0.00    +0.025 A 
ATOM      8  C   UNL     1      -0.079  -0.985   2.563  0.00  0.00    +0.030 A 
BRANCH   3   9
ATOM      9  S   UNL     1      -0.030   0.022   0.027  0.00  0.00    +0.059 S 
ATOM     10  O   UNL     1      -1.278  -0.651  -0.069  0.00  0.00    -0.153 OA
ATOM     11  O   UNL     1       0.970  -0.083  -0.977  0.00  0.00    -0.153 OA
BRANCH   9  12
ATOM     12  N   UNL     1      -0.373   1.634   0.187  0.00  0.00    -0.187 NA
ATOM     13  H   UNL     1      -1.295   1.937   0.179  0.00  0.00    +0.148 HD
BRANCH  12  14
ATOM     14  C   UNL     1       0.715   2.603   0.335  0.00  0.00    +0.073 C 
ATOM     15  C   UNL     1       0.953   2.880   1.821  0.00  0.00    +0.025 C 
BRANCH  14  17
ATOM     16  C   UNL     1       0.222   3.655  -1.877  0.00  0.00    +0.005 C 
ATOM     17  C   UNL     1       0.338   3.906  -0.372  0.00  0.00    +0.017 C 
ENDBRANCH  14  17
ENDBRANCH  12  14
ENDBRANCH   9  12
ENDBRANCH   3   9
ENDBRANCH   1   6
BRANCH   1  18
ATOM     18  C   UNL     1       2.034  -2.874   5.710  0.00  0.00    +0.141 C 
ATOM     19  S   UNL     1       0.862  -3.863   4.948  0.00  0.00    -0.018 S 
BRANCH  18  20
ATOM     20  N   UNL     1       2.523  -3.217   6.918  0.00  0.00    -0.264 N 
ATOM     21  C   UNL     1       2.090  -4.339   7.526  0.00  0.00    +0.250 C 
ATOM     22  O   UNL     1       1.258  -5.041   6.986  0.00  0.00    -0.270 OA
ATOM     23  H   UNL     1       3.187  -2.657   7.349  0.00  0.00    +0.157 HD
BRANCH  21  24
ATOM     24  C   UNL     1       2.626  -4.716   8.851  0.00  0.00    +0.040 A 
ATOM     25  C   UNL     1       3.586  -3.915   9.472  0.00  0.00    +0.033 A 
ATOM     26  C   UNL     1       4.080  -4.269  10.711  0.00  0.00    +0.043 A 
ATOM     27  C   UNL     1       3.632  -5.422  11.334  0.00  0.00    +0.040 A 
ATOM     28  C   UNL     1       2.684  -6.223  10.721  0.00  0.00    +0.043 A 
ATOM     29  C   UNL     1       2.179  -5.877   9.484  0.00  0.00    +0.033 A 
ATOM     30 CL   UNL     1       2.129  -7.667  11.510  0.00  0.00    -0.083 Cl
ATOM     31 CL   UNL     1       5.269  -3.271  11.488  0.00  0.00    -0.083 Cl
ENDBRANCH  21  24
ENDBRANCH  18  20
ENDBRANCH   1  18
TORSDOF 8
