REMARK  Name = ZINC06705226
REMARK  10 active torsions:
REMARK  status: ('A' for Active; 'I' for Inactive)
REMARK    1  A    between atoms: C_1  and  C_2
REMARK    2  A    between atoms: C_2  and  C_3
REMARK    3  A    between atoms: C_12  and  C_13
REMARK    4  A    between atoms: C_13  and  C_15
REMARK    5  A    between atoms: C_13  and  C_24
REMARK    6  A    between atoms: C_15  and  C_16
REMARK    7  A    between atoms: N_18  and  C_19
REMARK    8  A    between atoms: C_19  and  C_21
REMARK    9  A    between atoms: C_19  and  C_22
REMARK   10  A    between atoms: C_22  and  C_23
REMARK                            x       y       z     vdW  Elec       q    Type
REMARK                         _______ _______ _______ _____ _____    ______ ____
ROOT
ATOM      1  C   UNL     1      -3.584   0.389   3.300  0.00  0.00    +0.060 C 
ENDROOT
BRANCH   1  11
ATOM      2  C   UNL     1      -7.360   2.158   6.088  0.00  0.00    -0.024 A 
ATOM      3  C   UNL     1      -8.349   2.096   5.131  0.00  0.00    +0.005 A 
ATOM      4  C   UNL     1      -8.070   1.631   3.853  0.00  0.00    +0.001 A 
ATOM      5  C   UNL     1      -6.808   1.227   3.522  0.00  0.00    +0.010 A 
ATOM      6  C   UNL     1      -5.790   1.281   4.476  0.00  0.00    +0.004 A 
ATOM      7  C   UNL     1      -6.068   1.751   5.773  0.00  0.00    +0.050 A 
ATOM      8  N   UNL     1      -4.892   1.692   6.486  0.00  0.00    -0.360 N 
ATOM      9  H   UNL     1      -4.789   1.957   7.414  0.00  0.00    +0.165 HD
ATOM     10  C   UNL     1      -3.891   1.200   5.694  0.00  0.00    +0.088 A 
ATOM     11  C   UNL     1      -4.366   0.938   4.466  0.00  0.00    -0.015 A 
BRANCH   2  13
ATOM     12  C   UNL     1      -7.344   4.156   7.556  0.00  0.00    +0.009 C 
ATOM     13  C   UNL     1      -7.676   2.665   7.471  0.00  0.00    +0.034 C 
ENDBRANCH   2  13
ENDBRANCH   1  11
BRANCH   1  14
ATOM     14  C   UNL     1      -3.011  -0.955   3.669  0.00  0.00    -0.039 A 
ATOM     15  C   UNL     1      -2.135  -1.064   4.734  0.00  0.00    +0.005 A 
ATOM     16  C   UNL     1      -1.614  -2.298   5.076  0.00  0.00    +0.020 A 
ATOM     17  C   UNL     1      -1.958  -3.421   4.345  0.00  0.00    +0.041 A 
ATOM     18  C   UNL     1      -2.830  -3.310   3.276  0.00  0.00    +0.020 A 
ATOM     19  C   UNL     1      -3.356  -2.077   2.939  0.00  0.00    +0.005 A 
ATOM     20 CL   UNL     1      -1.297  -4.969   4.769  0.00  0.00    -0.084 Cl
ENDBRANCH   1  14
BRANCH   1  21
ATOM     21  C   UNL     1      -2.447   1.351   2.951  0.00  0.00    +0.108 C 
BRANCH  21  22
ATOM     22  C   UNL     1      -1.741   0.865   1.711  0.00  0.00    +0.214 C 
ATOM     23  O   UNL     1      -2.112  -0.151   1.161  0.00  0.00    -0.276 OA
ATOM     24  N   UNL     1      -0.698   1.558   1.213  0.00  0.00    -0.313 N 
ATOM     25  H   UNL     1      -0.402   2.370   1.653  0.00  0.00    +0.149 HD
BRANCH  24  26
ATOM     26  C   UNL     1      -0.013   1.086   0.008  0.00  0.00    +0.070 C 
ATOM     27  C   UNL     1      -0.753   1.593  -1.232  0.00  0.00    +0.028 C 
BRANCH  26  28
ATOM     28  C   UNL     1       1.423   1.615  -0.003  0.00  0.00    +0.018 C 
ATOM     29  C   UNL     1       2.199   1.009   1.168  0.00  0.00    +0.005 C 
ENDBRANCH  26  28
ENDBRANCH  24  26
ENDBRANCH  21  22
ENDBRANCH   1  21
TORSDOF 7
