REMARK  Name = ZINC39576066
REMARK  8 active torsions:
REMARK  status: ('A' for Active; 'I' for Inactive)
REMARK    1  A    between atoms: C_1  and  C_2
REMARK    2  A    between atoms: C_2  and  C_3
REMARK    3  A    between atoms: C_2  and  C_4
REMARK    4  A    between atoms: C_2  and  C_5
REMARK    5  A    between atoms: C_8  and  C_11
REMARK    6  A    between atoms: C_11  and  C_12
REMARK    7  A    between atoms: C_12  and  C_13
REMARK    8  A    between atoms: N_15  and  C_16
REMARK                            x       y       z     vdW  Elec       q    Type
REMARK                         _______ _______ _______ _____ _____    ______ ____
ROOT
ATOM      1  C   UNL     1       3.670  -5.420  -2.708  0.00  0.00    +0.218 C 
ATOM      2  O   UNL     1       3.833  -6.016  -1.664  0.00  0.00    -0.275 OA
ATOM      3  N   UNL     1       4.048  -5.985  -3.872  0.00  0.00    -0.284 N 
ATOM      4  H   UNL     1       3.860  -5.538  -4.712  0.00  0.00    +0.155 HD
ENDROOT
BRANCH   3   5
ATOM      5  C   UNL     1       4.713  -7.218  -3.869  0.00  0.00    +0.052 A 
ATOM      6  C   UNL     1       4.394  -8.178  -2.919  0.00  0.00    +0.026 A 
ATOM      7  C   UNL     1       5.051  -9.393  -2.918  0.00  0.00    +0.022 A 
ATOM      8  C   UNL     1       6.028  -9.653  -3.862  0.00  0.00    +0.042 A 
ATOM      9  C   UNL     1       6.349  -8.699  -4.811  0.00  0.00    +0.041 A 
ATOM     10  C   UNL     1       5.690  -7.484  -4.821  0.00  0.00    +0.064 A 
ATOM     11 CL   UNL     1       6.088  -6.288  -6.015  0.00  0.00    -0.082 Cl
ATOM     12 CL   UNL     1       6.853 -11.181  -3.857  0.00  0.00    -0.083 Cl
ENDBRANCH   3   5
BRANCH   1  13
ATOM     13  C   UNL     1       3.046  -4.049  -2.704  0.00  0.00    +0.102 C 
BRANCH  13  14
ATOM     14  C   UNL     1       2.712  -3.645  -1.266  0.00  0.00    +0.066 C 
BRANCH  14  17
ATOM     15  C   UNL     1       0.673  -0.524  -1.260  0.00  0.00    +0.158 C 
ATOM     16  C   UNL     1       0.774  -2.039  -1.268  0.00  0.00    +0.027 C 
ATOM     17  C   UNL     1       2.088  -2.273  -1.262  0.00  0.00    +0.062 C 
ATOM     18  N   UNL     1       2.782  -1.114  -1.252  0.00  0.00    -0.159 NA
ATOM     19  N   UNL     1       2.081  -0.094  -1.252  0.00  0.00    -0.179 NA
BRANCH  15  21
ATOM     20  C   UNL     1      -0.082   1.493   0.007  0.00  0.00    +0.013 C 
ATOM     21  C   UNL     1      -0.049  -0.036  -0.002  0.00  0.00    -0.010 C 
ATOM     22  C   UNL     1       0.694  -0.537   1.239  0.00  0.00    +0.013 C 
ATOM     23  C   UNL     1      -1.480  -0.577   0.008  0.00  0.00    +0.013 C 
ENDBRANCH  15  21
ENDBRANCH  14  17
ENDBRANCH  13  14
ENDBRANCH   1  13
TORSDOF 5
