REMARK  Name = ZINC20475522
REMARK  3 active torsions:
REMARK  status: ('A' for Active; 'I' for Inactive)
REMARK    1  A    between atoms: C_5  and  S_7
REMARK    2  A    between atoms: S_7  and  N_10
REMARK    3  A    between atoms: C_14  and  N_16
REMARK                            x       y       z     vdW  Elec       q    Type
REMARK                         _______ _______ _______ _____ _____    ______ ____
ROOT
ATOM      1  S   UNL     1      -1.556   2.241   0.018  0.00  0.00    +0.060 S 
ATOM      2  O   UNL     1      -1.680   0.887   0.430  0.00  0.00    -0.153 OA
ATOM      3  O   UNL     1      -0.457   2.705  -0.755  0.00  0.00    -0.153 OA
ENDROOT
BRANCH   1   8
ATOM      4  C   UNL     1      -4.056   3.579  -2.829  0.00  0.00    +0.002 A 
ATOM      5  C   UNL     1      -5.296   3.216  -2.338  0.00  0.00    +0.001 A 
ATOM      6  C   UNL     1      -5.395   2.558  -1.127  0.00  0.00    +0.017 A 
ATOM      7  C   UNL     1      -4.253   2.262  -0.406  0.00  0.00    +0.044 A 
ATOM      8  C   UNL     1      -3.012   2.625  -0.897  0.00  0.00    +0.119 A 
ATOM      9  C   UNL     1      -2.914   3.284  -2.108  0.00  0.00    +0.029 A 
ATOM     10 BR   UNL     1      -4.387   1.361   1.251  0.00  0.00    -0.048 Br
ENDBRANCH   1   8
BRANCH   1  11
ATOM     11  N   UNL     1      -1.586   3.159   1.395  0.00  0.00    -0.191 NA
ATOM     12  C   UNL     1      -2.073   2.715   2.714  0.00  0.00    +0.107 C 
ATOM     13  C   UNL     1      -1.346   3.631   3.733  0.00  0.00    +0.017 C 
ATOM     14  C   UNL     1      -1.331   4.984   2.975  0.00  0.00    +0.002 C 
ATOM     15  C   UNL     1      -1.139   4.556   1.505  0.00  0.00    +0.019 C 
BRANCH  15  16
ATOM     16  N   UNL     1       0.280   4.656   1.136  0.00  0.00    +0.389 N 
ATOM     17  H   UNL     1       0.608   5.702   1.220  0.00  0.00    -0.088 HD
ATOM     18  H   UNL     1       0.415   4.311   0.100  0.00  0.00    -0.088 HD
ATOM     19  H   UNL     1       0.879   4.028   1.812  0.00  0.00    -0.088 HD
ENDBRANCH  15  16
ENDBRANCH   1  11
TORSDOF 3
