REMARK  Name = ZINC16491700
REMARK  9 active torsions:
REMARK  status: ('A' for Active; 'I' for Inactive)
REMARK    1  A    between atoms: C_4  and  S_7
REMARK    2  A    between atoms: S_7  and  C_8
REMARK    3  A    between atoms: C_13  and  N_14
REMARK    4  A    between atoms: C_15  and  C_17
REMARK    5  A    between atoms: C_17  and  O_18
REMARK    6  A    between atoms: O_18  and  C_19
REMARK    7  A    between atoms: C_22  and  S_25
REMARK    8  A    between atoms: S_25  and  N_28
REMARK    9  A    between atoms: N_28  and  C_29
REMARK                            x       y       z     vdW  Elec       q    Type
REMARK                         _______ _______ _______ _____ _____    ______ ____
ROOT
ATOM      1  C   UNL     1       0.981  -4.742  -1.542  0.00  0.00    +0.324 C 
ENDROOT
BRANCH   1   3
ATOM      2  N   UNL     1       0.326  -7.034  -2.204  0.00  0.00    -0.282 N 
ATOM      3  C   UNL     1       0.886  -6.223  -1.284  0.00  0.00    +0.255 C 
ATOM      4  O   UNL     1       1.315  -6.687  -0.248  0.00  0.00    -0.272 OA
ATOM      5  H   UNL     1      -0.082  -6.656  -2.998  0.00  0.00    +0.155 HD
BRANCH   2  11
ATOM      6  C   UNL     1       0.311  -9.280  -3.112  0.00  0.00    +0.034 A 
ATOM      7  C   UNL     1       0.324 -10.654  -2.915  0.00  0.00    +0.017 A 
ATOM      8  C   UNL     1       0.347 -11.167  -1.632  0.00  0.00    +0.001 A 
ATOM      9  C   UNL     1       0.364 -10.316  -0.542  0.00  0.00    +0.002 A 
ATOM     10  C   UNL     1       0.358  -8.946  -0.729  0.00  0.00    +0.024 A 
ATOM     11  C   UNL     1       0.334  -8.421  -2.012  0.00  0.00    +0.047 A 
BRANCH   6  12
ATOM     12  S   UNL     1       0.273  -8.622  -4.746  0.00  0.00    -0.088 S 
BRANCH  12  16
ATOM     13  C   UNL     1      -4.002  -7.219  -5.263  0.00  0.00    +0.000 A 
ATOM     14  C   UNL     1      -3.066  -6.956  -6.247  0.00  0.00    +0.001 A 
ATOM     15  C   UNL     1      -1.762  -7.382  -6.092  0.00  0.00    +0.015 A 
ATOM     16  C   UNL     1      -1.390  -8.076  -4.947  0.00  0.00    +0.013 A 
ATOM     17  C   UNL     1      -2.335  -8.344  -3.964  0.00  0.00    +0.015 A 
ATOM     18  C   UNL     1      -3.636  -7.910  -4.122  0.00  0.00    +0.001 A 
ENDBRANCH  12  16
ENDBRANCH   6  12
ENDBRANCH   2  11
ENDBRANCH   1   3
BRANCH   1  19
ATOM     19  O   UNL     1       1.609  -4.103  -0.429  0.00  0.00    -0.483 OA
BRANCH  19  20
ATOM     20  C   UNL     1       1.772  -2.756  -0.502  0.00  0.00    +0.121 A 
ATOM     21  C   UNL     1       2.374  -2.071   0.543  0.00  0.00    +0.047 A 
ATOM     22  C   UNL     1       2.538  -0.701   0.467  0.00  0.00    +0.032 A 
ATOM     23  C   UNL     1       2.104  -0.013  -0.651  0.00  0.00    +0.105 A 
ATOM     24  C   UNL     1       1.498  -0.693  -1.692  0.00  0.00    +0.032 A 
ATOM     25  C   UNL     1       1.336  -2.063  -1.623  0.00  0.00    +0.047 A 
BRANCH  23  26
ATOM     26  S   UNL     1       2.316   1.733  -0.746  0.00  0.00    +0.059 S 
ATOM     27  O   UNL     1       1.334   2.213  -1.655  0.00  0.00    -0.153 OA
ATOM     28  O   UNL     1       2.410   2.204   0.591  0.00  0.00    -0.153 OA
BRANCH  26  29
ATOM     29  N   UNL     1       3.788   2.010  -1.450  0.00  0.00    -0.187 NA
ATOM     30  H   UNL     1       4.496   2.439  -0.943  0.00  0.00    +0.148 HD
BRANCH  29  31
ATOM     31  C   UNL     1       4.024   1.608  -2.839  0.00  0.00    +0.077 C 
ATOM     32  C   UNL     1       4.680   0.226  -2.866  0.00  0.00    +0.020 C 
ATOM     33  C   UNL     1       4.925  -0.194  -4.317  0.00  0.00    +0.002 C 
ATOM     34  C   UNL     1       5.848   0.822  -4.993  0.00  0.00    +0.000 C 
ATOM     35  C   UNL     1       5.192   2.204  -4.966  0.00  0.00    +0.002 C 
ATOM     36  C   UNL     1       4.946   2.624  -3.515  0.00  0.00    +0.020 C 
ENDBRANCH  29  31
ENDBRANCH  26  29
ENDBRANCH  23  26
ENDBRANCH  19  20
ENDBRANCH   1  19
TORSDOF 9
