REMARK  Name = ZINC12579496
REMARK  7 active torsions:
REMARK  status: ('A' for Active; 'I' for Inactive)
REMARK    1  A    between atoms: C_1  and  C_2
REMARK    2  A    between atoms: C_2  and  O_3
REMARK    3  A    between atoms: O_3  and  C_4
REMARK    4  A    between atoms: C_4  and  C_6
REMARK    5  A    between atoms: C_7  and  C_31
REMARK    6  A    between atoms: C_14  and  C_16
REMARK    7  A    between atoms: C_19  and  C_22
REMARK                            x       y       z     vdW  Elec       q    Type
REMARK                         _______ _______ _______ _____ _____    ______ ____
ROOT
ATOM      1  C   UNL     1      -0.832   1.645  -3.540  0.00  0.00    +0.101 A 
ATOM      2  C   UNL     1      -0.476   1.399  -4.859  0.00  0.00    -0.023 A 
ATOM      3  C   UNL     1      -1.259   1.935  -5.856  0.00  0.00    -0.003 A 
ATOM      4  C   UNL     1      -2.356   2.684  -5.444  0.00  0.00    +0.075 A 
ATOM      5  S   UNL     1      -2.300   2.643  -3.729  0.00  0.00    -0.066 S 
ATOM      6  N   UNL     1      -3.245   3.284  -6.299  0.00  0.00    -0.312 N 
ATOM      7  C   UNL     1      -3.239   2.884  -7.615  0.00  0.00    +0.016 C 
ATOM      8  C   UNL     1      -2.220   2.171  -8.138  0.00  0.00    +0.024 C 
ATOM      9  C   UNL     1      -1.001   1.767  -7.344  0.00  0.00    +0.086 C 
ATOM     10  C   UNL     1      -2.248   1.770  -9.489  0.00  0.00    +0.162 C 
ATOM     11  O   UNL     1      -1.330   1.106  -9.929  0.00  0.00    -0.292 OA
ATOM     12  C   UNL     1      -3.384   2.143 -10.398  0.00  0.00    +0.080 C 
ATOM     13  C   UNL     1      -4.001   3.458  -9.911  0.00  0.00    +0.014 C 
ATOM     14  C   UNL     1      -4.434   3.273  -8.455  0.00  0.00    +0.051 C 
ATOM     15  C   UNL     1       0.736   0.566  -5.190  0.00  0.00    +0.045 C 
ATOM     16  H   UNL     1      -3.857   3.968  -5.986  0.00  0.00    +0.152 HD
ENDROOT
BRANCH   9  17
ATOM     17  C   UNL     1       0.167   2.630  -7.748  0.00  0.00    -0.035 A 
ATOM     18  C   UNL     1       0.105   4.000  -7.575  0.00  0.00    +0.005 A 
ATOM     19  C   UNL     1       1.178   4.792  -7.941  0.00  0.00    +0.012 A 
ATOM     20  C   UNL     1       2.308   4.214  -8.490  0.00  0.00    +0.055 A 
ATOM     21  C   UNL     1       2.367   2.844  -8.667  0.00  0.00    +0.012 A 
ATOM     22  C   UNL     1       1.296   2.052  -8.297  0.00  0.00    +0.005 A 
BRANCH  20  23
ATOM     23  C   UNL     1       3.475   5.077  -8.894  0.00  0.00    +0.417 C 
ATOM     24  F   UNL     1       3.319   5.479 -10.225  0.00  0.00    -0.166 F 
ATOM     25  F   UNL     1       3.527   6.206  -8.069  0.00  0.00    -0.166 F 
ATOM     26  F   UNL     1       4.662   4.348  -8.763  0.00  0.00    -0.166 F 
ENDBRANCH  20  23
ENDBRANCH   9  17
BRANCH   1  27
ATOM     27  C   UNL     1      -0.198   1.210  -2.351  0.00  0.00    +0.346 C 
ATOM     28  O   UNL     1       0.804   0.522  -2.413  0.00  0.00    -0.244 OA
BRANCH  27  29
ATOM     29  O   UNL     1      -0.704   1.559  -1.150  0.00  0.00    -0.461 OA
BRANCH  29  31
ATOM     30  C   UNL     1      -0.729   1.579   1.267  0.00  0.00    +0.048 C 
ATOM     31  C   UNL     1      -0.013   1.086   0.008  0.00  0.00    +0.229 C 
ENDBRANCH  29  31
ENDBRANCH  27  29
ENDBRANCH   1  27
TORSDOF 5
