REMARK  Name = ZINC38009007
REMARK  4 active torsions:
REMARK  status: ('A' for Active; 'I' for Inactive)
REMARK    1  A    between atoms: C_5  and  N_7
REMARK    2  A    between atoms: N_7  and  S_8
REMARK    3  A    between atoms: S_8  and  C_11
REMARK    4  A    between atoms: N_17  and  N_18
REMARK                            x       y       z     vdW  Elec       q    Type
REMARK                         _______ _______ _______ _____ _____    ______ ____
ROOT
ATOM      1  C   UNL     1       0.235  -4.640  -0.025  0.00  0.00    +0.115 A 
ATOM      2  C   UNL     1       0.398  -5.322  -1.224  0.00  0.00    +0.046 A 
ATOM      3  C   UNL     1       0.726  -6.663  -1.200  0.00  0.00    +0.086 A 
ATOM      4  N   UNL     1       0.886  -7.300  -0.056  0.00  0.00    -0.349 N 
ATOM      5  C   UNL     1       0.739  -6.686   1.107  0.00  0.00    +0.112 A 
ATOM      6  C   UNL     1       0.414  -5.333   1.158  0.00  0.00    +0.071 A 
ATOM      7  N   UNL     1       0.916  -7.396   2.289  0.00  0.00    -0.269 N 
ATOM      8  H   UNL     1       0.810  -6.950   3.144  0.00  0.00    +0.167 HD
ATOM      9  H   UNL     1       1.116  -8.242  -0.067  0.00  0.00    +0.167 HD
ENDROOT
BRANCH   1  10
ATOM     10  S   UNL     1      -0.183  -2.929  -0.012  0.00  0.00    +0.092 S 
ATOM     11  O   UNL     1      -0.802  -2.671   1.241  0.00  0.00    -0.148 OA
ATOM     12  O   UNL     1      -0.826  -2.658  -1.250  0.00  0.00    -0.148 OA
BRANCH  10  13
ATOM     13  N   UNL     1       1.238  -2.078  -0.021  0.00  0.00    -0.097 NA
BRANCH  13  18
ATOM     14  C   UNL     1      -0.017   1.377   0.010  0.00  0.00    +0.002 A 
ATOM     15  C   UNL     1       1.171   2.086   0.002  0.00  0.00    +0.001 A 
ATOM     16  C   UNL     1       2.380   1.416  -0.013  0.00  0.00    +0.016 A 
ATOM     17  C   UNL     1       2.406   0.035  -0.021  0.00  0.00    +0.038 A 
ATOM     18  C   UNL     1       1.215  -0.681  -0.013  0.00  0.00    +0.087 A 
ATOM     19  C   UNL     1       0.002  -0.004   0.002  0.00  0.00    +0.028 A 
ATOM     20  I   UNL     1       4.239  -0.979  -0.044  0.00  0.00    -0.042 I 
ENDBRANCH  13  18
ENDBRANCH  10  13
ENDBRANCH   1  10
BRANCH   7  21
ATOM     21  N   UNL     1       1.240  -8.722   2.247  0.00  0.00    -0.255 NA
ATOM     22  H   UNL     1       1.336  -9.101   3.177  0.00  0.00    +0.140 HD
ATOM     23  H   UNL     1       0.562  -9.243   1.712  0.00  0.00    +0.140 HD
ENDBRANCH   7  21
TORSDOF 4
