REMARK  Name = ZINC62287974
REMARK  5 active torsions:
REMARK  status: ('A' for Active; 'I' for Inactive)
REMARK    1  A    between atoms: C_1  and  C_2
REMARK    2  A    between atoms: C_3  and  C_17
REMARK    3  A    between atoms: N_6  and  C_7
REMARK    4  A    between atoms: C_7  and  C_8
REMARK    5  A    between atoms: C_17  and  N_18
REMARK                            x       y       z     vdW  Elec       q    Type
REMARK                         _______ _______ _______ _____ _____    ______ ____
ROOT
ATOM      1  C   UNL     1      -0.506   1.395   0.030  0.00  0.00    +0.067 C 
ATOM      2  C   UNL     1      -0.205  -0.082   0.020  0.00  0.00    +0.058 A 
ATOM      3  C   UNL     1      -0.200  -0.903  -1.056  0.00  0.00    +0.068 A 
ATOM      4  N   UNL     1       0.119  -2.120  -0.603  0.00  0.00    -0.136 NA
ATOM      5  N   UNL     1       0.301  -2.057   0.669  0.00  0.00    -0.065 NA
ATOM      6  N   UNL     1       0.122  -0.852   1.084  0.00  0.00    -0.244 N 
ENDROOT
BRANCH   6   7
ATOM      7  C   UNL     1       0.246  -0.393   2.470  0.00  0.00    +0.183 C 
BRANCH   7   8
ATOM      8  C   UNL     1       1.694  -0.108   2.776  0.00  0.00    +0.012 A 
ATOM      9  C   UNL     1       2.539  -1.138   3.147  0.00  0.00    +0.047 A 
ATOM     10  C   UNL     1       3.868  -0.876   3.428  0.00  0.00    +0.022 A 
ATOM     11  C   UNL     1       4.352   0.415   3.338  0.00  0.00    +0.023 A 
ATOM     12  C   UNL     1       3.509   1.446   2.967  0.00  0.00    +0.060 A 
ATOM     13  C   UNL     1       2.179   1.184   2.681  0.00  0.00    +0.066 A 
ATOM     14 CL   UNL     1       1.121   2.476   2.208  0.00  0.00    -0.082 Cl
ATOM     15 CL   UNL     1       4.117   3.068   2.854  0.00  0.00    -0.082 Cl
ATOM     16 CL   UNL     1       1.931  -2.761   3.261  0.00  0.00    -0.083 Cl
ENDBRANCH   7   8
ENDBRANCH   6   7
BRANCH   3  17
ATOM     17  C   UNL     1      -0.498  -0.521  -2.483  0.00  0.00    -0.026 C 
BRANCH  17  18
ATOM     18  N   UNL     1       0.747  -0.120  -3.152  0.00  0.00    +0.382 N 
ATOM     19  H   UNL     1       1.149   0.669  -2.670  0.00  0.00    -0.090 HD
ATOM     20  H   UNL     1       1.399  -0.891  -3.139  0.00  0.00    -0.090 HD
ATOM     21  H   UNL     1       0.548   0.135  -4.108  0.00  0.00    -0.090 HD
ENDBRANCH  17  18
ENDBRANCH   3  17
TORSDOF 4
