REMARK  Name = ZINC21230391
REMARK  9 active torsions:
REMARK  status: ('A' for Active; 'I' for Inactive)
REMARK    1  A    between atoms: C_1  and  C_2
REMARK    2  A    between atoms: C_2  and  C_3
REMARK    3  A    between atoms: C_2  and  C_4
REMARK    4  A    between atoms: C_4  and  C_6
REMARK    5  A    between atoms: C_4  and  S_12
REMARK    6  A    between atoms: S_12  and  C_13
REMARK    7  A    between atoms: N_26  and  C_27
REMARK    8  A    between atoms: C_32  and  O_33
REMARK    9  A    between atoms: O_33  and  C_34
REMARK                            x       y       z     vdW  Elec       q    Type
REMARK                         _______ _______ _______ _____ _____    ______ ____
ROOT
ATOM      1  C   UNL     1       2.947   4.228   1.188  0.00  0.00    +0.178 A 
ATOM      2  N   UNL     1       4.082   4.898   1.215  0.00  0.00    -0.215 NA
ATOM      3  C   UNL     1       4.680   5.268   0.089  0.00  0.00    +0.117 A 
ATOM      4  C   UNL     1       4.148   4.964  -1.175  0.00  0.00    +0.076 A 
ATOM      5  C   UNL     1       4.921   5.438  -2.325  0.00  0.00    -0.023 A 
ATOM      6  C   UNL     1       6.058   6.114  -2.061  0.00  0.00    -0.004 A 
ATOM      7  S   UNL     1       6.166   6.160  -0.292  0.00  0.00    -0.073 S 
ATOM      8  C   UNL     1       7.017   6.698  -3.053  0.00  0.00    +0.043 C 
ATOM      9  C   UNL     1       6.714   6.096  -4.432  0.00  0.00    +0.005 C 
ATOM     10  C   UNL     1       5.205   6.172  -4.681  0.00  0.00    +0.005 C 
ATOM     11  C   UNL     1       4.477   5.189  -3.764  0.00  0.00    +0.037 C 
ATOM     12  C   UNL     1       2.920   4.231  -1.175  0.00  0.00    +0.268 A 
ATOM     13  O   UNL     1       2.385   3.922  -2.226  0.00  0.00    -0.267 OA
ATOM     14  N   UNL     1       2.363   3.886   0.001  0.00  0.00    -0.252 N 
ENDROOT
BRANCH  14  15
ATOM     15  C   UNL     1       1.159   3.168   0.008  0.00  0.00    +0.093 A 
ATOM     16  C   UNL     1       1.176   1.781   0.000  0.00  0.00    +0.030 A 
ATOM     17  C   UNL     1      -0.013   1.076   0.008  0.00  0.00    +0.002 A 
ATOM     18  C   UNL     1      -1.220   1.749   0.017  0.00  0.00    +0.004 A 
ATOM     19  C   UNL     1      -1.246   3.131   0.031  0.00  0.00    +0.048 A 
ATOM     20  C   UNL     1      -0.058   3.846   0.023  0.00  0.00    +0.144 A 
BRANCH  20  21
ATOM     21  O   UNL     1      -0.081   5.205   0.031  0.00  0.00    -0.493 OA
ATOM     22  C   UNL     1      -1.365   5.832   0.047  0.00  0.00    +0.277 C 
ENDBRANCH  20  21
ENDBRANCH  14  15
BRANCH   1  23
ATOM     23  S   UNL     1       2.177   3.761   2.702  0.00  0.00    -0.074 S 
BRANCH  23  24
ATOM     24  C   UNL     1       3.357   4.458   3.884  0.00  0.00    +0.143 C 
BRANCH  24  25
ATOM     25  C   UNL     1       2.830   4.280   5.285  0.00  0.00    +0.234 C 
ATOM     26  O   UNL     1       2.047   3.388   5.529  0.00  0.00    -0.274 OA
ATOM     27  N   UNL     1       3.230   5.114   6.266  0.00  0.00    -0.239 N 
ATOM     28  C   UNL     1       2.758   4.955   7.518  0.00  0.00    +0.303 C 
ATOM     29  O   UNL     1       1.973   4.060   7.763  0.00  0.00    -0.253 OA
ATOM     30  N   UNL     1       3.158   5.789   8.499  0.00  0.00    -0.313 N 
ATOM     31  H   UNL     1       3.940   5.924   6.044  0.00  0.00    +0.159 HD
ATOM     32  H   UNL     1       2.773   5.659   9.521  0.00  0.00    +0.146 HD
ATOM     33  H   UNL     1       3.868   6.599   8.277  0.00  0.00    +0.146 HD
ENDBRANCH  24  25
BRANCH  24  35
ATOM     34  C   UNL     1       5.698   4.327   4.748  0.00  0.00    +0.009 C 
ATOM     35  C   UNL     1       4.700   3.737   3.749  0.00  0.00    +0.005 C 
ATOM     36  C   UNL     1       4.510   2.247   4.037  0.00  0.00    +0.009 C 
ENDBRANCH  24  35
ENDBRANCH  23  24
ENDBRANCH   1  23
TORSDOF 6
