REMARK  Name = ZINC12484029
REMARK  9 active torsions:
REMARK  status: ('A' for Active; 'I' for Inactive)
REMARK    1  A    between atoms: C_1  and  C_2
REMARK    2  A    between atoms: C_2  and  O_3
REMARK    3  A    between atoms: O_3  and  C_4
REMARK    4  A    between atoms: C_12  and  S_14
REMARK    5  A    between atoms: S_14  and  C_15
REMARK    6  A    between atoms: C_15  and  C_16
REMARK    7  A    between atoms: N_18  and  C_19
REMARK    8  A    between atoms: C_24  and  S_25
REMARK    9  A    between atoms: S_25  and  C_26
REMARK                            x       y       z     vdW  Elec       q    Type
REMARK                         _______ _______ _______ _____ _____    ______ ____
ROOT
ATOM      1  C   UNL     1       2.559   0.193  10.406  0.00  0.00    +0.228 C 
ATOM      2  O   UNL     1       2.098   1.026  11.157  0.00  0.00    -0.275 OA
ATOM      3  N   UNL     1       3.177  -0.896  10.906  0.00  0.00    -0.284 N 
ATOM      4  H   UNL     1       3.479  -1.599  10.309  0.00  0.00    +0.155 HD
ENDROOT
BRANCH   3   5
ATOM      5  C   UNL     1       3.382  -1.014  12.287  0.00  0.00    +0.047 A 
ATOM      6  C   UNL     1       2.501  -0.415  13.174  0.00  0.00    +0.024 A 
ATOM      7  C   UNL     1       2.705  -0.532  14.536  0.00  0.00    +0.002 A 
ATOM      8  C   UNL     1       3.787  -1.245  15.019  0.00  0.00    +0.001 A 
ATOM      9  C   UNL     1       4.671  -1.845  14.143  0.00  0.00    +0.017 A 
ATOM     10  C   UNL     1       4.471  -1.738  12.773  0.00  0.00    +0.034 A 
BRANCH  10  11
ATOM     11  S   UNL     1       5.592  -2.508  11.653  0.00  0.00    -0.088 S 
BRANCH  11  12
ATOM     12  C   UNL     1       6.760  -3.308  12.701  0.00  0.00    +0.013 A 
ATOM     13  C   UNL     1       7.957  -2.676  13.020  0.00  0.00    +0.016 A 
ATOM     14  C   UNL     1       8.868  -3.303  13.847  0.00  0.00    +0.021 A 
ATOM     15  C   UNL     1       8.596  -4.564  14.348  0.00  0.00    +0.041 A 
ATOM     16  C   UNL     1       7.408  -5.198  14.028  0.00  0.00    +0.021 A 
ATOM     17  C   UNL     1       6.490  -4.574  13.207  0.00  0.00    +0.016 A 
ATOM     18 CL   UNL     1       9.747  -5.352  15.381  0.00  0.00    -0.084 Cl
ENDBRANCH  11  12
ENDBRANCH  10  11
ENDBRANCH   3   5
BRANCH   1  19
ATOM     19  C   UNL     1       2.442   0.374   8.915  0.00  0.00    +0.173 C 
BRANCH  19  20
ATOM     20  S   UNL     1       1.568   1.920   8.563  0.00  0.00    -0.079 S 
BRANCH  20  29
ATOM     21  C   UNL     1       1.280   2.319   2.289  0.00  0.00    +0.123 A 
ATOM     22  C   UNL     1       1.962   1.108   2.355  0.00  0.00    +0.048 A 
ATOM     23  C   UNL     1       2.285   0.556   3.574  0.00  0.00    +0.033 A 
ATOM     24  C   UNL     1       1.926   1.214   4.753  0.00  0.00    +0.090 A 
ATOM     25  C   UNL     1       1.238   2.436   4.683  0.00  0.00    +0.070 A 
ATOM     26  C   UNL     1       0.923   2.985   3.448  0.00  0.00    +0.073 A 
ATOM     27  N   UNL     1       1.026   2.836   5.992  0.00  0.00    -0.333 N 
ATOM     28  H   UNL     1       0.561   3.670   6.290  0.00  0.00    +0.168 HD
ATOM     29  C   UNL     1       1.573   1.880   6.801  0.00  0.00    +0.168 A 
ATOM     30  N   UNL     1       2.100   0.928   6.072  0.00  0.00    -0.222 NA
BRANCH  21  31
ATOM     31  O   UNL     1       0.967   2.854   1.078  0.00  0.00    -0.492 OA
BRANCH  31  33
ATOM     32  C   UNL     1       0.934   2.871  -1.338  0.00  0.00    +0.048 C 
ATOM     33  C   UNL     1       1.369   2.119  -0.079  0.00  0.00    +0.225 C 
ENDBRANCH  31  33
ENDBRANCH  21  31
ENDBRANCH  20  29
ENDBRANCH  19  20
ENDBRANCH   1  19
TORSDOF 8
