REMARK  Name = ZINC38685196
REMARK  15 active torsions:
REMARK  status: ('A' for Active; 'I' for Inactive)
REMARK    1  A    between atoms: C_1  and  C_2
REMARK    2  A    between atoms: C_2  and  C_3
REMARK    3  A    between atoms: C_3  and  C_4
REMARK    4  A    between atoms: C_4  and  O_5
REMARK    5  A    between atoms: O_5  and  C_6
REMARK    6  A    between atoms: C_10  and  C_12
REMARK    7  A    between atoms: C_17  and  O_26
REMARK    8  A    between atoms: C_21  and  N_25
REMARK    9  A    between atoms: C_22  and  C_23
REMARK   10  A    between atoms: O_26  and  C_27
REMARK   11  A    between atoms: C_27  and  C_29
REMARK   12  A    between atoms: C_29  and  O_30
REMARK   13  A    between atoms: O_30  and  C_31
REMARK   14  A    between atoms: C_33  and  C_38
REMARK   15  A    between atoms: C_35  and  C_37
REMARK                            x       y       z     vdW  Elec       q    Type
REMARK                         _______ _______ _______ _____ _____    ______ ____
ROOT
ATOM      1  C   UNL     1      -5.698  -6.475   0.038  0.00  0.00    +0.098 C 
ATOM      2  C   UNL     1      -5.891  -7.300  -1.207  0.00  0.00    +0.008 A 
ATOM      3  C   UNL     1      -6.215  -6.672  -2.396  0.00  0.00    +0.012 A 
ATOM      4  C   UNL     1      -6.395  -7.412  -3.548  0.00  0.00    +0.047 A 
ATOM      5  C   UNL     1      -6.251  -8.792  -3.514  0.00  0.00    +0.135 A 
ATOM      6  C   UNL     1      -5.927  -9.424  -2.325  0.00  0.00    +0.093 A 
ATOM      7  C   UNL     1      -5.745  -8.678  -1.168  0.00  0.00    +0.138 A 
ATOM      8  O   UNL     1      -5.428  -9.311  -0.012  0.00  0.00    -0.441 OA
ATOM      9  C   UNL     1      -5.625  -8.695   1.166  0.00  0.00    +0.199 C 
ATOM     10  C   UNL     1      -5.759  -7.354   1.255  0.00  0.00    +0.098 C 
ENDROOT
BRANCH   1  15
ATOM     11  C   UNL     1      -3.044  -3.786  -0.043  0.00  0.00    +0.121 A 
ATOM     12  C   UNL     1      -1.886  -4.546  -0.122  0.00  0.00    +0.045 A 
ATOM     13  C   UNL     1      -1.966  -5.924  -0.149  0.00  0.00    +0.004 A 
ATOM     14  C   UNL     1      -3.200  -6.547  -0.097  0.00  0.00    +0.005 A 
ATOM     15  C   UNL     1      -4.355  -5.793  -0.018  0.00  0.00    -0.031 A 
ATOM     16  C   UNL     1      -4.280  -4.413   0.015  0.00  0.00    +0.050 A 
BRANCH  11  17
ATOM     17  O   UNL     1      -2.968  -2.429  -0.016  0.00  0.00    -0.492 OA
BRANCH  17  18
ATOM     18  C   UNL     1      -1.662  -1.852  -0.078  0.00  0.00    +0.229 C 
BRANCH  18  19
ATOM     19  C   UNL     1      -1.777  -0.327  -0.036  0.00  0.00    +0.041 C 
BRANCH  19  21
ATOM     20  C   UNL     1      -0.493   1.817  -0.061  0.00  0.00    +0.004 C 
ATOM     21  C   UNL     1      -0.379   0.292  -0.103  0.00  0.00    -0.000 C 
ENDBRANCH  19  21
ENDBRANCH  18  19
ENDBRANCH  17  18
ENDBRANCH  11  17
ENDBRANCH   1  15
BRANCH   9  22
ATOM     22  N   UNL     1      -5.690  -9.450   2.310  0.00  0.00    -0.328 N 
ATOM     23  H   UNL     1      -5.595 -10.415   2.261  0.00  0.00    +0.145 HD
ATOM     24  H   UNL     1      -5.832  -9.020   3.168  0.00  0.00    +0.145 HD
ENDBRANCH   9  22
BRANCH  10  25
ATOM     25  C   UNL     1      -5.965  -6.759   2.541  0.00  0.00    +0.101 C 
ATOM     26  N   UNL     1      -6.128  -6.286   3.561  0.00  0.00    -0.191 NA
ENDBRANCH  10  25
BRANCH   5  27
ATOM     27  O   UNL     1      -6.429  -9.523  -4.647  0.00  0.00    -0.423 OA
BRANCH  27  28
ATOM     28  C   UNL     1      -7.507 -10.320  -4.720  0.00  0.00    +0.350 C 
ATOM     29  O   UNL     1      -8.337 -10.296  -3.842  0.00  0.00    -0.247 OA
BRANCH  28  30
ATOM     30  C   UNL     1      -7.681 -11.246  -5.896  0.00  0.00    +0.349 C 
BRANCH  30  31
ATOM     31  O   UNL     1      -8.895 -11.985  -5.745  0.00  0.00    -0.481 OA
BRANCH  31  32
ATOM     32  C   UNL     1      -9.204 -12.871  -6.728  0.00  0.00    +0.122 A 
ATOM     33  C   UNL     1      -8.353 -13.031  -7.812  0.00  0.00    +0.049 A 
ATOM     34  C   UNL     1      -8.668 -13.934  -8.809  0.00  0.00    -0.047 A 
ATOM     35  C   UNL     1      -9.832 -14.677  -8.728  0.00  0.00    +0.007 A 
ATOM     36  C   UNL     1     -10.682 -14.519  -7.649  0.00  0.00    -0.047 A 
ATOM     37  C   UNL     1     -10.367 -13.622  -6.646  0.00  0.00    +0.049 A 
ATOM     38  C   UNL     1     -11.949 -15.330  -7.564  0.00  0.00    +0.044 C 
ATOM     39  C   UNL     1      -7.745 -14.108  -9.987  0.00  0.00    +0.044 C 
ENDBRANCH  31  32
ENDBRANCH  30  31
ENDBRANCH  28  30
ENDBRANCH  27  28
ENDBRANCH   5  27
TORSDOF 12
