REMARK  Name = ZINC33234659
REMARK  6 active torsions:
REMARK  status: ('A' for Active; 'I' for Inactive)
REMARK    1  A    between atoms: C_1  and  N_2
REMARK    2  A    between atoms: C_6  and  C_7
REMARK    3  A    between atoms: N_9  and  N_10
REMARK    4  A    between atoms: C_11  and  C_13
REMARK    5  A    between atoms: C_13  and  C_14
REMARK    6  A    between atoms: C_14  and  N_15
REMARK                            x       y       z     vdW  Elec       q    Type
REMARK                         _______ _______ _______ _____ _____    ______ ____
ROOT
ATOM      1  N   UNL     1       0.630   3.930   0.107  0.00  0.00    -0.234 N 
ATOM      2  C   UNL     1       1.672   4.785   0.102  0.00  0.00    +0.231 C 
ATOM      3  O   UNL     1       2.803   4.362  -0.002  0.00  0.00    -0.274 OA
ATOM      4  H   UNL     1      -0.396   4.314   0.201  0.00  0.00    +0.173 HD
ENDROOT
BRANCH   1   7
ATOM      5  C   UNL     1      -0.187   1.697  -0.003  0.00  0.00    +0.277 C 
ATOM      6  O   UNL     1      -1.326   2.126   0.009  0.00  0.00    -0.267 OA
ATOM      7  N   UNL     1       0.854   2.552  -0.008  0.00  0.00    -0.229 N 
ATOM      8  H   UNL     1       1.881   2.168  -0.102  0.00  0.00    +0.173 HD
BRANCH   5  14
ATOM      9  C   UNL     1      -2.349  -0.512   0.207  0.00  0.00    +0.149 C 
ATOM     10  N   UNL     1      -0.906  -0.734   0.074  0.00  0.00    -0.345 N 
ATOM     11  C   UNL     1      -0.293  -1.942   0.023  0.00  0.00    +0.101 A 
ATOM     12  C   UNL     1       1.042  -1.751  -0.102  0.00  0.00    +0.036 A 
ATOM     13  C   UNL     1       1.277  -0.372  -0.136  0.00  0.00    +0.047 A 
ATOM     14  C   UNL     1       0.052   0.250  -0.019  0.00  0.00    +0.107 A 
ATOM     15 BR   UNL     1       2.355  -3.107  -0.217  0.00  0.00    -0.049 Br
ENDBRANCH   5  14
ENDBRANCH   1   7
BRANCH   2  16
ATOM     16  C   UNL     1       1.430   6.268   0.226  0.00  0.00    +0.117 C 
BRANCH  16  17
ATOM     17  C   UNL     1       2.769   7.007   0.194  0.00  0.00    +0.127 C 
BRANCH  17  18
ATOM     18  N   UNL     1       2.535   8.448   0.314  0.00  0.00    -0.224 N 
ATOM     19  C   UNL     1       2.485   9.113   1.487  0.00  0.00    +0.247 C 
ATOM     20  O   UNL     1       2.621   8.650   2.599  0.00  0.00    -0.273 OA
ATOM     21  C   UNL     1       2.224  10.557   1.122  0.00  0.00    +0.113 C 
ATOM     22  C   UNL     1       3.375  11.439   1.592  0.00  0.00    +0.035 C 
ATOM     23  C   UNL     1       3.106  12.891   1.189  0.00  0.00    +0.003 C 
ATOM     24  C   UNL     1       1.792  13.359   1.818  0.00  0.00    +0.000 C 
ATOM     25  C   UNL     1       0.644  12.480   1.318  0.00  0.00    +0.003 C 
ATOM     26  C   UNL     1       0.903  11.026   1.722  0.00  0.00    +0.035 C 
ATOM     27  N   UNL     1       2.149  10.546  -0.344  0.00  0.00    -0.285 N 
ATOM     28  C   UNL     1       2.349   9.270  -0.727  0.00  0.00    +0.309 C 
ATOM     29  O   UNL     1       2.356   8.904  -1.886  0.00  0.00    -0.252 OA
ATOM     30  H   UNL     1       1.960  11.480  -0.892  0.00  0.00    +0.151 HD
ENDBRANCH  17  18
ENDBRANCH  16  17
ENDBRANCH   2  16
TORSDOF 5
