REMARK  Name = ZINC47152198
REMARK  11 active torsions:
REMARK  status: ('A' for Active; 'I' for Inactive)
REMARK    1  A    between atoms: C_1  and  O_2
REMARK    2  A    between atoms: O_2  and  C_3
REMARK    3  A    between atoms: C_5  and  C_12
REMARK    4  A    between atoms: C_7  and  O_10
REMARK    5  A    between atoms: C_8  and  O_9
REMARK    6  A    between atoms: O_10  and  C_11
REMARK    7  A    between atoms: N_16  and  C_20
REMARK    8  A    between atoms: C_20  and  C_21
REMARK    9  A    between atoms: C_21  and  C_22
REMARK   10  A    between atoms: N_24  and  C_25
REMARK   11  A    between atoms: C_28  and  N_31
REMARK                            x       y       z     vdW  Elec       q    Type
REMARK                         _______ _______ _______ _____ _____    ______ ____
ROOT
ATOM      1  C   UNL     1       2.280   0.235  -4.392  0.00  0.00    +0.028 C 
ATOM      2  C   UNL     1       3.033  -0.376  -5.343  0.00  0.00    +0.077 C 
ATOM      3  C   UNL     1       3.809   0.215  -6.452  0.00  0.00    +0.258 C 
ATOM      4  O   UNL     1       3.849   1.418  -6.634  0.00  0.00    -0.269 OA
ATOM      5  N   UNL     1       4.458  -0.629  -7.236  0.00  0.00    -0.255 N 
ATOM      6  C   UNL     1       4.411  -1.961  -7.029  0.00  0.00    +0.121 C 
ATOM      7  S   UNL     1       5.176  -3.203  -7.926  0.00  0.00    -0.027 S 
ATOM      8  S   UNL     1       3.364  -2.114  -5.591  0.00  0.00    -0.061 S 
ENDROOT
BRANCH   1  11
ATOM      9  C   UNL     1       1.675  -2.588  -1.997  0.00  0.00    +0.166 A 
ATOM     10  C   UNL     1       2.174  -1.861  -3.060  0.00  0.00    +0.057 A 
ATOM     11  C   UNL     1       1.751  -0.542  -3.264  0.00  0.00    -0.017 A 
ATOM     12  C   UNL     1       0.823   0.035  -2.389  0.00  0.00    +0.057 A 
ATOM     13  C   UNL     1       0.328  -0.700  -1.328  0.00  0.00    +0.166 A 
ATOM     14  C   UNL     1       0.747  -2.013  -1.132  0.00  0.00    +0.201 A 
BRANCH   9  16
ATOM     15  C   UNL     1       3.038  -4.396  -2.723  0.00  0.00    +0.277 C 
ATOM     16  O   UNL     1       2.085  -3.869  -1.798  0.00  0.00    -0.491 OA
ENDBRANCH   9  16
BRANCH  14  17
ATOM     17  O   UNL     1       0.254  -2.734  -0.090  0.00  0.00    -0.501 OA
ATOM     18  H   UNL     1       0.769  -2.652   0.724  0.00  0.00    +0.292 HD
ENDBRANCH  14  17
BRANCH  13  19
ATOM     19  O   UNL     1      -0.574  -0.141  -0.477  0.00  0.00    -0.491 OA
ATOM     20  C   UNL     1      -0.965   1.208  -0.741  0.00  0.00    +0.277 C 
ENDBRANCH  13  19
ENDBRANCH   1  11
BRANCH   5  21
ATOM     21  C   UNL     1       5.246  -0.105  -8.354  0.00  0.00    +0.124 C 
BRANCH  21  22
ATOM     22  C   UNL     1       6.676   0.170  -7.886  0.00  0.00    +0.115 C 
BRANCH  22  23
ATOM     23  C   UNL     1       7.486   0.709  -9.037  0.00  0.00    +0.219 C 
ATOM     24  O   UNL     1       6.971   0.859 -10.124  0.00  0.00    -0.275 OA
ATOM     25  N   UNL     1       8.784   1.025  -8.858  0.00  0.00    -0.285 N 
ATOM     26  H   UNL     1       9.219   0.830  -8.012  0.00  0.00    +0.155 HD
BRANCH  25  27
ATOM     27  C   UNL     1       9.505   1.635  -9.890  0.00  0.00    +0.034 A 
ATOM     28  C   UNL     1      10.874   1.428  -9.999  0.00  0.00    +0.025 A 
ATOM     29  C   UNL     1      11.583   2.031 -11.020  0.00  0.00    +0.034 A 
ATOM     30  C   UNL     1      10.931   2.840 -11.933  0.00  0.00    +0.126 A 
ATOM     31  C   UNL     1       9.568   3.047 -11.827  0.00  0.00    +0.034 A 
ATOM     32  C   UNL     1       8.852   2.442 -10.812  0.00  0.00    +0.025 A 
BRANCH  30  33
ATOM     33  N   UNL     1      11.693   3.485 -13.025  0.00  0.00    +0.056 N 
ATOM     34  O   UNL     1      12.885   3.304 -13.119  0.00  0.00    -0.126 OA
ATOM     35  O   UNL     1      11.124   4.192 -13.824  0.00  0.00    -0.126 OA
ENDBRANCH  30  33
ENDBRANCH  25  27
ENDBRANCH  22  23
ENDBRANCH  21  22
ENDBRANCH   5  21
TORSDOF 9
