REMARK  Name = ZINC02109603
REMARK  9 active torsions:
REMARK  status: ('A' for Active; 'I' for Inactive)
REMARK    1  A    between atoms: C_1  and  C_2
REMARK    2  A    between atoms: C_6  and  O_21
REMARK    3  A    between atoms: C_7  and  C_20
REMARK    4  A    between atoms: C_12  and  C_13
REMARK    5  A    between atoms: C_13  and  C_14
REMARK    6  A    between atoms: O_21  and  C_22
REMARK    7  A    between atoms: C_22  and  C_24
REMARK    8  A    between atoms: C_22  and  C_25
REMARK    9  A    between atoms: C_30  and  O_38
REMARK                            x       y       z     vdW  Elec       q    Type
REMARK                         _______ _______ _______ _____ _____    ______ ____
ROOT
ATOM      1  C   UNL     1       4.061  -0.791   0.322  0.00  0.00    +0.045 C 
ATOM      2  C   UNL     1       2.736  -0.114   0.084  0.00  0.00    -0.030 A 
ATOM      3  C   UNL     1       2.637   1.346   0.027  0.00  0.00    +0.021 A 
ATOM      4  C   UNL     1       3.769   2.152   0.191  0.00  0.00    +0.015 A 
ATOM      5  C   UNL     1       3.649   3.510   0.133  0.00  0.00    +0.047 A 
ATOM      6  C   UNL     1       2.406   4.100  -0.089  0.00  0.00    +0.128 A 
ATOM      7  C   UNL     1       1.275   3.317  -0.254  0.00  0.00    +0.034 A 
ATOM      8  C   UNL     1       1.379   1.935  -0.198  0.00  0.00    +0.146 A 
ATOM      9  O   UNL     1       0.289   1.154  -0.356  0.00  0.00    -0.422 OA
ATOM     10  C   UNL     1       0.373  -0.185  -0.304  0.00  0.00    +0.341 A 
ATOM     11  O   UNL     1      -0.637  -0.849  -0.453  0.00  0.00    -0.245 OA
ATOM     12  C   UNL     1       1.601  -0.842  -0.083  0.00  0.00    +0.045 A 
ATOM     13  C   UNL     1      -0.065   3.965  -0.494  0.00  0.00    +0.051 C 
ENDROOT
BRANCH  12  14
ATOM     14  C   UNL     1       1.654  -2.347  -0.033  0.00  0.00    +0.077 C 
BRANCH  14  15
ATOM     15  C   UNL     1       1.904  -2.887  -1.417  0.00  0.00    -0.043 A 
ATOM     16  C   UNL     1       0.838  -3.189  -2.244  0.00  0.00    +0.004 A 
ATOM     17  C   UNL     1       1.067  -3.680  -3.516  0.00  0.00    +0.000 A 
ATOM     18  C   UNL     1       2.362  -3.879  -3.957  0.00  0.00    +0.000 A 
ATOM     19  C   UNL     1       3.428  -3.583  -3.127  0.00  0.00    +0.000 A 
ATOM     20  C   UNL     1       3.199  -3.087  -1.858  0.00  0.00    +0.004 A 
ENDBRANCH  14  15
ENDBRANCH  12  14
BRANCH   6  21
ATOM     21  O   UNL     1       2.302   5.452  -0.144  0.00  0.00    -0.480 OA
BRANCH  21  22
ATOM     22  C   UNL     1       3.493   6.204   0.096  0.00  0.00    +0.256 C 
ATOM     23  C   UNL     1       3.707   6.353   1.604  0.00  0.00    +0.062 C 
BRANCH  22  24
ATOM     24  C   UNL     1       3.361   7.569  -0.529  0.00  0.00    +0.256 C 
ATOM     25  O   UNL     1       2.298   7.922  -0.995  0.00  0.00    -0.272 OA
ATOM     26  N   UNL     1       4.423   8.397  -0.572  0.00  0.00    -0.298 N 
ATOM     27  C   UNL     1       5.740   7.951  -0.098  0.00  0.00    +0.110 C 
ATOM     28  C   UNL     1       6.256   8.953   0.939  0.00  0.00    +0.054 C 
ATOM     29  C   UNL     1       6.253  10.358   0.332  0.00  0.00    +0.072 C 
ATOM     30  C   UNL     1       6.787  11.354   1.366  0.00  0.00    +0.035 C 
ATOM     31  C   UNL     1       5.903  11.313   2.614  0.00  0.00    +0.003 C 
ATOM     32  C   UNL     1       4.469  11.690   2.237  0.00  0.00    +0.001 C 
ATOM     33  C   UNL     1       3.936  10.702   1.198  0.00  0.00    +0.008 C 
ATOM     34  C   UNL     1       4.823  10.744  -0.056  0.00  0.00    +0.038 C 
ATOM     35  C   UNL     1       4.289   9.762  -1.098  0.00  0.00    +0.114 C 
BRANCH  29  36
ATOM     36  O   UNL     1       7.086  10.380  -0.828  0.00  0.00    -0.388 OA
ATOM     37  H   UNL     1       8.009  10.147  -0.655  0.00  0.00    +0.210 HD
ENDBRANCH  29  36
ENDBRANCH  22  24
ENDBRANCH  21  22
ENDBRANCH   6  21
TORSDOF 6
