REMARK  Name = ZINC13639929
REMARK  6 active torsions:
REMARK  status: ('A' for Active; 'I' for Inactive)
REMARK    1  A    between atoms: C_1  and  N_2
REMARK    2  A    between atoms: N_5  and  S_8
REMARK    3  A    between atoms: S_8  and  C_11
REMARK    4  A    between atoms: C_24  and  C_27
REMARK    5  A    between atoms: C_30  and  O_34
REMARK    6  A    between atoms: C_32  and  O_33
REMARK                            x       y       z     vdW  Elec       q    Type
REMARK                         _______ _______ _______ _____ _____    ______ ____
ROOT
ATOM      1  C   UNL     1      -0.505  -5.382   0.916  0.00  0.00    +0.106 A 
ATOM      2  C   UNL     1      -1.324  -5.971  -0.031  0.00  0.00    +0.030 A 
ATOM      3  C   UNL     1      -0.926  -7.137  -0.652  0.00  0.00    +0.025 A 
ATOM      4  C   UNL     1       0.297  -7.718  -0.330  0.00  0.00    +0.031 A 
ATOM      5  C   UNL     1       1.122  -7.123   0.609  0.00  0.00    -0.018 A 
ATOM      6  C   UNL     1       0.712  -5.952   1.230  0.00  0.00    +0.034 A 
ATOM      7  C   UNL     1       2.467  -7.688   0.968  0.00  0.00    +0.049 C 
ATOM      8  C   UNL     1       3.487  -6.566   0.857  0.00  0.00    -0.023 C 
ATOM      9  C   UNL     1       4.165  -6.668  -0.257  0.00  0.00    -0.030 C 
ATOM     10  C   UNL     1       3.715  -7.874  -1.055  0.00  0.00    +0.033 C 
ATOM     11  C   UNL     1       2.953  -8.751  -0.013  0.00  0.00    +0.029 C 
ATOM     12  C   UNL     1       1.892  -9.610  -0.632  0.00  0.00    +0.108 C 
ATOM     13  N   UNL     1       0.669  -8.901  -0.958  0.00  0.00    -0.336 N 
ATOM     14  H   UNL     1       0.075  -9.280  -1.625  0.00  0.00    +0.147 HD
ENDROOT
BRANCH  12  15
ATOM     15  C   UNL     1       2.435 -10.191  -1.913  0.00  0.00    +0.015 A 
ATOM     16  C   UNL     1       2.186  -9.559  -3.117  0.00  0.00    +0.012 A 
ATOM     17  C   UNL     1       2.683 -10.089  -4.292  0.00  0.00    +0.046 A 
ATOM     18  C   UNL     1       3.433 -11.256  -4.267  0.00  0.00    +0.120 A 
ATOM     19  C   UNL     1       3.683 -11.891  -3.060  0.00  0.00    +0.091 A 
ATOM     20  C   UNL     1       3.189 -11.355  -1.881  0.00  0.00    +0.125 A 
BRANCH  20  21
ATOM     21  O   UNL     1       3.438 -11.972  -0.696  0.00  0.00    -0.506 OA
ATOM     22  H   UNL     1       2.774 -12.630  -0.448  0.00  0.00    +0.292 HD
ENDBRANCH  20  21
BRANCH  18  23
ATOM     23  O   UNL     1       3.920 -11.777  -5.423  0.00  0.00    -0.507 OA
ATOM     24  H   UNL     1       4.799 -11.451  -5.661  0.00  0.00    +0.292 HD
ENDBRANCH  18  23
ENDBRANCH  12  15
BRANCH   1  25
ATOM     25  S   UNL     1      -1.014  -3.897   1.717  0.00  0.00    +0.061 S 
ATOM     26  O   UNL     1      -0.312  -3.841   2.951  0.00  0.00    -0.153 OA
ATOM     27  O   UNL     1      -2.433  -3.863   1.645  0.00  0.00    -0.153 OA
BRANCH  25  32
ATOM     28  C   UNL     1      -0.018   1.465   0.010  0.00  0.00    +0.105 C 
ATOM     29  N   UNL     1       0.002  -0.004   0.002  0.00  0.00    -0.303 NA
ATOM     30  C   UNL     1      -1.359  -0.548  -0.091  0.00  0.00    +0.101 C 
ATOM     31  C   UNL     1      -1.286  -2.068  -0.279  0.00  0.00    +0.125 C 
ATOM     32  N   UNL     1      -0.463  -2.633   0.801  0.00  0.00    -0.174 NA
ATOM     33  C   UNL     1       0.864  -2.046   1.044  0.00  0.00    +0.125 C 
ATOM     34  C   UNL     1       0.706  -0.527   1.180  0.00  0.00    +0.101 C 
ENDBRANCH  25  32
ENDBRANCH   1  25
TORSDOF 5
