REMARK  Name = ZINC02508401
REMARK  5 active torsions:
REMARK  status: ('A' for Active; 'I' for Inactive)
REMARK    1  A    between atoms: C_4  and  C_7
REMARK    2  A    between atoms: C_15  and  N_16
REMARK    3  A    between atoms: C_22  and  C_23
REMARK    4  A    between atoms: C_22  and  C_29
REMARK    5  A    between atoms: C_22  and  N_62
REMARK                            x       y       z     vdW  Elec       q    Type
REMARK                         _______ _______ _______ _____ _____    ______ ____
ROOT
ATOM      1  C   UNL     1      -6.304   8.855  -6.985  0.00  0.00    +0.040 A 
ATOM      2  C   UNL     1      -6.780   9.543  -5.859  0.00  0.00    +0.126 A 
ATOM      3  N   UNL     1      -6.143   9.457  -4.711  0.00  0.00    -0.218 NA
ATOM      4  C   UNL     1      -5.034   8.719  -4.582  0.00  0.00    +0.256 A 
ATOM      5  N   UNL     1      -4.238   8.480  -3.544  0.00  0.00    -0.176 NA
ATOM      6  C   UNL     1      -3.245   7.674  -3.915  0.00  0.00    +0.239 A 
ATOM      7  N   UNL     1      -3.381   7.369  -5.188  0.00  0.00    -0.126 NA
ATOM      8  N   UNL     1      -4.528   8.030  -5.648  0.00  0.00    -0.180 N 
ATOM      9  C   UNL     1      -5.149   8.084  -6.860  0.00  0.00    +0.131 A 
ATOM     10  N   UNL     1      -2.225   7.219  -3.083  0.00  0.00    -0.302 N 
ATOM     11  C   UNL     1      -2.377   7.753  -1.723  0.00  0.00    +0.089 C 
ATOM     12  C   UNL     1      -1.197   7.296  -0.863  0.00  0.00    -0.058 C 
ATOM     13  C   UNL     1      -0.995   5.293  -2.207  0.00  0.00    -0.058 C 
ATOM     14  C   UNL     1      -2.175   5.750  -3.067  0.00  0.00    +0.089 C 
ATOM     15  N   UNL     1      -1.171   5.818  -0.837  0.00  0.00    +0.389 N 
ATOM     16  H   UNL     1      -2.063   5.476  -0.460  0.00  0.00    -0.080 HD
ENDROOT
BRANCH   1  20
ATOM     17  C   UNL     1      -8.345   9.114 -10.705  0.00  0.00    +0.000 A 
ATOM     18  C   UNL     1      -9.048   8.811  -9.553  0.00  0.00    +0.001 A 
ATOM     19  C   UNL     1      -8.391   8.726  -8.343  0.00  0.00    +0.008 A 
ATOM     20  C   UNL     1      -7.016   8.945  -8.282  0.00  0.00    -0.013 A 
ATOM     21  C   UNL     1      -6.313   9.256  -9.445  0.00  0.00    +0.008 A 
ATOM     22  C   UNL     1      -6.979   9.333 -10.651  0.00  0.00    +0.001 A 
ENDBRANCH   1  20
BRANCH   9  23
ATOM     23  N   UNL     1      -4.646   7.393  -7.937  0.00  0.00    -0.342 N 
ATOM     24  H   UNL     1      -3.842   6.860  -7.840  0.00  0.00    +0.144 HD
ATOM     25  H   UNL     1      -5.096   7.439  -8.796  0.00  0.00    +0.144 HD
ENDBRANCH   9  23
BRANCH  15  26
ATOM     26  C   UNL     1      -0.070   5.347   0.031  0.00  0.00    -0.007 C 
BRANCH  26  27
ATOM     27  C   UNL     1      -0.050   3.840   0.023  0.00  0.00    -0.057 A 
ATOM     28  C   UNL     1       1.156   3.165   0.008  0.00  0.00    +0.002 A 
ATOM     29  C   UNL     1       1.175   1.783   0.000  0.00  0.00    +0.000 A 
ATOM     30  C   UNL     1      -0.013   1.076   0.008  0.00  0.00    +0.000 A 
ATOM     31  C   UNL     1      -1.219   1.751   0.017  0.00  0.00    +0.000 A 
ATOM     32  C   UNL     1      -1.238   3.133   0.030  0.00  0.00    +0.002 A 
ENDBRANCH  26  27
BRANCH  26  33
ATOM     33  C   UNL     1      -0.311   5.838   1.435  0.00  0.00    -0.057 A 
ATOM     34  C   UNL     1      -1.593   5.858   1.951  0.00  0.00    +0.002 A 
ATOM     35  C   UNL     1      -1.813   6.304   3.241  0.00  0.00    +0.000 A 
ATOM     36  C   UNL     1      -0.751   6.740   4.011  0.00  0.00    +0.000 A 
ATOM     37  C   UNL     1       0.530   6.726   3.494  0.00  0.00    +0.000 A 
ATOM     38  C   UNL     1       0.751   6.275   2.206  0.00  0.00    +0.002 A 
ENDBRANCH  26  33
ENDBRANCH  15  26
TORSDOF 5
