REMARK  Name = ZINC16872644
REMARK  8 active torsions:
REMARK  status: ('A' for Active; 'I' for Inactive)
REMARK    1  A    between atoms: C_1  and  C_2
REMARK    2  A    between atoms: C_2  and  C_3
REMARK    3  A    between atoms: C_3  and  N_4
REMARK    4  A    between atoms: C_17  and  S_18
REMARK    5  A    between atoms: S_18  and  C_19
REMARK    6  A    between atoms: C_19  and  C_20
REMARK    7  A    between atoms: N_22  and  C_23
REMARK    8  A    between atoms: C_24  and  C_31
REMARK                            x       y       z     vdW  Elec       q    Type
REMARK                         _______ _______ _______ _____ _____    ______ ____
ROOT
ATOM      1  S   UNL     1       1.744   3.502   0.003  0.00  0.00    -0.076 S 
ENDROOT
BRANCH   1  15
ATOM      2  N   UNL     1       1.807  -1.669  -0.024  0.00  0.00    -0.277 N 
ATOM      3  C   UNL     1       3.144  -1.848  -0.037  0.00  0.00    +0.263 A 
ATOM      4  O   UNL     1       3.618  -2.968  -0.047  0.00  0.00    -0.267 OA
ATOM      5  C   UNL     1       4.020  -0.662  -0.039  0.00  0.00    +0.064 A 
ATOM      6  C   UNL     1       5.408  -0.789  -0.053  0.00  0.00    +0.015 A 
ATOM      7  C   UNL     1       6.195   0.343  -0.055  0.00  0.00    +0.001 A 
ATOM      8  C   UNL     1       5.613   1.601  -0.043  0.00  0.00    +0.002 A 
ATOM      9  C   UNL     1       4.239   1.739  -0.029  0.00  0.00    +0.027 A 
ATOM     10  C   UNL     1       3.433   0.612  -0.027  0.00  0.00    +0.064 A 
ATOM     11  N   UNL     1       2.044   0.723  -0.014  0.00  0.00    -0.256 N 
ATOM     12  C   UNL     1       1.256  -0.396  -0.012  0.00  0.00    +0.240 A 
ATOM     13  N   UNL     1       0.002  -0.004   0.002  0.00  0.00    -0.109 NA
ATOM     14  N   UNL     1      -0.017   1.396   0.010  0.00  0.00    -0.120 NA
ATOM     15  C   UNL     1       1.224   1.819   0.000  0.00  0.00    +0.198 A 
BRANCH   2  16
ATOM     16  C   UNL     1       0.923  -2.837  -0.021  0.00  0.00    +0.128 C 
BRANCH  16  18
ATOM     17  C   UNL     1      -0.323  -4.456  -1.460  0.00  0.00    +0.005 C 
ATOM     18  C   UNL     1       0.601  -3.236  -1.463  0.00  0.00    +0.018 C 
ENDBRANCH  16  18
ENDBRANCH   2  16
ENDBRANCH   1  15
BRANCH   1  19
ATOM     19  C   UNL     1       0.192   4.441   0.023  0.00  0.00    +0.173 C 
BRANCH  19  20
ATOM     20  C   UNL     1       0.498   5.917   0.027  0.00  0.00    +0.228 C 
ATOM     21  O   UNL     1       1.649   6.298   0.018  0.00  0.00    -0.275 OA
ATOM     22  N   UNL     1      -0.508   6.814   0.042  0.00  0.00    -0.279 N 
ATOM     23  H   UNL     1      -1.429   6.509   0.049  0.00  0.00    +0.155 HD
BRANCH  22  24
ATOM     24  C   UNL     1      -0.227   8.171   0.046  0.00  0.00    +0.084 A 
ATOM     25  C   UNL     1      -1.114   9.234   0.054  0.00  0.00    +0.068 A 
ATOM     26  C   UNL     1      -0.553  10.584   0.060  0.00  0.00    -0.023 A 
ATOM     27  C   UNL     1       0.790  10.645   0.048  0.00  0.00    -0.004 A 
ATOM     28  S   UNL     1       1.319   8.949   0.034  0.00  0.00    -0.077 S 
ATOM     29  C   UNL     1       1.291  12.064   0.053  0.00  0.00    +0.043 C 
ATOM     30  C   UNL     1       0.077  12.903   0.507  0.00  0.00    +0.010 C 
ATOM     31  C   UNL     1      -1.103  12.012   0.071  0.00  0.00    +0.037 C 
BRANCH  25  32
ATOM     32  C   UNL     1      -2.564   9.013   0.060  0.00  0.00    +0.244 C 
ATOM     33  O   UNL     1      -3.160   8.918   1.116  0.00  0.00    -0.270 OA
ATOM     34  N   UNL     1      -3.235   8.915  -1.105  0.00  0.00    -0.325 N 
ATOM     35  H   UNL     1      -2.760   8.991  -1.947  0.00  0.00    +0.145 HD
ATOM     36  H   UNL     1      -4.194   8.769  -1.101  0.00  0.00    +0.145 HD
ENDBRANCH  25  32
ENDBRANCH  22  24
ENDBRANCH  19  20
ENDBRANCH   1  19
TORSDOF 7
