REMARK  Name = ZINC39450577
REMARK  4 active torsions:
REMARK  status: ('A' for Active; 'I' for Inactive)
REMARK    1  A    between atoms: C_1  and  S_2
REMARK    2  A    between atoms: S_2  and  C_3
REMARK    3  A    between atoms: N_9  and  C_12
REMARK    4  A    between atoms: C_12  and  C_13
REMARK                            x       y       z     vdW  Elec       q    Type
REMARK                         _______ _______ _______ _____ _____    ______ ____
ROOT
ATOM      1  C   UNL     1       0.361  -1.294   0.842  0.00  0.00    +0.026 A 
ATOM      2  C   UNL     1       0.717  -2.530   1.377  0.00  0.00    +0.031 A 
ATOM      3  C   UNL     1       1.467  -2.540   2.551  0.00  0.00    +0.068 A 
ATOM      4  C   UNL     1       1.835  -1.314   3.148  0.00  0.00    +0.099 A 
ATOM      5  C   UNL     1       2.626  -1.355   4.384  0.00  0.00    +0.083 A 
ATOM      6  C   UNL     1       2.986  -2.574   4.930  0.00  0.00    +0.111 A 
ATOM      7  N   UNL     1       2.613  -3.767   4.321  0.00  0.00    -0.299 N 
ATOM      8  C   UNL     1       1.889  -3.797   3.188  0.00  0.00    +0.261 A 
ATOM      9  O   UNL     1       1.583  -4.864   2.689  0.00  0.00    -0.267 OA
ATOM     10  C   UNL     1       3.737  -2.613   6.124  0.00  0.00    +0.186 C 
ATOM     11  O   UNL     1       4.094  -3.684   6.576  0.00  0.00    -0.290 OA
ATOM     12  C   UNL     1       4.102  -1.342   6.845  0.00  0.00    +0.138 C 
ATOM     13  C   UNL     1       4.233  -0.201   5.829  0.00  0.00    +0.259 C 
ATOM     14  N   UNL     1       3.017  -0.181   5.001  0.00  0.00    -0.311 N 
ATOM     15  F   UNL     1       5.353  -0.417   5.019  0.00  0.00    -0.224 F 
ATOM     16  N   UNL     1       1.470  -0.163   2.597  0.00  0.00    -0.252 NA
ATOM     17  C   UNL     1       0.766  -0.124   1.488  0.00  0.00    +0.126 A 
ATOM     18  H   UNL     1       2.503   0.634   4.890  0.00  0.00    +0.149 HD
ENDROOT
BRANCH   1  20
ATOM     19  C   UNL     1      -0.784   0.572  -0.933  0.00  0.00    +0.090 C 
ATOM     20  S   UNL     1      -0.587  -1.208  -0.641  0.00  0.00    -0.127 S 
ENDBRANCH   1  20
BRANCH   7  21
ATOM     21  C   UNL     1       3.022  -5.033   4.934  0.00  0.00    +0.160 C 
BRANCH  21  22
ATOM     22  C   UNL     1       1.954  -5.497   5.890  0.00  0.00    -0.028 A 
ATOM     23  C   UNL     1       2.066  -5.221   7.240  0.00  0.00    +0.005 A 
ATOM     24  C   UNL     1       1.086  -5.647   8.117  0.00  0.00    +0.000 A 
ATOM     25  C   UNL     1      -0.007  -6.348   7.644  0.00  0.00    +0.000 A 
ATOM     26  C   UNL     1      -0.120  -6.624   6.294  0.00  0.00    +0.000 A 
ATOM     27  C   UNL     1       0.858  -6.194   5.416  0.00  0.00    +0.005 A 
ENDBRANCH  21  22
ENDBRANCH   7  21
TORSDOF 3
