REMARK  Name = ZINC09014877
REMARK  11 active torsions:
REMARK  status: ('A' for Active; 'I' for Inactive)
REMARK    1  A    between atoms: C_1  and  C_2
REMARK    2  A    between atoms: C_2  and  C_3
REMARK    3  A    between atoms: C_2  and  C_4
REMARK    4  A    between atoms: C_7  and  N_10
REMARK    5  A    between atoms: C_13  and  C_14
REMARK    6  A    between atoms: N_15  and  C_16
REMARK    7  A    between atoms: C_16  and  C_17
REMARK    8  A    between atoms: C_24  and  O_25
REMARK    9  A    between atoms: O_25  and  C_26
REMARK   10  A    between atoms: C_32  and  N_67
REMARK   11  A    between atoms: C_36  and  S_37
REMARK                            x       y       z     vdW  Elec       q    Type
REMARK                         _______ _______ _______ _____ _____    ______ ____
ROOT
ATOM      1  C   UNL     1      -2.462   1.616   0.364  0.00  0.00    +0.099 C 
ATOM      2  N   UNL     1      -2.694   0.288   0.360  0.00  0.00    -0.296 NA
ENDROOT
BRANCH   1   6
ATOM      3  N   UNL     1       0.422   3.908   0.564  0.00  0.00    -0.220 N 
ATOM      4  C   UNL     1      -0.873   3.524   0.554  0.00  0.00    +0.243 C 
ATOM      5  O   UNL     1      -1.770   4.338   0.672  0.00  0.00    -0.274 OA
ATOM      6  C   UNL     1      -1.164   2.091   0.390  0.00  0.00    +0.204 C 
ATOM      7  C   UNL     1      -0.007   1.181   0.259  0.00  0.00    +0.255 C 
ATOM      8  O   UNL     1      -0.170  -0.020   0.123  0.00  0.00    -0.272 OA
ATOM      9  N   UNL     1       1.226   1.708   0.286  0.00  0.00    -0.158 NA
ATOM     10  C   UNL     1       1.428   2.997   0.431  0.00  0.00    +0.157 C 
BRANCH   3  14
ATOM     11  C   UNL     1       1.358   7.945   1.008  0.00  0.00    -0.045 A 
ATOM     12  C   UNL     1       0.715   7.508  -0.135  0.00  0.00    +0.006 A 
ATOM     13  C   UNL     1       0.404   6.170  -0.286  0.00  0.00    +0.024 A 
ATOM     14  C   UNL     1       0.736   5.265   0.713  0.00  0.00    +0.043 A 
ATOM     15  C   UNL     1       1.376   5.708   1.863  0.00  0.00    +0.024 A 
ATOM     16  C   UNL     1       1.690   7.046   2.005  0.00  0.00    +0.006 A 
BRANCH  11  18
ATOM     17  C   UNL     1       0.999   9.956   2.413  0.00  0.00    +0.012 C 
ATOM     18  C   UNL     1       1.697   9.405   1.169  0.00  0.00    +0.013 C 
ATOM     19  C   UNL     1       3.211   9.563   1.321  0.00  0.00    +0.012 C 
ENDBRANCH  11  18
ENDBRANCH   3  14
BRANCH  10  20
ATOM     20  S   UNL     1       3.090   3.583   0.454  0.00  0.00    -0.110 S 
ATOM     21  H   UNL     1       3.781   2.364   0.294  0.00  0.00    +0.110 HD
ENDBRANCH  10  20
ENDBRANCH   1   6
BRANCH   2  22
ATOM     22  C   UNL     1      -4.070  -0.215   0.333  0.00  0.00    +0.130 C 
BRANCH  22  23
ATOM     23  C   UNL     1      -4.053  -1.740   0.208  0.00  0.00    -0.012 C 
ATOM     24  C   UNL     1      -3.399  -2.125  -1.093  0.00  0.00    -0.011 A 
ATOM     25  C   UNL     1      -2.503  -3.169  -1.177  0.00  0.00    -0.040 A 
ATOM     26  C   UNL     1      -1.929  -3.494  -2.396  0.00  0.00    +0.053 A 
ATOM     27  C   UNL     1      -2.247  -2.776  -3.537  0.00  0.00    +0.170 A 
ATOM     28  C   UNL     1      -3.148  -1.720  -3.457  0.00  0.00    +0.208 A 
ATOM     29  C   UNL     1      -3.722  -1.397  -2.235  0.00  0.00    +0.167 A 
ATOM     30  O   UNL     1      -3.294  -1.175  -4.701  0.00  0.00    -0.449 OA
ATOM     31  C   UNL     1      -2.788  -2.165  -5.615  0.00  0.00    +0.467 C 
ATOM     32  O   UNL     1      -1.827  -2.895  -4.830  0.00  0.00    -0.452 OA
ATOM     33  C   UNL     1      -2.120  -3.980   0.035  0.00  0.00    +0.017 C 
ATOM     34  C   UNL     1      -3.137  -3.758   1.154  0.00  0.00    -0.074 C 
ATOM     35  C   UNL     1      -4.000  -2.023   2.610  0.00  0.00    -0.095 C 
ATOM     36  N   UNL     1      -3.295  -2.300   1.339  0.00  0.00    +0.384 N 
ATOM     37  H   UNL     1      -2.367  -1.864   1.370  0.00  0.00    -0.081 HD
BRANCH  29  38
ATOM     38  O   UNL     1      -4.604  -0.366  -2.153  0.00  0.00    -0.491 OA
ATOM     39  C   UNL     1      -5.984  -0.675  -2.354  0.00  0.00    +0.277 C 
ENDBRANCH  29  38
ENDBRANCH  22  23
ENDBRANCH   2  22
TORSDOF 7
