REMARK  Name = ZINC16400907
REMARK  6 active torsions:
REMARK  status: ('A' for Active; 'I' for Inactive)
REMARK    1  A    between atoms: C_3  and  N_22
REMARK    2  A    between atoms: C_6  and  C_7
REMARK    3  A    between atoms: N_9  and  C_10
REMARK    4  A    between atoms: C_10  and  N_12
REMARK    5  A    between atoms: N_12  and  C_13
REMARK    6  A    between atoms: C_18  and  C_19
REMARK                            x       y       z     vdW  Elec       q    Type
REMARK                         _______ _______ _______ _____ _____    ______ ____
ROOT
ATOM      1  C   UNL     1       1.149   1.609  -0.237  0.00  0.00    +0.141 C 
ATOM      2  S   UNL     1       1.109   3.292  -0.550  0.00  0.00    -0.018 S 
ENDROOT
BRANCH   1   5
ATOM      3  C   UNL     1      -1.173   1.515  -0.453  0.00  0.00    +0.250 C 
ATOM      4  O   UNL     1      -1.202   2.709  -0.676  0.00  0.00    -0.270 OA
ATOM      5  N   UNL     1       0.003   0.900  -0.219  0.00  0.00    -0.264 N 
ATOM      6  H   UNL     1       0.025  -0.053  -0.041  0.00  0.00    +0.157 HD
BRANCH   3  12
ATOM      7  C   UNL     1      -2.400  -0.637  -0.190  0.00  0.00    +0.015 A 
ATOM      8  C   UNL     1      -3.577  -1.357  -0.174  0.00  0.00    +0.033 A 
ATOM      9  C   UNL     1      -4.783  -0.723  -0.416  0.00  0.00    +0.126 A 
ATOM     10  C   UNL     1      -4.818   0.637  -0.668  0.00  0.00    +0.033 A 
ATOM     11  C   UNL     1      -3.650   1.370  -0.682  0.00  0.00    +0.015 A 
ATOM     12  C   UNL     1      -2.429   0.736  -0.440  0.00  0.00    +0.037 A 
BRANCH   9  13
ATOM     13  N   UNL     1      -6.041  -1.503  -0.403  0.00  0.00    +0.056 N 
ATOM     14  O   UNL     1      -7.104  -0.948  -0.615  0.00  0.00    -0.126 OA
ATOM     15  O   UNL     1      -6.013  -2.700  -0.181  0.00  0.00    -0.126 OA
ENDBRANCH   9  13
ENDBRANCH   3  12
ENDBRANCH   1   5
BRANCH   1  16
ATOM     16  N   UNL     1       2.326   0.994  -0.008  0.00  0.00    -0.296 N 
ATOM     17  H   UNL     1       2.343   0.056   0.238  0.00  0.00    +0.154 HD
BRANCH  16  18
ATOM     18  C   UNL     1       3.517   1.705  -0.124  0.00  0.00    +0.047 A 
ATOM     19  C   UNL     1       3.646   2.952   0.472  0.00  0.00    +0.025 A 
ATOM     20  C   UNL     1       4.828   3.655   0.357  0.00  0.00    +0.016 A 
ATOM     21  C   UNL     1       5.894   3.124  -0.353  0.00  0.00    +0.014 A 
ATOM     22  C   UNL     1       5.784   1.887  -0.952  0.00  0.00    +0.031 A 
ATOM     23  C   UNL     1       4.595   1.161  -0.839  0.00  0.00    +0.085 A 
ATOM     24  I   UNL     1       7.680   4.206  -0.517  0.00  0.00    -0.044 I 
BRANCH  23  25
ATOM     25  C   UNL     1       4.473  -0.164  -1.471  0.00  0.00    +0.388 C 
ATOM     26  O   UNL     1       3.408  -0.749  -1.456  0.00  0.00    -0.241 OA
ATOM     27  O   UNL     1       5.543  -0.728  -2.067  0.00  0.00    -0.241 OA
ENDBRANCH  23  25
ENDBRANCH  16  18
ENDBRANCH   1  16
TORSDOF 6
