REMARK  Name = ZINC38009021
REMARK  5 active torsions:
REMARK  status: ('A' for Active; 'I' for Inactive)
REMARK    1  A    between atoms: C_4  and  N_20
REMARK    2  A    between atoms: C_6  and  S_7
REMARK    3  A    between atoms: S_7  and  N_10
REMARK    4  A    between atoms: N_10  and  C_11
REMARK    5  A    between atoms: N_20  and  N_21
REMARK                            x       y       z     vdW  Elec       q    Type
REMARK                         _______ _______ _______ _____ _____    ______ ____
ROOT
ATOM      1  S   UNL     1      -1.500  -0.925   0.012  0.00  0.00    +0.092 S 
ATOM      2  O   UNL     1      -1.189  -2.202   0.553  0.00  0.00    -0.148 OA
ATOM      3  O   UNL     1      -2.492  -0.079   0.577  0.00  0.00    -0.148 OA
ENDROOT
BRANCH   1   9
ATOM      4  C   UNL     1      -0.017   1.384   0.010  0.00  0.00    +0.046 A 
ATOM      5  C   UNL     1       1.178   2.077   0.002  0.00  0.00    +0.086 A 
ATOM      6  N   UNL     1       2.331   1.436  -0.013  0.00  0.00    -0.349 N 
ATOM      7  C   UNL     1       2.391   0.113  -0.021  0.00  0.00    +0.112 A 
ATOM      8  C   UNL     1       1.226  -0.648  -0.014  0.00  0.00    +0.071 A 
ATOM      9  C   UNL     1       0.002  -0.004   0.002  0.00  0.00    +0.115 A 
ATOM     10  H   UNL     1       3.156   1.947  -0.018  0.00  0.00    +0.167 HD
BRANCH   7  11
ATOM     11  N   UNL     1       3.628  -0.520  -0.036  0.00  0.00    -0.269 N 
ATOM     12  H   UNL     1       3.677  -1.489  -0.042  0.00  0.00    +0.167 HD
BRANCH  11  13
ATOM     13  N   UNL     1       4.775   0.221  -0.043  0.00  0.00    -0.255 NA
ATOM     14  H   UNL     1       5.590  -0.373  -0.054  0.00  0.00    +0.140 HD
ATOM     15  H   UNL     1       4.785   0.864  -0.821  0.00  0.00    +0.140 HD
ENDBRANCH  11  13
ENDBRANCH   7  11
ENDBRANCH   1   9
BRANCH   1  16
ATOM     16  N   UNL     1      -1.933  -1.173  -1.567  0.00  0.00    -0.094 NA
BRANCH  16  17
ATOM     17  C   UNL     1      -3.100  -1.885  -1.870  0.00  0.00    +0.123 A 
ATOM     18  C   UNL     1      -3.899  -2.381  -0.845  0.00  0.00    +0.152 A 
ATOM     19  C   UNL     1      -5.051  -3.084  -1.147  0.00  0.00    +0.078 A 
ATOM     20  C   UNL     1      -5.408  -3.294  -2.468  0.00  0.00    +0.127 A 
ATOM     21  C   UNL     1      -4.614  -2.803  -3.490  0.00  0.00    +0.055 A 
ATOM     22  C   UNL     1      -3.464  -2.094  -3.193  0.00  0.00    +0.048 A 
ATOM     23 BR   UNL     1      -2.384  -1.415  -4.590  0.00  0.00    -0.048 Br
ATOM     24  F   UNL     1      -6.534  -3.982  -2.761  0.00  0.00    -0.205 F 
ATOM     25  F   UNL     1      -3.550  -2.175   0.444  0.00  0.00    -0.203 F 
ENDBRANCH  16  17
ENDBRANCH   1  16
TORSDOF 5
