REMARK  Name = ZINC01096436
REMARK  7 active torsions:
REMARK  status: ('A' for Active; 'I' for Inactive)
REMARK    1  A    between atoms: C_3  and  C_6
REMARK    2  A    between atoms: C_7  and  C_30
REMARK    3  A    between atoms: C_11  and  N_16
REMARK    4  A    between atoms: N_16  and  C_17
REMARK    5  A    between atoms: C_17  and  N_19
REMARK    6  A    between atoms: N_19  and  C_20
REMARK    7  A    between atoms: C_20  and  C_21
REMARK                            x       y       z     vdW  Elec       q    Type
REMARK                         _______ _______ _______ _____ _____    ______ ____
ROOT
ATOM      1  C   UNL     1      14.378  -2.926   0.588  0.00  0.00    +0.136 A 
ATOM      2  C   UNL     1      13.851  -3.065  -0.773  0.00  0.00    +0.136 A 
ATOM      3  N   UNL     1      12.569  -2.834  -1.004  0.00  0.00    -0.240 NA
ATOM      4  C   UNL     1      11.762  -2.477   0.003  0.00  0.00    +0.092 A 
ATOM      5  C   UNL     1      10.398  -2.237  -0.235  0.00  0.00    +0.053 A 
ATOM      6  C   UNL     1       9.579  -1.863   0.808  0.00  0.00    +0.035 A 
ATOM      7  C   UNL     1      10.091  -1.732   2.104  0.00  0.00    +0.025 A 
ATOM      8  C   UNL     1      11.405  -1.965   2.361  0.00  0.00    +0.032 A 
ATOM      9  C   UNL     1      12.272  -2.342   1.319  0.00  0.00    +0.090 A 
ATOM     10  N   UNL     1      13.566  -2.572   1.570  0.00  0.00    -0.240 NA
ENDROOT
BRANCH   1  13
ATOM     11  C   UNL     1      17.861  -3.086   1.695  0.00  0.00    +0.042 A 
ATOM     12  C   UNL     1      16.575  -2.517   1.765  0.00  0.00    +0.051 A 
ATOM     13  C   UNL     1      15.803  -3.181   0.860  0.00  0.00    +0.155 A 
ATOM     14  O   UNL     1      16.572  -4.107   0.253  0.00  0.00    -0.461 OA
ATOM     15  C   UNL     1      17.815  -4.052   0.755  0.00  0.00    +0.196 A 
ENDBRANCH   1  13
BRANCH   2  16
ATOM     16  C   UNL     1      14.744  -3.460  -1.876  0.00  0.00    +0.155 A 
ATOM     17  C   UNL     1      14.406  -4.246  -2.937  0.00  0.00    +0.051 A 
ATOM     18  C   UNL     1      15.556  -4.359  -3.739  0.00  0.00    +0.042 A 
ATOM     19  C   UNL     1      16.533  -3.653  -3.133  0.00  0.00    +0.196 A 
ATOM     20  O   UNL     1      16.039  -3.111  -2.009  0.00  0.00    -0.461 OA
ENDBRANCH   2  16
BRANCH   6  21
ATOM     21  N   UNL     1       8.224  -1.619   0.570  0.00  0.00    -0.297 N 
ATOM     22  H   UNL     1       7.556  -1.947   1.192  0.00  0.00    +0.154 HD
BRANCH  21  23
ATOM     23  C   UNL     1       7.845  -0.928  -0.523  0.00  0.00    +0.135 C 
ATOM     24  S   UNL     1       9.027  -0.228  -1.545  0.00  0.00    -0.019 S 
BRANCH  23  25
ATOM     25  N   UNL     1       6.536  -0.788  -0.812  0.00  0.00    -0.322 N 
ATOM     26  H   UNL     1       5.867  -1.185  -0.233  0.00  0.00    +0.148 HD
BRANCH  25  27
ATOM     27  C   UNL     1       6.124  -0.037  -2.001  0.00  0.00    +0.138 C 
BRANCH  27  28
ATOM     28  C   UNL     1       4.620  -0.030  -2.094  0.00  0.00    -0.027 A 
ATOM     29  C   UNL     1       3.897   0.981  -1.488  0.00  0.00    +0.009 A 
ATOM     30  C   UNL     1       2.517   0.991  -1.571  0.00  0.00    +0.050 A 
ATOM     31  C   UNL     1       1.855  -0.011  -2.262  0.00  0.00    +0.166 A 
ATOM     32  C   UNL     1       2.585  -1.028  -2.873  0.00  0.00    +0.167 A 
ATOM     33  C   UNL     1       3.967  -1.033  -2.786  0.00  0.00    +0.054 A 
ATOM     34  O   UNL     1       1.713  -1.884  -3.483  0.00  0.00    -0.453 OA
ATOM     35  C   UNL     1       0.473  -1.160  -3.587  0.00  0.00    +0.466 C 
ATOM     36  O   UNL     1       0.527  -0.229  -2.489  0.00  0.00    -0.453 OA
ENDBRANCH  27  28
ENDBRANCH  25  27
ENDBRANCH  23  25
ENDBRANCH  21  23
ENDBRANCH   6  21
TORSDOF 7
