REMARK  Name = ZINC39938015
REMARK  7 active torsions:
REMARK  status: ('A' for Active; 'I' for Inactive)
REMARK    1  A    between atoms: C_3  and  C_9
REMARK    2  A    between atoms: N_17  and  C_20
REMARK    3  A    between atoms: C_20  and  C_21
REMARK    4  A    between atoms: C_21  and  C_22
REMARK    5  A    between atoms: C_22  and  N_23
REMARK    6  A    between atoms: C_29  and  N_33
REMARK    7  A    between atoms: C_30  and  C_31
REMARK                            x       y       z     vdW  Elec       q    Type
REMARK                         _______ _______ _______ _____ _____    ______ ____
ROOT
ATOM      1  C   UNL     1       3.671   2.186  -0.023  0.00  0.00    +0.086 C 
ATOM      2  C   UNL     1       3.752   3.059   1.234  0.00  0.00    +0.171 C 
ATOM      3  C   UNL     1       4.856   4.066   0.956  0.00  0.00    +0.204 C 
ATOM      4  N   UNL     1       5.886   4.101   1.747  0.00  0.00    -0.131 NA
ATOM      5  C   UNL     1       6.016   3.266   2.788  0.00  0.00    +0.335 C 
ATOM      6  O   UNL     1       7.003   3.386   3.489  0.00  0.00    -0.250 OA
ATOM      7  N   UNL     1       5.136   2.310   3.109  0.00  0.00    -0.224 N 
ATOM      8  C   UNL     1       3.983   2.125   2.408  0.00  0.00    +0.236 C 
ATOM      9  O   UNL     1       3.184   1.261   2.697  0.00  0.00    -0.274 OA
ATOM     10  O   UNL     1       4.724   4.871  -0.111  0.00  0.00    -0.428 OA
ATOM     11  C   UNL     1       4.238   4.304  -1.240  0.00  0.00    +0.200 C 
ATOM     12  C   UNL     1       3.726   3.055  -1.249  0.00  0.00    +0.095 C 
ENDROOT
BRANCH   1  15
ATOM     13  C   UNL     1      -0.017   1.378   0.010  0.00  0.00    +0.002 A 
ATOM     14  C   UNL     1       1.171   2.086   0.002  0.00  0.00    +0.006 A 
ATOM     15  C   UNL     1       2.378   1.413  -0.013  0.00  0.00    -0.018 A 
ATOM     16  C   UNL     1       2.398   0.030  -0.021  0.00  0.00    +0.063 A 
ATOM     17  C   UNL     1       1.209  -0.679  -0.013  0.00  0.00    +0.060 A 
ATOM     18  C   UNL     1       0.002  -0.004   0.002  0.00  0.00    +0.021 A 
ATOM     19 CL   UNL     1       1.234  -2.415  -0.023  0.00  0.00    -0.082 Cl
ATOM     20 CL   UNL     1       3.914  -0.816  -0.041  0.00  0.00    -0.082 Cl
ENDBRANCH   1  15
BRANCH  11  21
ATOM     21  N   UNL     1       4.265   5.021  -2.410  0.00  0.00    -0.328 N 
ATOM     22  H   UNL     1       4.630   5.921  -2.420  0.00  0.00    +0.145 HD
ATOM     23  H   UNL     1       3.921   4.629  -3.228  0.00  0.00    +0.145 HD
ENDBRANCH  11  21
BRANCH  12  24
ATOM     24  C   UNL     1       3.214   2.534  -2.481  0.00  0.00    +0.100 C 
ATOM     25  N   UNL     1       2.808   2.122  -3.458  0.00  0.00    -0.191 NA
ENDBRANCH  12  24
BRANCH   7  26
ATOM     26  C   UNL     1       5.416   1.440   4.254  0.00  0.00    +0.120 C 
BRANCH  26  27
ATOM     27  C   UNL     1       4.828   2.061   5.523  0.00  0.00    +0.041 C 
BRANCH  27  28
ATOM     28  C   UNL     1       5.120   1.153   6.718  0.00  0.00    +0.124 C 
BRANCH  28  29
ATOM     29  N   UNL     1       4.557   1.747   7.933  0.00  0.00    -0.338 N 
ATOM     30  C   UNL     1       5.189   2.618   8.780  0.00  0.00    +0.104 A 
ATOM     31  C   UNL     1       4.314   2.912   9.760  0.00  0.00    +0.101 A 
ATOM     32  N   UNL     1       3.179   2.240   9.519  0.00  0.00    -0.352 N 
ATOM     33  C   UNL     1       3.315   1.544   8.424  0.00  0.00    +0.173 A 
ATOM     34  H   UNL     1       2.381   2.269  10.070  0.00  0.00    +0.166 HD
ENDBRANCH  28  29
ENDBRANCH  27  28
ENDBRANCH  26  27
ENDBRANCH   7  26
TORSDOF 7
