REMARK  Name = ZINC16160788
REMARK  6 active torsions:
REMARK  status: ('A' for Active; 'I' for Inactive)
REMARK    1  A    between atoms: C_1  and  C_2
REMARK    2  A    between atoms: N_4  and  C_20
REMARK    3  A    between atoms: C_8  and  N_9
REMARK    4  A    between atoms: N_9  and  C_10
REMARK    5  A    between atoms: C_13  and  N_17
REMARK    6  A    between atoms: C_15  and  O_16
REMARK                            x       y       z     vdW  Elec       q    Type
REMARK                         _______ _______ _______ _____ _____    ______ ____
ROOT
ATOM      1  C   UNL     1      -0.018   1.503   0.010  0.00  0.00    +0.068 C 
ATOM      2  C   UNL     1       0.002  -0.004   0.002  0.00  0.00    +0.070 C 
ATOM      3  N   UNL     1       0.008  -0.765  -1.049  0.00  0.00    -0.176 NA
ATOM      4  N   UNL     1       0.028  -2.115  -0.698  0.00  0.00    -0.156 N 
ATOM      5  C   UNL     1       0.036  -2.244   0.644  0.00  0.00    +0.273 C 
ATOM      6  O   UNL     1       0.053  -3.285   1.280  0.00  0.00    -0.268 OA
ATOM      7  C   UNL     1       0.025  -0.879   1.183  0.00  0.00    +0.075 C 
ATOM      8  C   UNL     1       0.032  -0.498   2.515  0.00  0.00    +0.087 C 
ENDROOT
BRANCH   4   9
ATOM      9  C   UNL     1       0.039  -3.180  -1.607  0.00  0.00    +0.060 A 
ATOM     10  C   UNL     1       0.053  -4.490  -1.144  0.00  0.00    +0.026 A 
ATOM     11  C   UNL     1       0.063  -5.538  -2.043  0.00  0.00    +0.016 A 
ATOM     12  C   UNL     1       0.059  -5.285  -3.403  0.00  0.00    +0.013 A 
ATOM     13  C   UNL     1       0.046  -3.982  -3.867  0.00  0.00    +0.016 A 
ATOM     14  C   UNL     1       0.029  -2.930  -2.973  0.00  0.00    +0.026 A 
ATOM     15  I   UNL     1       0.075  -6.879  -4.763  0.00  0.00    -0.044 I 
ENDBRANCH   4   9
BRANCH   8  16
ATOM     16  N   UNL     1       0.054  -1.436   3.485  0.00  0.00    -0.317 N 
ATOM     17  H   UNL     1       0.065  -2.377   3.249  0.00  0.00    +0.152 HD
BRANCH  16  18
ATOM     18  C   UNL     1       0.061  -1.052   4.830  0.00  0.00    +0.073 A 
ATOM     19  C   UNL     1       0.040   0.294   5.169  0.00  0.00    +0.029 A 
ATOM     20  C   UNL     1       0.046   0.671   6.498  0.00  0.00    +0.035 A 
ATOM     21  C   UNL     1       0.074  -0.289   7.493  0.00  0.00    +0.130 A 
ATOM     22  C   UNL     1       0.096  -1.631   7.163  0.00  0.00    +0.080 A 
ATOM     23  C   UNL     1       0.084  -2.019   5.833  0.00  0.00    +0.140 A 
BRANCH  21  24
ATOM     24  N   UNL     1       0.081   0.121   8.915  0.00  0.00    +0.057 N 
ATOM     25  O   UNL     1       0.062   1.295   9.206  0.00  0.00    -0.126 OA
ATOM     26  O   UNL     1       0.106  -0.717   9.787  0.00  0.00    -0.126 OA
ENDBRANCH  21  24
BRANCH  23  27
ATOM     27  O   UNL     1       0.099  -3.338   5.507  0.00  0.00    -0.505 OA
ATOM     28  H   UNL     1       0.987  -3.708   5.405  0.00  0.00    +0.292 HD
ENDBRANCH  23  27
ENDBRANCH  16  18
ENDBRANCH   8  16
TORSDOF 5
