REMARK  Name = ZINC04109534
REMARK  5 active torsions:
REMARK  status: ('A' for Active; 'I' for Inactive)
REMARK    1  A    between atoms: N_4  and  C_6
REMARK    2  A    between atoms: C_9  and  C_12
REMARK    3  A    between atoms: C_12  and  C_14
REMARK    4  A    between atoms: C_14  and  C_15
REMARK    5  A    between atoms: C_15  and  O_26
REMARK                            x       y       z     vdW  Elec       q    Type
REMARK                         _______ _______ _______ _____ _____    ______ ____
ROOT
ATOM      1  C   UNL     1       1.395   4.223   1.268  0.00  0.00    +0.129 C 
ENDROOT
BRANCH   1   2
ATOM      2  C   UNL     1       0.839   3.549   0.013  0.00  0.00    +0.175 C 
ATOM      3  C   UNL     1       1.189   2.079   0.002  0.00  0.00    +0.015 A 
ATOM      4  C   UNL     1       2.388   1.402  -0.013  0.00  0.00    +0.024 A 
ATOM      5  C   UNL     1       2.399   0.017  -0.021  0.00  0.00    +0.018 A 
ATOM      6  C   UNL     1       1.204  -0.680  -0.013  0.00  0.00    +0.017 A 
ATOM      7  C   UNL     1       0.002  -0.004   0.002  0.00  0.00    +0.025 A 
ATOM      8  C   UNL     1      -0.017   1.389   0.010  0.00  0.00    +0.040 A 
ATOM      9  N   UNL     1      -1.085   2.287   0.019  0.00  0.00    -0.282 N 
ATOM     10  C   UNL     1      -0.675   3.567   0.027  0.00  0.00    +0.254 C 
ATOM     11  O   UNL     1      -1.383   4.551   0.039  0.00  0.00    -0.272 OA
ATOM     12 BR   UNL     1       4.043  -0.918  -0.041  0.00  0.00    -0.050 Br
ATOM     13  H   UNL     1      -2.017   2.018   0.022  0.00  0.00    +0.155 HD
BRANCH   2  14
ATOM     14  O   UNL     1       1.339   4.191  -1.162  0.00  0.00    -0.374 OA
ATOM     15  H   UNL     1       1.143   5.137  -1.207  0.00  0.00    +0.211 HD
ENDBRANCH   2  14
ENDBRANCH   1   2
BRANCH   1  16
ATOM     16  C   UNL     1       0.930   5.656   1.317  0.00  0.00    +0.167 C 
ATOM     17  O   UNL     1       0.223   6.094   0.434  0.00  0.00    -0.292 OA
BRANCH  16  21
ATOM     18  C   UNL     1       2.091   8.154   4.541  0.00  0.00    +0.046 A 
ATOM     19  C   UNL     1       1.281   8.659   3.530  0.00  0.00    +0.027 A 
ATOM     20  C   UNL     1       0.901   7.852   2.481  0.00  0.00    +0.013 A 
ATOM     21  C   UNL     1       1.332   6.521   2.434  0.00  0.00    +0.018 A 
ATOM     22  C   UNL     1       2.143   6.015   3.457  0.00  0.00    +0.013 A 
ATOM     23  C   UNL     1       2.522   6.831   4.499  0.00  0.00    +0.027 A 
BRANCH  18  27
ATOM     24  C   UNL     1       2.680  10.737   6.905  0.00  0.00    +0.019 A 
ATOM     25  C   UNL     1       3.405   9.669   7.471  0.00  0.00    +0.019 A 
ATOM     26  C   UNL     1       3.262   8.605   6.656  0.00  0.00    +0.091 A 
ATOM     27  N   UNL     1       2.473   8.976   5.604  0.00  0.00    -0.323 N 
ATOM     28  C   UNL     1       2.125  10.288   5.761  0.00  0.00    +0.091 A 
ENDBRANCH  18  27
ENDBRANCH  16  21
ENDBRANCH   1  16
TORSDOF 5
