REMARK  Name = ZINC20284080
REMARK  10 active torsions:
REMARK  status: ('A' for Active; 'I' for Inactive)
REMARK    1  A    between atoms: C_1  and  C_2
REMARK    2  A    between atoms: C_2  and  O_3
REMARK    3  A    between atoms: O_3  and  C_4
REMARK    4  A    between atoms: C_4  and  C_6
REMARK    5  A    between atoms: C_7  and  C_20
REMARK    6  A    between atoms: C_12  and  C_14
REMARK    7  A    between atoms: C_20  and  N_21
REMARK    8  A    between atoms: N_21  and  C_22
REMARK    9  A    between atoms: N_21  and  C_28
REMARK   10  A    between atoms: C_22  and  C_23
REMARK                            x       y       z     vdW  Elec       q    Type
REMARK                         _______ _______ _______ _____ _____    ______ ____
ROOT
ATOM      1  C   UNL     1      -4.298   2.789   3.663  0.00  0.00    +0.076 C 
ATOM      2  C   UNL     1      -4.622   1.531   3.292  0.00  0.00    +0.008 C 
ATOM      3  N   UNL     1      -5.125   0.637   4.194  0.00  0.00    -0.274 N 
ATOM      4  C   UNL     1      -5.324   0.920   5.488  0.00  0.00    +0.304 C 
ATOM      5  O   UNL     1      -5.772   0.057   6.216  0.00  0.00    -0.252 OA
ATOM      6  N   UNL     1      -5.050   2.133   6.007  0.00  0.00    -0.288 N 
ATOM      7  C   UNL     1      -4.507   3.171   5.115  0.00  0.00    +0.143 C 
ATOM      8  H   UNL     1      -5.391  -0.380   3.871  0.00  0.00    +0.156 HD
ATOM      9  H   UNL     1      -5.221   2.357   7.070  0.00  0.00    +0.151 HD
ENDROOT
BRANCH   7  10
ATOM     10  C   UNL     1      -3.180   3.616   5.673  0.00  0.00    -0.023 A 
ATOM     11  C   UNL     1      -2.250   2.676   6.076  0.00  0.00    +0.006 A 
ATOM     12  C   UNL     1      -1.031   3.085   6.585  0.00  0.00    +0.000 A 
ATOM     13  C   UNL     1      -0.746   4.432   6.698  0.00  0.00    +0.000 A 
ATOM     14  C   UNL     1      -1.678   5.372   6.300  0.00  0.00    +0.000 A 
ATOM     15  C   UNL     1      -2.895   4.964   5.788  0.00  0.00    +0.006 A 
ENDBRANCH   7  10
BRANCH   1  16
ATOM     16  C   UNL     1      -3.782   3.717   2.729  0.00  0.00    +0.339 C 
ATOM     17  O   UNL     1      -3.713   3.420   1.551  0.00  0.00    -0.245 OA
BRANCH  16  18
ATOM     18  O   UNL     1      -3.365   4.931   3.145  0.00  0.00    -0.462 OA
BRANCH  18  20
ATOM     19  C   UNL     1      -2.436   7.136   2.802  0.00  0.00    +0.048 C 
ATOM     20  C   UNL     1      -2.855   5.818   2.147  0.00  0.00    +0.229 C 
ENDBRANCH  18  20
ENDBRANCH  16  18
ENDBRANCH   1  16
BRANCH   2  21
ATOM     21  C   UNL     1      -4.431   1.109   1.858  0.00  0.00    -0.025 C 
BRANCH  21  22
ATOM     22  N   UNL     1      -2.996   0.960   1.579  0.00  0.00    +0.390 N 
ATOM     23  H   UNL     1      -2.474   1.820   2.025  0.00  0.00    -0.080 HD
BRANCH  22  24
ATOM     24  C   UNL     1      -2.464  -0.262   2.197  0.00  0.00    -0.067 C 
ATOM     25  C   UNL     1      -3.415  -1.428   1.923  0.00  0.00    -0.015 C 
ATOM     26  C   UNL     1      -2.860  -2.701   2.566  0.00  0.00    -0.002 C 
ATOM     27  C   UNL     1      -2.729  -2.493   4.076  0.00  0.00    -0.000 C 
ATOM     28  C   UNL     1      -1.778  -1.327   4.350  0.00  0.00    -0.002 C 
ATOM     29  C   UNL     1      -2.333  -0.054   3.707  0.00  0.00    -0.015 C 
ENDBRANCH  22  24
BRANCH  22  30
ATOM     30  C   UNL     1      -2.737   0.975   0.133  0.00  0.00    -0.002 C 
BRANCH  30  31
ATOM     31  C   UNL     1      -1.271   1.225  -0.112  0.00  0.00    +0.089 A 
ATOM     32  C   UNL     1      -0.334   0.279  -0.302  0.00  0.00    +0.042 A 
ATOM     33  C   UNL     1       0.894   0.954  -0.499  0.00  0.00    +0.041 A 
ATOM     34  C   UNL     1       0.633   2.270  -0.412  0.00  0.00    +0.195 A 
ATOM     35  O   UNL     1      -0.679   2.429  -0.174  0.00  0.00    -0.470 OA
ENDBRANCH  30  31
ENDBRANCH  22  30
ENDBRANCH  21  22
ENDBRANCH   2  21
TORSDOF 9
