REMARK  Name = ZINC67321444
REMARK  7 active torsions:
REMARK  status: ('A' for Active; 'I' for Inactive)
REMARK    1  A    between atoms: C_1  and  C_2
REMARK    2  A    between atoms: C_2  and  C_3
REMARK    3  A    between atoms: C_3  and  C_4
REMARK    4  A    between atoms: N_6  and  C_7
REMARK    5  A    between atoms: N_6  and  C_18
REMARK    6  A    between atoms: C_7  and  C_8
REMARK    7  A    between atoms: C_18  and  C_19
REMARK                            x       y       z     vdW  Elec       q    Type
REMARK                         _______ _______ _______ _____ _____    ______ ____
ROOT
ATOM      1  C   UNL     1       0.739  -2.004  -1.265  0.00  0.00    +0.216 C 
ATOM      2  O   UNL     1       0.231  -2.623  -0.354  0.00  0.00    -0.276 OA
ATOM      3  N   UNL     1       1.322  -2.665  -2.285  0.00  0.00    -0.293 N 
ENDROOT
BRANCH   1   4
ATOM      4  C   UNL     1       0.718  -0.497  -1.257  0.00  0.00    +0.096 C 
BRANCH   4   6
ATOM      5  C   UNL     1      -0.019   1.526   0.010  0.00  0.00    +0.004 C 
ATOM      6  C   UNL     1       0.002  -0.004   0.002  0.00  0.00    +0.006 C 
ENDBRANCH   4   6
ENDBRANCH   1   4
BRANCH   3   7
ATOM      7  C   UNL     1       1.341  -4.130  -2.293  0.00  0.00    +0.143 C 
BRANCH   7   8
ATOM      8  C   UNL     1       0.111  -4.645  -2.995  0.00  0.00    -0.021 A 
ATOM      9  C   UNL     1      -0.961  -5.080  -2.268  0.00  0.00    +0.006 A 
ATOM     10  C   UNL     1      -2.098  -5.556  -2.905  0.00  0.00    +0.002 A 
ATOM     11  C   UNL     1      -2.167  -5.599  -4.280  0.00  0.00    +0.026 A 
ATOM     12  C   UNL     1      -1.088  -5.160  -5.040  0.00  0.00    +0.047 A 
ATOM     13  C   UNL     1       0.061  -4.674  -4.389  0.00  0.00    +0.004 A 
ATOM     14  C   UNL     1       0.996  -4.292  -5.450  0.00  0.00    +0.028 A 
ATOM     15  C   UNL     1       0.389  -4.550  -6.620  0.00  0.00    +0.083 A 
ATOM     16  N   UNL     1      -0.854  -5.077  -6.394  0.00  0.00    -0.361 N 
ATOM     17  H   UNL     1      -1.480  -5.343  -7.086  0.00  0.00    +0.165 HD
ENDBRANCH   7   8
ENDBRANCH   3   7
BRANCH   3  18
ATOM     18  C   UNL     1       1.935  -1.918  -3.386  0.00  0.00    +0.143 C 
BRANCH  18  19
ATOM     19  C   UNL     1       3.383  -1.649  -3.064  0.00  0.00    -0.021 A 
ATOM     20  C   UNL     1       3.763  -0.429  -2.580  0.00  0.00    +0.006 A 
ATOM     21  C   UNL     1       5.093  -0.172  -2.281  0.00  0.00    +0.002 A 
ATOM     22  C   UNL     1       6.055  -1.141  -2.467  0.00  0.00    +0.026 A 
ATOM     23  C   UNL     1       5.691  -2.389  -2.959  0.00  0.00    +0.047 A 
ATOM     24  C   UNL     1       4.340  -2.647  -3.256  0.00  0.00    +0.004 A 
ATOM     25  C   UNL     1       4.288  -4.029  -3.739  0.00  0.00    +0.028 A 
ATOM     26  C   UNL     1       5.543  -4.504  -3.704  0.00  0.00    +0.083 A 
ATOM     27  N   UNL     1       6.396  -3.537  -3.248  0.00  0.00    -0.361 N 
ATOM     28  H   UNL     1       7.353  -3.646  -3.136  0.00  0.00    +0.165 HD
ENDBRANCH  18  19
ENDBRANCH   3  18
TORSDOF 6
