REMARK  Name = ZINC64055085
REMARK  7 active torsions:
REMARK  status: ('A' for Active; 'I' for Inactive)
REMARK    1  A    between atoms: C_1  and  C_2
REMARK    2  A    between atoms: C_7  and  C_13
REMARK    3  A    between atoms: C_13  and  S_14
REMARK    4  A    between atoms: S_14  and  C_15
REMARK    5  A    between atoms: C_18  and  C_27
REMARK    6  A    between atoms: N_19  and  C_20
REMARK    7  A    between atoms: C_20  and  C_21
REMARK                            x       y       z     vdW  Elec       q    Type
REMARK                         _______ _______ _______ _____ _____    ______ ____
ROOT
ATOM      1  C   UNL     1      -1.365  -8.644   0.669  0.00  0.00    +0.192 A 
ATOM      2  N   UNL     1      -0.256  -9.313   0.949  0.00  0.00    -0.122 NA
ATOM      3  N   UNL     1      -0.469 -10.578   0.860  0.00  0.00    -0.129 NA
ATOM      4  C   UNL     1      -1.730 -10.796   0.516  0.00  0.00    +0.163 A 
ATOM      5  N   UNL     1      -2.335  -9.557   0.392  0.00  0.00    -0.300 N 
ENDROOT
BRANCH   4   6
ATOM      6  C   UNL     1      -2.339 -12.046   0.321  0.00  0.00    +0.025 C 
ATOM      7  C   UNL     1      -1.747 -13.302   0.453  0.00  0.00    +0.006 A 
ATOM      8  C   UNL     1      -0.440 -13.708   0.800  0.00  0.00    +0.010 A 
ATOM      9  C   UNL     1      -0.138 -15.031   0.852  0.00  0.00    +0.001 A 
ATOM     10  C   UNL     1      -1.091 -16.011   0.568  0.00  0.00    +0.002 A 
ATOM     11  C   UNL     1      -2.364 -15.693   0.227  0.00  0.00    +0.026 A 
ATOM     12  C   UNL     1      -2.756 -14.331   0.153  0.00  0.00    +0.043 A 
ATOM     13  N   UNL     1      -3.910 -13.771  -0.149  0.00  0.00    -0.380 N 
ATOM     14  C   UNL     1      -3.775 -12.313  -0.071  0.00  0.00    +0.152 C 
ATOM     15  H   UNL     1      -4.722 -14.248  -0.382  0.00  0.00    +0.160 HD
ENDBRANCH   4   6
BRANCH   1  16
ATOM     16  S   UNL     1      -1.551  -6.892   0.665  0.00  0.00    -0.080 S 
BRANCH  16  17
ATOM     17  C   UNL     1       0.095  -6.274   1.112  0.00  0.00    +0.133 C 
BRANCH  17  24
ATOM     18  C   UNL     1      -0.018   1.503   0.010  0.00  0.00    +0.045 C 
ATOM     19  C   UNL     1       0.002  -0.004   0.002  0.00  0.00    -0.034 A 
ATOM     20  C   UNL     1       0.006  -0.697  -1.217  0.00  0.00    +0.008 A 
ATOM     21  C   UNL     1       0.025  -2.059  -1.216  0.00  0.00    +0.047 A 
ATOM     22  C   UNL     1       0.040  -2.750   0.010  0.00  0.00    +0.141 A 
ATOM     23  N   UNL     1       0.059  -4.082   0.013  0.00  0.00    -0.233 NA
ATOM     24  C   UNL     1       0.074  -4.768   1.145  0.00  0.00    +0.059 A 
ATOM     25  C   UNL     1       0.071  -4.104   2.356  0.00  0.00    +0.094 A 
ATOM     26  C   UNL     1       0.051  -2.704   2.361  0.00  0.00    +0.259 A 
ATOM     27  O   UNL     1       0.048  -2.088   3.415  0.00  0.00    -0.267 OA
ATOM     28  N   UNL     1       0.037  -2.046   1.182  0.00  0.00    -0.268 N 
ATOM     29  C   UNL     1       0.022  -0.685   1.170  0.00  0.00    +0.099 A 
ENDBRANCH  17  24
ENDBRANCH  16  17
ENDBRANCH   1  16
BRANCH   5  30
ATOM     30  C   UNL     1      -3.729  -9.286   0.033  0.00  0.00    +0.157 C 
BRANCH  30  31
ATOM     31  C   UNL     1      -3.848  -9.157  -1.487  0.00  0.00    +0.138 C 
ATOM     32  C   UNL     1      -5.329  -8.960  -1.896  0.00  0.00    +0.035 C 
ATOM     33  C   UNL     1      -5.165  -8.233  -3.259  0.00  0.00    +0.031 C 
ATOM     34  C   UNL     1      -3.898  -7.381  -3.025  0.00  0.00    +0.160 C 
ATOM     35  O   UNL     1      -3.170  -7.975  -1.942  0.00  0.00    -0.375 OA
ENDBRANCH  30  31
ENDBRANCH   5  30
TORSDOF 6
