REMARK  Name = ZINC66217814
REMARK  6 active torsions:
REMARK  status: ('A' for Active; 'I' for Inactive)
REMARK    1  A    between atoms: C_1  and  S_2
REMARK    2  A    between atoms: S_2  and  C_3
REMARK    3  A    between atoms: C_6  and  N_9
REMARK    4  A    between atoms: C_10  and  C_12
REMARK    5  A    between atoms: N_14  and  C_15
REMARK    6  A    between atoms: C_15  and  C_16
REMARK                            x       y       z     vdW  Elec       q    Type
REMARK                         _______ _______ _______ _____ _____    ______ ____
ROOT
ATOM      1  N   UNL     1       2.838  -1.273  -4.997  0.00  0.00    -0.276 N 
ATOM      2  C   UNL     1       3.180  -0.260  -5.817  0.00  0.00    +0.303 C 
ATOM      3  O   UNL     1       2.982   0.889  -5.478  0.00  0.00    -0.265 OA
ATOM      4  H   UNL     1       3.066  -2.186  -5.233  0.00  0.00    +0.155 HD
ENDROOT
BRANCH   1   8
ATOM      5  C   UNL     1       0.863  -0.556  -1.448  0.00  0.00    +0.097 A 
ATOM      6  C   UNL     1       0.601   0.279  -2.531  0.00  0.00    +0.036 A 
ATOM      7  C   UNL     1       1.254   0.054  -3.728  0.00  0.00    +0.027 A 
ATOM      8  C   UNL     1       2.155  -1.008  -3.804  0.00  0.00    +0.052 A 
ATOM      9  C   UNL     1       2.366  -1.799  -2.684  0.00  0.00    +0.135 A 
ATOM     10  N   UNL     1       1.729  -1.552  -1.556  0.00  0.00    -0.247 NA
BRANCH   5  12
ATOM     11  C   UNL     1       0.688  -1.578   1.172  0.00  0.00    +0.091 C 
ATOM     12  S   UNL     1       0.038  -0.280   0.084  0.00  0.00    -0.109 S 
ENDBRANCH   5  12
ENDBRANCH   1   8
BRANCH   2  13
ATOM     13  C   UNL     1       3.803  -0.550  -7.143  0.00  0.00    +0.300 C 
ATOM     14  O   UNL     1       4.001  -1.698  -7.481  0.00  0.00    -0.265 OA
ATOM     15  N   UNL     1       4.145   0.464  -7.963  0.00  0.00    -0.303 N 
ATOM     16  H   UNL     1       3.986   1.381  -7.692  0.00  0.00    +0.149 HD
BRANCH  15  17
ATOM     17  C   UNL     1       4.756   0.179  -9.263  0.00  0.00    +0.147 C 
BRANCH  17  18
ATOM     18  C   UNL     1       5.039   1.474  -9.980  0.00  0.00    +0.008 A 
ATOM     19  C   UNL     1       6.157   2.240  -9.948  0.00  0.00    +0.028 A 
ATOM     20  C   UNL     1       6.195   3.403 -10.695  0.00  0.00    +0.025 A 
ATOM     21  C   UNL     1       5.112   3.743 -11.437  0.00  0.00    +0.060 A 
ATOM     22  S   UNL     1       3.993   2.394 -11.095  0.00  0.00    -0.099 S 
ATOM     23 BR   UNL     1       7.733   4.503 -10.682  0.00  0.00    -0.050 Br
ENDBRANCH  17  18
ENDBRANCH  15  17
ENDBRANCH   2  13
TORSDOF 5
