REMARK  Name = ZINC24746267
REMARK  16 active torsions:
REMARK  status: ('A' for Active; 'I' for Inactive)
REMARK    1  A    between atoms: C_1  and  C_2
REMARK    2  A    between atoms: C_2  and  C_3
REMARK    3  A    between atoms: C_3  and  C_4
REMARK    4  A    between atoms: C_7  and  C_10
REMARK    5  A    between atoms: C_10  and  C_12
REMARK    6  A    between atoms: C_10  and  N_15
REMARK    7  A    between atoms: C_12  and  C_13
REMARK    8  A    between atoms: C_12  and  C_14
REMARK    9  A    between atoms: N_15  and  C_16
REMARK   10  A    between atoms: C_16  and  C_17
REMARK   11  A    between atoms: C_21  and  S_28
REMARK   12  A    between atoms: N_25  and  C_26
REMARK   13  A    between atoms: C_26  and  C_27
REMARK   14  A    between atoms: S_28  and  N_31
REMARK   15  A    between atoms: N_31  and  C_32
REMARK   16  A    between atoms: N_31  and  C_33
REMARK                            x       y       z     vdW  Elec       q    Type
REMARK                         _______ _______ _______ _____ _____    ______ ____
ROOT
ATOM      1  C   UNL     1       1.442   3.376   2.542  0.00  0.00    -0.006 C 
ENDROOT
BRANCH   1   2
ATOM      2  C   UNL     1       0.203   3.878   1.847  0.00  0.00    +0.094 A 
ATOM      3  N   UNL     1      -0.123   5.131   1.718  0.00  0.00    -0.234 NA
ATOM      4  C   UNL     1      -1.300   5.229   1.047  0.00  0.00    +0.091 A 
ATOM      5  C   UNL     1      -2.094   6.307   0.647  0.00  0.00    +0.058 A 
ATOM      6  C   UNL     1      -3.257   6.081  -0.033  0.00  0.00    +0.108 A 
ATOM      7  C   UNL     1      -3.661   4.788  -0.332  0.00  0.00    +0.030 A 
ATOM      8  C   UNL     1      -2.894   3.709   0.052  0.00  0.00    +0.030 A 
ATOM      9  C   UNL     1      -1.709   3.920   0.744  0.00  0.00    +0.069 A 
ATOM     10  N   UNL     1      -0.736   3.087   1.260  0.00  0.00    -0.329 N 
BRANCH   6  11
ATOM     11  S   UNL     1      -4.253   7.445  -0.534  0.00  0.00    +0.060 S 
ATOM     12  O   UNL     1      -3.390   8.570  -0.615  0.00  0.00    -0.153 OA
ATOM     13  O   UNL     1      -5.028   6.997  -1.638  0.00  0.00    -0.153 OA
BRANCH  11  14
ATOM     14  N   UNL     1      -5.317   7.752   0.697  0.00  0.00    -0.183 NA
ATOM     15  C   UNL     1      -4.953   8.690   1.763  0.00  0.00    +0.131 C 
ATOM     16  C   UNL     1      -6.622   7.087   0.721  0.00  0.00    +0.131 C 
ENDBRANCH  11  14
ENDBRANCH   6  11
BRANCH  10  17
ATOM     17  C   UNL     1      -0.720   1.624   1.194  0.00  0.00    +0.120 C 
ATOM     18  C   UNL     1       0.003   1.179  -0.079  0.00  0.00    +0.027 C 
ENDBRANCH  10  17
ENDBRANCH   1   2
BRANCH   1  19
ATOM     19  N   UNL     1       2.541   3.274   1.571  0.00  0.00    +0.388 N 
ATOM     20  H   UNL     1       2.664   4.247   1.075  0.00  0.00    -0.084 HD
ATOM     21  H   UNL     1       2.281   2.510   0.823  0.00  0.00    -0.084 HD
BRANCH  19  22
ATOM     22  C   UNL     1       3.797   2.901   2.236  0.00  0.00    -0.038 C 
BRANCH  22  26
ATOM     23  C   UNL     1       5.573   6.373   3.977  0.00  0.00    -0.047 A 
ATOM     24  C   UNL     1       5.598   5.170   4.657  0.00  0.00    +0.004 A 
ATOM     25  C   UNL     1       5.023   4.046   4.093  0.00  0.00    +0.002 A 
ATOM     26  C   UNL     1       4.423   4.126   2.850  0.00  0.00    -0.061 A 
ATOM     27  C   UNL     1       4.403   5.329   2.169  0.00  0.00    +0.002 A 
ATOM     28  C   UNL     1       4.973   6.454   2.735  0.00  0.00    +0.004 A 
BRANCH  23  29
ATOM     29  C   UNL     1       6.200   7.598   4.592  0.00  0.00    +0.035 C 
BRANCH  29  31
ATOM     30  C   UNL     1       8.305   8.928   4.795  0.00  0.00    +0.004 C 
ATOM     31  C   UNL     1       7.669   7.685   4.172  0.00  0.00    +0.001 C 
ENDBRANCH  29  31
ENDBRANCH  23  29
ENDBRANCH  22  26
BRANCH  22  32
ATOM     32  C   UNL     1       4.757   2.298   1.208  0.00  0.00    -0.027 C 
ATOM     33  C   UNL     1       6.032   1.830   1.915  0.00  0.00    +0.006 C 
ATOM     34  C   UNL     1       4.088   1.106   0.522  0.00  0.00    +0.006 C 
ENDBRANCH  22  32
ENDBRANCH  19  22
ENDBRANCH   1  19
TORSDOF 10
