REMARK  Name = ZINC03043392
REMARK  5 active torsions:
REMARK  status: ('A' for Active; 'I' for Inactive)
REMARK    1  A    between atoms: C_1  and  C_2
REMARK    2  A    between atoms: C_2  and  C_36
REMARK    3  A    between atoms: C_6  and  C_19
REMARK    4  A    between atoms: C_22  and  C_24
REMARK    5  A    between atoms: C_28  and  N_30
REMARK                            x       y       z     vdW  Elec       q    Type
REMARK                         _______ _______ _______ _____ _____    ______ ____
ROOT
ATOM      1  C   UNL     1      -3.785   1.044   2.968  0.00  0.00    +0.011 C 
ATOM      2  C   UNL     1      -3.852   0.080   1.784  0.00  0.00    -0.024 C 
ATOM      3  C   UNL     1      -2.599   0.221   0.918  0.00  0.00    +0.043 C 
ATOM      4  C   UNL     1      -2.519   1.598   0.310  0.00  0.00    -0.029 C 
ATOM      5  C   UNL     1      -3.656   2.297   0.046  0.00  0.00    +0.026 C 
ATOM      6  C   UNL     1      -3.590   3.680  -0.555  0.00  0.00    +0.171 C 
ATOM      7  N   UNL     1      -2.317   4.321  -0.228  0.00  0.00    -0.330 N 
ATOM      8  C   UNL     1      -1.162   3.565  -0.123  0.00  0.00    +0.036 A 
ATOM      9  C   UNL     1      -1.252   2.172   0.043  0.00  0.00    +0.007 A 
ATOM     10  C   UNL     1      -0.017   1.392   0.010  0.00  0.00    -0.009 A 
ATOM     11  C   UNL     1       0.002  -0.004   0.002  0.00  0.00    +0.009 A 
ATOM     12  C   UNL     1       1.188  -0.679   0.063  0.00  0.00    +0.001 A 
ATOM     13  C   UNL     1       2.398   0.005   0.112  0.00  0.00    +0.001 A 
ATOM     14  C   UNL     1       2.424   1.366   0.082  0.00  0.00    +0.008 A 
ATOM     15  C   UNL     1       1.222   2.086   0.002  0.00  0.00    -0.017 A 
ATOM     16  C   UNL     1       1.239   3.489  -0.113  0.00  0.00    +0.010 A 
ATOM     17  C   UNL     1       0.082   4.194  -0.190  0.00  0.00    +0.024 A 
ATOM     18  C   UNL     1      -4.923   1.761   0.322  0.00  0.00    +0.162 C 
ATOM     19  O   UNL     1      -5.918   2.416   0.076  0.00  0.00    -0.292 OA
ATOM     20  C   UNL     1      -5.079   0.391   0.923  0.00  0.00    +0.086 C 
ATOM     21  C   UNL     1      -3.950  -1.357   2.305  0.00  0.00    +0.011 C 
ATOM     22  H   UNL     1      -2.280   5.286  -0.081  0.00  0.00    +0.147 HD
ENDROOT
BRANCH   6  23
ATOM     23  C   UNL     1      -3.733   3.586  -2.052  0.00  0.00    +0.130 A 
ATOM     24  C   UNL     1      -4.864   3.813  -2.749  0.00  0.00    +0.047 A 
ATOM     25  C   UNL     1      -4.555   3.618  -4.110  0.00  0.00    +0.050 A 
ATOM     26  C   UNL     1      -3.242   3.271  -4.168  0.00  0.00    +0.135 A 
ATOM     27  O   UNL     1      -2.757   3.255  -2.912  0.00  0.00    -0.457 OA
BRANCH  26  28
ATOM     28  C   UNL     1      -2.480   2.963  -5.397  0.00  0.00    +0.019 A 
ATOM     29  C   UNL     1      -3.107   3.018  -6.643  0.00  0.00    +0.012 A 
ATOM     30  C   UNL     1      -2.390   2.730  -7.786  0.00  0.00    +0.003 A 
ATOM     31  C   UNL     1      -1.052   2.388  -7.699  0.00  0.00    +0.033 A 
ATOM     32  C   UNL     1      -0.425   2.333  -6.467  0.00  0.00    +0.127 A 
ATOM     33  C   UNL     1      -1.129   2.624  -5.317  0.00  0.00    +0.044 A 
BRANCH  32  34
ATOM     34  N   UNL     1       1.007   1.967  -6.384  0.00  0.00    +0.056 N 
ATOM     35  O   UNL     1       1.631   1.714  -7.399  0.00  0.00    -0.126 OA
ATOM     36  O   UNL     1       1.561   1.918  -5.300  0.00  0.00    -0.126 OA
ENDBRANCH  32  34
ENDBRANCH  26  28
ENDBRANCH   6  23
TORSDOF 3
