REMARK  Name = ZINC04256879
REMARK  6 active torsions:
REMARK  status: ('A' for Active; 'I' for Inactive)
REMARK    1  A    between atoms: C_4  and  N_7
REMARK    2  A    between atoms: C_8  and  C_10
REMARK    3  A    between atoms: C_10  and  C_11
REMARK    4  A    between atoms: C_18  and  C_21
REMARK    5  A    between atoms: C_21  and  C_22
REMARK    6  A    between atoms: N_24  and  C_25
REMARK                            x       y       z     vdW  Elec       q    Type
REMARK                         _______ _______ _______ _____ _____    ______ ____
ROOT
ATOM      1  C   UNL     1      -3.658   1.831   0.029  0.00  0.00    -0.020 C 
ATOM      2  C   UNL     1      -3.583   2.705   1.283  0.00  0.00    +0.011 C 
ATOM      3  C   UNL     1      -4.760   3.683   1.294  0.00  0.00    -0.010 C 
ATOM      4  C   UNL     1      -4.696   4.571   0.049  0.00  0.00    +0.007 C 
ATOM      5  C   UNL     1      -4.771   3.697  -1.204  0.00  0.00    -0.010 C 
ATOM      6  C   UNL     1      -3.595   2.718  -1.215  0.00  0.00    +0.011 C 
ATOM      7  C   UNL     1      -6.086   2.914  -1.202  0.00  0.00    +0.011 C 
ATOM      8  C   UNL     1      -6.149   2.026   0.042  0.00  0.00    -0.020 C 
ATOM      9  C   UNL     1      -6.074   2.900   1.296  0.00  0.00    +0.011 C 
ATOM     10  C   UNL     1      -4.973   1.048   0.031  0.00  0.00    +0.014 C 
ENDROOT
BRANCH   1  11
ATOM     11  C   UNL     1      -2.482   0.853   0.018  0.00  0.00    +0.102 C 
BRANCH  11  13
ATOM     12  N   UNL     1      -0.011   0.966   0.007  0.00  0.00    -0.312 N 
ATOM     13  C   UNL     1      -1.187   1.624   0.017  0.00  0.00    +0.214 C 
ATOM     14  O   UNL     1      -1.204   2.837   0.023  0.00  0.00    -0.276 OA
ATOM     15  H   UNL     1       0.004  -0.134   0.006  0.00  0.00    +0.149 HD
BRANCH  12  19
ATOM     16  C   UNL     1       4.035   2.010  -0.853  0.00  0.00    +0.000 C 
ATOM     17  C   UNL     1       3.675   1.633   0.585  0.00  0.00    +0.002 C 
ATOM     18  C   UNL     1       2.361   0.850   0.594  0.00  0.00    +0.022 C 
ATOM     19  C   UNL     1       1.248   1.716  -0.001  0.00  0.00    +0.073 C 
ATOM     20  C   UNL     1       1.608   2.092  -1.439  0.00  0.00    +0.022 C 
ATOM     21  C   UNL     1       2.922   2.875  -1.448  0.00  0.00    +0.002 C 
ENDBRANCH  12  19
ENDBRANCH  11  13
ENDBRANCH   1  11
BRANCH   8  22
ATOM     22  C   UNL     1      -7.464   1.243   0.044  0.00  0.00    +0.102 C 
BRANCH  22  23
ATOM     23  C   UNL     1      -8.622   2.207   0.055  0.00  0.00    +0.214 C 
ATOM     24  O   UNL     1      -8.417   3.402   0.060  0.00  0.00    -0.276 OA
ATOM     25  N   UNL     1      -9.887   1.741   0.058  0.00  0.00    -0.312 N 
ATOM     26  H   UNL     1     -10.073   0.656   0.053  0.00  0.00    +0.149 HD
BRANCH  25  27
ATOM     27  C   UNL     1     -11.013   2.677   0.069  0.00  0.00    +0.073 C 
ATOM     28  C   UNL     1     -11.318   3.092   1.510  0.00  0.00    +0.022 C 
ATOM     29  C   UNL     1     -12.494   4.071   1.520  0.00  0.00    +0.002 C 
ATOM     30  C   UNL     1     -13.725   3.395   0.913  0.00  0.00    +0.000 C 
ATOM     31  C   UNL     1     -13.420   2.980  -0.528  0.00  0.00    +0.002 C 
ATOM     32  C   UNL     1     -12.244   2.002  -0.539  0.00  0.00    +0.022 C 
ENDBRANCH  25  27
ENDBRANCH  22  23
ENDBRANCH   8  22
TORSDOF 6
