REMARK  Name = ZINC06393624
REMARK  8 active torsions:
REMARK  status: ('A' for Active; 'I' for Inactive)
REMARK    1  A    between atoms: C_6  and  O_11
REMARK    2  A    between atoms: O_11  and  C_12
REMARK    3  A    between atoms: C_12  and  C_13
REMARK    4  A    between atoms: N_15  and  C_16
REMARK    5  A    between atoms: C_16  and  N_18
REMARK    6  A    between atoms: N_18  and  C_19
REMARK    7  A    between atoms: C_22  and  S_25
REMARK    8  A    between atoms: S_25  and  N_28
REMARK                            x       y       z     vdW  Elec       q    Type
REMARK                         _______ _______ _______ _____ _____    ______ ____
ROOT
ATOM      1  C   UNL     1       2.168   9.522   0.832  0.00  0.00    +0.256 C 
ATOM      2  O   UNL     1       1.112  10.006   1.179  0.00  0.00    -0.272 OA
ATOM      3  N   UNL     1       3.177  10.323   0.434  0.00  0.00    -0.265 N 
ATOM      4  H   UNL     1       4.022   9.936   0.157  0.00  0.00    +0.157 HD
ENDROOT
BRANCH   3   5
ATOM      5  C   UNL     1       3.012  11.660   0.423  0.00  0.00    +0.141 C 
ATOM      6  S   UNL     1       1.520  12.343   0.913  0.00  0.00    -0.018 S 
BRANCH   5   7
ATOM      7  N   UNL     1       4.021  12.460   0.025  0.00  0.00    -0.297 N 
ATOM      8  H   UNL     1       4.885  12.078  -0.194  0.00  0.00    +0.154 HD
BRANCH   7   9
ATOM      9  C   UNL     1       3.822  13.841  -0.071  0.00  0.00    +0.033 A 
ATOM     10  C   UNL     1       4.278  14.534  -1.185  0.00  0.00    +0.025 A 
ATOM     11  C   UNL     1       4.075  15.897  -1.280  0.00  0.00    +0.030 A 
ATOM     12  C   UNL     1       3.428  16.573  -0.263  0.00  0.00    +0.105 A 
ATOM     13  C   UNL     1       2.977  15.888   0.850  0.00  0.00    +0.030 A 
ATOM     14  C   UNL     1       3.172  14.524   0.949  0.00  0.00    +0.025 A 
BRANCH  12  15
ATOM     15  S   UNL     1       3.176  18.313  -0.385  0.00  0.00    +0.056 S 
ATOM     16  O   UNL     1       3.206  18.631  -1.770  0.00  0.00    -0.153 OA
ATOM     17  O   UNL     1       2.064  18.622   0.444  0.00  0.00    -0.153 OA
BRANCH  15  18
ATOM     18  N   UNL     1       4.494  19.047   0.297  0.00  0.00    -0.204 NA
ATOM     19  H   UNL     1       5.213  18.510   0.665  0.00  0.00    +0.144 HD
ATOM     20  H   UNL     1       4.548  20.015   0.329  0.00  0.00    +0.144 HD
ENDBRANCH  15  18
ENDBRANCH  12  15
ENDBRANCH   7   9
ENDBRANCH   5   7
ENDBRANCH   3   5
BRANCH   1  21
ATOM     21  C   UNL     1       2.353   8.027   0.845  0.00  0.00    +0.324 C 
BRANCH  21  22
ATOM     22  O   UNL     1       1.151   7.402   1.301  0.00  0.00    -0.483 OA
BRANCH  22  28
ATOM     23  C   UNL     1       0.067   1.221   2.006  0.00  0.00    +0.001 A 
ATOM     24  C   UNL     1      -1.079   1.928   2.367  0.00  0.00    +0.001 A 
ATOM     25  C   UNL     1      -1.110   3.287   2.313  0.00  0.00    +0.008 A 
ATOM     26  C   UNL     1       0.026   3.992   1.876  0.00  0.00    -0.014 A 
ATOM     27  C   UNL     1       0.028   5.394   1.802  0.00  0.00    +0.054 A 
ATOM     28  C   UNL     1       1.149   6.045   1.373  0.00  0.00    +0.122 A 
ATOM     29  C   UNL     1       2.296   5.334   1.006  0.00  0.00    +0.046 A 
ATOM     30  C   UNL     1       2.325   3.976   1.067  0.00  0.00    +0.012 A 
ATOM     31  C   UNL     1       1.189   3.273   1.504  0.00  0.00    -0.018 A 
ATOM     32  C   UNL     1       1.185   1.870   1.579  0.00  0.00    +0.008 A 
ENDBRANCH  22  28
ENDBRANCH  21  22
ENDBRANCH   1  21
TORSDOF 8
