REMARK  Name = ZINC02235470
REMARK  5 active torsions:
REMARK  status: ('A' for Active; 'I' for Inactive)
REMARK    1  A    between atoms: C_1  and  C_2
REMARK    2  A    between atoms: C_2  and  C_30
REMARK    3  A    between atoms: C_4  and  N_9
REMARK    4  A    between atoms: C_12  and  O_14
REMARK    5  A    between atoms: C_15  and  C_22
REMARK                            x       y       z     vdW  Elec       q    Type
REMARK                         _______ _______ _______ _____ _____    ______ ____
ROOT
ATOM      1  N   UNL     1       0.158  -0.343  -0.662  0.00  0.00    -0.243 N 
ATOM      2  C   UNL     1       1.474  -0.629  -0.387  0.00  0.00    +0.132 A 
ATOM      3  C   UNL     1       2.127   0.550  -0.304  0.00  0.00    +0.072 A 
ATOM      4  C   UNL     1       1.187   1.582  -0.533  0.00  0.00    +0.238 A 
ATOM      5  N   UNL     1       0.018   1.042  -0.746  0.00  0.00    -0.131 NA
ATOM      6  C   UNL     1       3.570   0.839  -0.030  0.00  0.00    +0.117 C 
ATOM      7  S   UNL     1       4.682  -0.401  -0.699  0.00  0.00    -0.138 S 
ATOM      8  C   UNL     1       4.376  -1.902   0.243  0.00  0.00    +0.166 C 
ATOM      9  C   UNL     1       3.051  -2.497  -0.033  0.00  0.00    +0.228 C 
ATOM     10  O   UNL     1       3.034  -3.709  -0.071  0.00  0.00    -0.275 OA
ATOM     11  N   UNL     1       1.902  -1.927  -0.242  0.00  0.00    -0.270 N 
ATOM     12  H   UNL     1       1.177  -2.567  -0.312  0.00  0.00    +0.156 HD
ENDROOT
BRANCH   1  16
ATOM     13  C   UNL     1      -2.180  -3.587  -2.251  0.00  0.00    +0.041 C 
ATOM     14  C   UNL     1      -2.693  -2.151  -2.383  0.00  0.00    +0.066 C 
ATOM     15  C   UNL     1      -1.523  -1.175  -2.236  0.00  0.00    +0.061 C 
ATOM     16  C   UNL     1      -0.915  -1.325  -0.838  0.00  0.00    +0.114 C 
ATOM     17  C   UNL     1      -2.006  -1.086   0.209  0.00  0.00    +0.055 C 
ATOM     18  C   UNL     1      -3.158  -2.065  -0.032  0.00  0.00    +0.162 C 
ATOM     19  O   UNL     1      -3.657  -1.894  -1.360  0.00  0.00    -0.374 OA
ATOM     20  C   UNL     1      -3.344  -1.966  -3.755  0.00  0.00    +0.041 C 
ENDBRANCH   1  16
BRANCH   6  21
ATOM     21  C   UNL     1       3.919   2.176  -0.630  0.00  0.00    -0.011 A 
ATOM     22  C   UNL     1       4.041   3.288   0.182  0.00  0.00    +0.008 A 
ATOM     23  C   UNL     1       4.366   4.513  -0.368  0.00  0.00    +0.020 A 
ATOM     24  C   UNL     1       4.559   4.630  -1.733  0.00  0.00    +0.042 A 
ATOM     25  C   UNL     1       4.431   3.519  -2.547  0.00  0.00    +0.040 A 
ATOM     26  C   UNL     1       4.111   2.292  -1.996  0.00  0.00    +0.047 A 
ATOM     27 CL   UNL     1       3.950   0.897  -3.016  0.00  0.00    -0.083 Cl
ATOM     28 CL   UNL     1       4.960   6.171  -2.424  0.00  0.00    -0.083 Cl
ENDBRANCH   6  21
BRANCH   4  29
ATOM     29  O   UNL     1       1.456   2.914  -0.533  0.00  0.00    -0.491 OA
ATOM     30  H   UNL     1       1.361   3.335   0.333  0.00  0.00    +0.294 HD
ENDBRANCH   4  29
TORSDOF 3
