REMARK  Name = ZINC15684687
REMARK  5 active torsions:
REMARK  status: ('A' for Active; 'I' for Inactive)
REMARK    1  A    between atoms: C_3  and  C_10
REMARK    2  A    between atoms: C_5  and  N_7
REMARK    3  A    between atoms: N_11  and  N_12
REMARK    4  A    between atoms: C_17  and  C_20
REMARK    5  A    between atoms: C_20  and  C_21
REMARK                            x       y       z     vdW  Elec       q    Type
REMARK                         _______ _______ _______ _____ _____    ______ ____
ROOT
ATOM      1  N   UNL     1       2.465   4.097  -0.103  0.00  0.00    -0.127 NA
ATOM      2  C   UNL     1       2.455   5.462  -0.199  0.00  0.00    +0.183 C 
ATOM      3  N   UNL     1       1.371   6.271  -0.193  0.00  0.00    -0.263 N 
ATOM      4  C   UNL     1       1.460   7.591  -0.292  0.00  0.00    +0.232 C 
ATOM      5  O   UNL     1       0.498   8.328  -0.288  0.00  0.00    -0.274 OA
ATOM      6  C   UNL     1       2.896   8.083  -0.411  0.00  0.00    +0.144 C 
ATOM      7  S   UNL     1       3.788   6.477  -0.342  0.00  0.00    -0.075 S 
ATOM      8  H   UNL     1       0.492   5.870  -0.114  0.00  0.00    +0.157 HD
ENDROOT
BRANCH   1  10
ATOM      9  C   UNL     1       3.594   2.109  -0.021  0.00  0.00    +0.143 C 
ATOM     10  N   UNL     1       3.585   3.457  -0.117  0.00  0.00    -0.155 NA
BRANCH   9  13
ATOM     11  C   UNL     1       0.026   1.342  -0.512  0.00  0.00    +0.003 A 
ATOM     12  C   UNL     1       1.188   2.052  -0.443  0.00  0.00    +0.009 A 
ATOM     13  C   UNL     1       2.392   1.393  -0.096  0.00  0.00    -0.003 A 
ATOM     14  C   UNL     1       2.370   0.003   0.176  0.00  0.00    +0.042 A 
ATOM     15  C   UNL     1       1.193  -0.681   0.100  0.00  0.00    +0.127 A 
ATOM     16  C   UNL     1       0.019  -0.021  -0.243  0.00  0.00    +0.033 A 
BRANCH  15  17
ATOM     17  N   UNL     1       1.166  -2.134   0.382  0.00  0.00    +0.056 N 
ATOM     18  O   UNL     1       2.277  -2.763   0.707  0.00  0.00    -0.126 OA
ATOM     19  O   UNL     1       0.031  -2.798   0.309  0.00  0.00    -0.126 OA
ENDBRANCH  15  17
ENDBRANCH   9  13
ENDBRANCH   1  10
BRANCH   6  20
ATOM     20  C   UNL     1       3.130   8.800  -1.743  0.00  0.00    +0.059 C 
BRANCH  20  21
ATOM     21  C   UNL     1       4.522   9.375  -1.766  0.00  0.00    -0.046 A 
ATOM     22  C   UNL     1       4.749  10.656  -1.296  0.00  0.00    +0.005 A 
ATOM     23  C   UNL     1       6.026  11.184  -1.316  0.00  0.00    +0.015 A 
ATOM     24  C   UNL     1       7.077  10.431  -1.807  0.00  0.00    +0.018 A 
ATOM     25  C   UNL     1       6.851   9.150  -2.277  0.00  0.00    +0.015 A 
ATOM     26  C   UNL     1       5.574   8.621  -2.251  0.00  0.00    +0.005 A 
ATOM     27 BR   UNL     1       8.825  11.154  -1.836  0.00  0.00    -0.050 Br
ENDBRANCH  20  21
ENDBRANCH   6  20
TORSDOF 5
