REMARK  Name = ZINC45527470
REMARK  8 active torsions:
REMARK  status: ('A' for Active; 'I' for Inactive)
REMARK    1  A    between atoms: C_1  and  C_2
REMARK    2  A    between atoms: C_2  and  C_4
REMARK    3  A    between atoms: C_2  and  N_14
REMARK    4  A    between atoms: C_7  and  S_10
REMARK    5  A    between atoms: S_10  and  N_13
REMARK    6  A    between atoms: N_14  and  C_15
REMARK    7  A    between atoms: C_16  and  C_18
REMARK    8  A    between atoms: C_22  and  N_27
REMARK                            x       y       z     vdW  Elec       q    Type
REMARK                         _______ _______ _______ _____ _____    ______ ____
ROOT
ATOM      1  N   UNL     1       0.603  -0.391  -1.186  0.00  0.00    -0.293 N 
ATOM      2  C   UNL     1       2.030  -0.143  -1.413  0.00  0.00    +0.133 C 
ATOM      3  C   UNL     1      -0.132  -1.009  -2.132  0.00  0.00    +0.254 C 
ATOM      4  O   UNL     1      -1.301  -1.269  -1.920  0.00  0.00    -0.269 OA
ENDROOT
BRANCH   3   5
ATOM      5  C   UNL     1       0.480  -1.368  -3.420  0.00  0.00    +0.075 A 
ATOM      6  C   UNL     1      -0.120  -1.873  -4.530  0.00  0.00    +0.029 A 
ATOM      7  C   UNL     1       0.647  -2.154  -5.676  0.00  0.00    -0.008 A 
ATOM      8  C   UNL     1       0.209  -2.679  -6.919  0.00  0.00    +0.041 A 
ATOM      9  C   UNL     1       1.088  -2.893  -7.931  0.00  0.00    +0.127 A 
ATOM     10  C   UNL     1       2.442  -2.608  -7.793  0.00  0.00    +0.034 A 
ATOM     11  C   UNL     1       2.910  -2.095  -6.601  0.00  0.00    +0.018 A 
ATOM     12  C   UNL     1       2.029  -1.873  -5.564  0.00  0.00    +0.020 A 
ATOM     13  S   UNL     1       2.190  -1.241  -3.913  0.00  0.00    -0.084 S 
BRANCH   9  14
ATOM     14  N   UNL     1       0.594  -3.442  -9.213  0.00  0.00    +0.056 N 
ATOM     15  O   UNL     1      -0.581  -3.696  -9.349  0.00  0.00    -0.126 OA
ATOM     16  O   UNL     1       1.364  -3.638 -10.125  0.00  0.00    -0.126 OA
ENDBRANCH   9  14
ENDBRANCH   3   5
BRANCH   1  18
ATOM     17  C   UNL     1       0.255   1.519   0.301  0.00  0.00    +0.033 C 
ATOM     18  C   UNL     1      -0.024   0.033   0.068  0.00  0.00    +0.103 C 
BRANCH  18  19
ATOM     19  C   UNL     1       0.545  -0.769   1.210  0.00  0.00    -0.027 A 
ATOM     20  C   UNL     1       1.912  -0.815   1.410  0.00  0.00    +0.007 A 
ATOM     21  C   UNL     1       2.433  -1.551   2.457  0.00  0.00    +0.029 A 
ATOM     22  C   UNL     1       1.587  -2.241   3.305  0.00  0.00    +0.105 A 
ATOM     23  C   UNL     1       0.220  -2.195   3.106  0.00  0.00    +0.029 A 
ATOM     24  C   UNL     1      -0.301  -1.455   2.061  0.00  0.00    +0.007 A 
BRANCH  22  25
ATOM     25  S   UNL     1       2.252  -3.180   4.640  0.00  0.00    +0.056 S 
ATOM     26  O   UNL     1       1.286  -4.173   4.958  0.00  0.00    -0.153 OA
ATOM     27  O   UNL     1       3.588  -3.505   4.283  0.00  0.00    -0.153 OA
BRANCH  25  28
ATOM     28  N   UNL     1       2.343  -2.172   5.950  0.00  0.00    -0.204 NA
ATOM     29  H   UNL     1       2.053  -1.250   5.874  0.00  0.00    +0.144 HD
ATOM     30  H   UNL     1       2.687  -2.504   6.794  0.00  0.00    +0.144 HD
ENDBRANCH  25  28
ENDBRANCH  22  25
ENDBRANCH  18  19
ENDBRANCH   1  18
TORSDOF 6
