REMARK  Name = ZINC48925960
REMARK  1 active torsions:
REMARK  status: ('A' for Active; 'I' for Inactive)
REMARK    1  A    between atoms: C_5  and  C_6
REMARK                            x       y       z     vdW  Elec       q    Type
REMARK                         _______ _______ _______ _____ _____    ______ ____
ROOT
ATOM      1  C   UNL     1      -1.171  -0.881   0.009  0.00  0.00    +0.285 C 
ATOM      2  O   UNL     1      -2.290  -0.401   0.022  0.00  0.00    -0.266 OA
ATOM      3  N   UNL     1      -1.013  -2.219  -0.000  0.00  0.00    -0.258 N 
ATOM      4  C   UNL     1      -2.125  -3.050   0.006  0.00  0.00    +0.165 A 
ATOM      5  N   UNL     1      -3.392  -2.719   0.014  0.00  0.00    -0.229 NA
ATOM      6  C   UNL     1      -4.370  -3.639   0.021  0.00  0.00    +0.054 A 
ATOM      7  C   UNL     1      -3.955  -4.911   0.063  0.00  0.00    +0.014 A 
ATOM      8  S   UNL     1      -2.179  -4.731  -0.003  0.00  0.00    -0.057 S 
ATOM      9  C   UNL     1      -4.661  -6.227   0.209  0.00  0.00    +0.044 C 
ATOM     10  C   UNL     1      -6.175  -6.051   0.356  0.00  0.00    +0.005 C 
ATOM     11  C   UNL     1      -6.823  -5.803  -0.998  0.00  0.00    +0.000 C 
ATOM     12  C   UNL     1      -5.971  -4.936  -1.904  0.00  0.00    +0.000 C 
ATOM     13  C   UNL     1      -6.266  -3.473  -1.555  0.00  0.00    +0.006 C 
ATOM     14  C   UNL     1      -5.821  -3.211  -0.114  0.00  0.00    +0.056 C 
ATOM     15  H   UNL     1      -0.122  -2.602  -0.011  0.00  0.00    +0.157 HD
ENDROOT
BRANCH   1  20
ATOM     16  C   UNL     1      -0.017   1.362   0.009  0.00  0.00    +0.056 A 
ATOM     17  C   UNL     1       1.321   1.784  -0.001  0.00  0.00    +0.058 A 
ATOM     18  C   UNL     1       2.090   0.671  -0.014  0.00  0.00    +0.171 A 
ATOM     19  O   UNL     1       1.291  -0.404  -0.012  0.00  0.00    -0.444 OA
ATOM     20  C   UNL     1       0.002  -0.004   0.002  0.00  0.00    +0.191 A 
ATOM     21 BR   UNL     1       3.981   0.638  -0.033  0.00  0.00    -0.008 Br
ENDBRANCH   1  20
TORSDOF 1
