REMARK  Name = ZINC14537791
REMARK  7 active torsions:
REMARK  status: ('A' for Active; 'I' for Inactive)
REMARK    1  A    between atoms: C_4  and  C_6
REMARK    2  A    between atoms: C_6  and  N_7
REMARK    3  A    between atoms: C_8  and  C_10
REMARK    4  A    between atoms: N_13  and  C_15
REMARK    5  A    between atoms: C_15  and  C_16
REMARK    6  A    between atoms: C_23  and  C_25
REMARK    7  A    between atoms: C_25  and  C_26
REMARK                            x       y       z     vdW  Elec       q    Type
REMARK                         _______ _______ _______ _____ _____    ______ ____
ROOT
ATOM      1  C   UNL     1       7.225  -5.837  -4.426  0.00  0.00    +0.152 A 
ATOM      2  C   UNL     1       6.666  -5.421  -3.208  0.00  0.00    +0.023 A 
ATOM      3  C   UNL     1       6.123  -6.530  -2.646  0.00  0.00    +0.046 A 
ATOM      4  N   UNL     1       6.353  -7.552  -3.489  0.00  0.00    -0.267 N 
ATOM      5  N   UNL     1       6.996  -7.135  -4.524  0.00  0.00    -0.166 NA
ATOM      6  C   UNL     1       5.406  -6.545  -1.321  0.00  0.00    +0.074 C 
ATOM      7  C   UNL     1       5.781  -5.278  -0.542  0.00  0.00    +0.114 C 
ATOM      8  N   UNL     1       5.707  -4.116  -1.440  0.00  0.00    -0.296 N 
ATOM      9  C   UNL     1       6.634  -4.055  -2.585  0.00  0.00    +0.147 C 
ATOM     10  C   UNL     1       4.810  -3.133  -1.224  0.00  0.00    +0.222 C 
ATOM     11  O   UNL     1       4.761  -2.181  -1.974  0.00  0.00    -0.275 OA
ENDROOT
BRANCH   1  13
ATOM     12  N   UNL     1       8.417  -5.531  -6.542  0.00  0.00    -0.304 N 
ATOM     13  C   UNL     1       7.931  -4.988  -5.408  0.00  0.00    +0.265 C 
ATOM     14  O   UNL     1       8.073  -3.800  -5.194  0.00  0.00    -0.268 OA
ATOM     15  H   UNL     1       8.303  -6.479  -6.713  0.00  0.00    +0.149 HD
BRANCH  12  16
ATOM     16  C   UNL     1       9.117  -4.690  -7.516  0.00  0.00    +0.167 C 
BRANCH  16  20
ATOM     17  C   UNL     1       9.441  -6.567 -10.729  0.00  0.00    +0.119 A 
ATOM     18  C   UNL     1      10.682  -7.076 -10.519  0.00  0.00    +0.066 A 
ATOM     19  S   UNL     1      11.047  -6.397  -8.906  0.00  0.00    -0.079 S 
ATOM     20  C   UNL     1       9.557  -5.534  -8.684  0.00  0.00    +0.095 A 
ATOM     21  N   UNL     1       8.910  -5.809  -9.793  0.00  0.00    -0.251 NA
ENDBRANCH  16  20
ENDBRANCH  12  16
ENDBRANCH   1  13
BRANCH   4  22
ATOM     22  C   UNL     1       5.935  -8.937  -3.262  0.00  0.00    +0.147 C 
BRANCH  22  23
ATOM     23  C   UNL     1       4.539  -9.151  -3.851  0.00  0.00    +0.010 C 
ATOM     24  C   UNL     1       3.409  -9.500  -2.881  0.00  0.00    +0.005 C 
ATOM     25  C   UNL     1       3.969 -10.570  -3.820  0.00  0.00    +0.005 C 
ENDBRANCH  22  23
ENDBRANCH   4  22
BRANCH  10  26
ATOM     26  C   UNL     1       3.867  -3.217  -0.052  0.00  0.00    +0.153 C 
BRANCH  26  27
ATOM     27  C   UNL     1       2.974  -2.003  -0.037  0.00  0.00    +0.069 A 
ATOM     28  C   UNL     1       1.631  -2.016  -0.024  0.00  0.00    +0.117 A 
ATOM     29  N   UNL     1       1.195  -0.694  -0.013  0.00  0.00    -0.300 N 
ATOM     30  C   UNL     1       0.002  -0.004   0.002  0.00  0.00    +0.100 A 
ATOM     31  C   UNL     1      -0.016   1.328   0.009  0.00  0.00    +0.067 A 
ATOM     32  S   UNL     1       1.726   1.720  -0.005  0.00  0.00    -0.058 S 
ATOM     33  C   UNL     1       2.343   0.054  -0.020  0.00  0.00    +0.178 A 
ATOM     34  N   UNL     1       3.386  -0.726  -0.034  0.00  0.00    -0.226 NA
ENDBRANCH  26  27
ENDBRANCH  10  26
TORSDOF 7
