REMARK  Name = ZINC04282444
REMARK  7 active torsions:
REMARK  status: ('A' for Active; 'I' for Inactive)
REMARK    1  A    between atoms: C_4  and  O_22
REMARK    2  A    between atoms: C_5  and  C_7
REMARK    3  A    between atoms: N_8  and  N_9
REMARK    4  A    between atoms: C_10  and  C_12
REMARK    5  A    between atoms: N_14  and  C_15
REMARK    6  A    between atoms: O_22  and  C_23
REMARK    7  A    between atoms: C_23  and  C_24
REMARK                            x       y       z     vdW  Elec       q    Type
REMARK                         _______ _______ _______ _____ _____    ______ ____
ROOT
ATOM      1  C   UNL     1       2.237   4.242   0.014  0.00  0.00    +0.142 C 
ATOM      2  N   UNL     1       1.120   3.577   0.023  0.00  0.00    -0.187 NA
ENDROOT
BRANCH   1   7
ATOM      3  C   UNL     1       3.389   7.813   0.036  0.00  0.00    +0.001 A 
ATOM      4  C   UNL     1       2.180   8.488   0.061  0.00  0.00    +0.004 A 
ATOM      5  C   UNL     1       0.988   7.789   0.072  0.00  0.00    +0.046 A 
ATOM      6  C   UNL     1       0.995   6.403   0.056  0.00  0.00    +0.130 A 
ATOM      7  C   UNL     1       2.217   5.715   0.031  0.00  0.00    +0.036 A 
ATOM      8  C   UNL     1       3.415   6.434   0.027  0.00  0.00    +0.013 A 
BRANCH   6   9
ATOM      9  O   UNL     1      -0.175   5.715   0.066  0.00  0.00    -0.487 OA
BRANCH   9  10
ATOM     10  C   UNL     1      -1.380   6.484   0.092  0.00  0.00    +0.264 C 
BRANCH  10  11
ATOM     11  C   UNL     1      -2.567   5.557   0.098  0.00  0.00    -0.010 A 
ATOM     12  C   UNL     1      -3.133   5.150  -1.095  0.00  0.00    +0.008 A 
ATOM     13  C   UNL     1      -4.220   4.295  -1.090  0.00  0.00    +0.015 A 
ATOM     14  C   UNL     1      -4.747   3.856   0.111  0.00  0.00    +0.018 A 
ATOM     15  C   UNL     1      -4.184   4.268   1.305  0.00  0.00    +0.015 A 
ATOM     16  C   UNL     1      -3.095   5.118   1.299  0.00  0.00    +0.008 A 
ATOM     17 BR   UNL     1      -6.238   2.692   0.119  0.00  0.00    -0.050 Br
ENDBRANCH  10  11
ENDBRANCH   9  10
ENDBRANCH   6   9
ENDBRANCH   1   7
BRANCH   2  18
ATOM     18  N   UNL     1       1.139   2.177   0.007  0.00  0.00    -0.199 N 
ATOM     19  C   UNL     1      -0.018   1.487   0.017  0.00  0.00    +0.318 C 
ATOM     20  O   UNL     1      -1.078   2.079   0.034  0.00  0.00    -0.263 OA
ATOM     21  H   UNL     1       1.986   1.703  -0.010  0.00  0.00    +0.178 HD
BRANCH  19  22
ATOM     22  C   UNL     1       0.002  -0.004   0.000  0.00  0.00    +0.305 C 
ATOM     23  O   UNL     1       1.062  -0.596  -0.022  0.00  0.00    -0.265 OA
ATOM     24  N   UNL     1      -1.156  -0.694   0.009  0.00  0.00    -0.278 N 
ATOM     25  H   UNL     1      -2.000  -0.224   0.095  0.00  0.00    +0.155 HD
BRANCH  24  26
ATOM     26  C   UNL     1      -1.140  -2.087  -0.104  0.00  0.00    +0.034 A 
ATOM     27  C   UNL     1      -2.156  -2.741  -0.789  0.00  0.00    +0.025 A 
ATOM     28  C   UNL     1      -2.135  -4.117  -0.905  0.00  0.00    +0.022 A 
ATOM     29  C   UNL     1      -1.109  -4.845  -0.328  0.00  0.00    +0.041 A 
ATOM     30  C   UNL     1      -0.099  -4.197   0.361  0.00  0.00    +0.022 A 
ATOM     31  C   UNL     1      -0.112  -2.821   0.474  0.00  0.00    +0.025 A 
ATOM     32 CL   UNL     1      -1.090  -6.575  -0.468  0.00  0.00    -0.084 Cl
ENDBRANCH  24  26
ENDBRANCH  19  22
ENDBRANCH   2  18
TORSDOF 7
