REMARK  Name = ZINC65885285
REMARK  6 active torsions:
REMARK  status: ('A' for Active; 'I' for Inactive)
REMARK    1  A    between atoms: C_1  and  C_2
REMARK    2  A    between atoms: C_2  and  C_3
REMARK    3  A    between atoms: C_4  and  C_9
REMARK    4  A    between atoms: N_11  and  C_12
REMARK    5  A    between atoms: C_12  and  C_13
REMARK    6  A    between atoms: C_13  and  C_19
REMARK                            x       y       z     vdW  Elec       q    Type
REMARK                         _______ _______ _______ _____ _____    ______ ____
ROOT
ATOM      1  C   UNL     1       6.873  -0.513  -0.126  0.00  0.00    +0.017 C 
ATOM      2  C   UNL     1       7.232   0.370  -1.325  0.00  0.00    +0.041 C 
ATOM      3  C   UNL     1       7.266   1.834  -0.879  0.00  0.00    +0.160 C 
ATOM      4  O   UNL     1       8.207   1.984   0.186  0.00  0.00    -0.380 OA
ATOM      5  C   UNL     1       7.897   1.218   1.352  0.00  0.00    +0.160 C 
ATOM      6  C   UNL     1       7.888  -0.271   0.995  0.00  0.00    +0.041 C 
ENDROOT
BRANCH   1   7
ATOM      7  C   UNL     1       6.912  -1.963  -0.536  0.00  0.00    -0.021 A 
ATOM      8  C   UNL     1       7.775  -2.837   0.097  0.00  0.00    +0.007 A 
ATOM      9  C   UNL     1       7.811  -4.167  -0.278  0.00  0.00    +0.020 A 
ATOM     10  C   UNL     1       6.982  -4.624  -1.288  0.00  0.00    +0.042 A 
ATOM     11  C   UNL     1       6.118  -3.749  -1.922  0.00  0.00    +0.040 A 
ATOM     12  C   UNL     1       6.079  -2.419  -1.542  0.00  0.00    +0.046 A 
ATOM     13 CL   UNL     1       4.991  -1.322  -2.333  0.00  0.00    -0.083 Cl
ATOM     14 CL   UNL     1       7.028  -6.294  -1.760  0.00  0.00    -0.083 Cl
ENDBRANCH   1   7
BRANCH   1  15
ATOM     15  C   UNL     1       5.470  -0.158   0.369  0.00  0.00    +0.116 C 
BRANCH  15  18
ATOM     16  C   UNL     1       3.840  -1.024   1.960  0.00  0.00    +0.247 C 
ATOM     17  O   UNL     1       3.014  -0.268   1.484  0.00  0.00    -0.270 OA
ATOM     18  N   UNL     1       5.081  -1.081   1.438  0.00  0.00    -0.310 N 
ATOM     19  H   UNL     1       5.717  -1.734   1.770  0.00  0.00    +0.149 HD
BRANCH  16  21
ATOM     20  C   UNL     1       2.292  -1.855   3.806  0.00  0.00    +0.048 A 
ATOM     21  C   UNL     1       3.483  -1.877   3.108  0.00  0.00    +0.077 A 
ATOM     22  C   UNL     1       4.295  -2.870   3.700  0.00  0.00    +0.147 A 
ATOM     23  N   UNL     1       3.627  -3.402   4.686  0.00  0.00    -0.181 NA
ATOM     24  N   UNL     1       2.377  -2.781   4.775  0.00  0.00    -0.281 N 
ATOM     25  H   UNL     1       1.687  -2.986   5.425  0.00  0.00    +0.189 HD
BRANCH  20  27
ATOM     26  C   UNL     1       0.231  -1.578   2.455  0.00  0.00    +0.010 C 
ATOM     27  C   UNL     1       1.116  -0.953   3.535  0.00  0.00    +0.052 C 
ENDBRANCH  20  27
ENDBRANCH  16  21
ENDBRANCH  15  18
ENDBRANCH   1  15
TORSDOF 5
