REMARK  Name = ZINC37538302
REMARK  9 active torsions:
REMARK  status: ('A' for Active; 'I' for Inactive)
REMARK    1  A    between atoms: C_1  and  C_2
REMARK    2  A    between atoms: C_7  and  C_32
REMARK    3  A    between atoms: C_8  and  C_10
REMARK    4  A    between atoms: C_10  and  C_11
REMARK    5  A    between atoms: C_12  and  O_25
REMARK    6  A    between atoms: C_14  and  O_24
REMARK    7  A    between atoms: C_18  and  O_23
REMARK    8  A    between atoms: C_29  and  C_30
REMARK    9  A    between atoms: C_29  and  C_31
REMARK                            x       y       z     vdW  Elec       q    Type
REMARK                         _______ _______ _______ _____ _____    ______ ____
ROOT
ATOM      1  C   UNL     1      -1.138  -0.251   2.293  0.00  0.00    +0.049 C 
ENDROOT
BRANCH   1   8
ATOM      2  C   UNL     1       0.668   1.899   0.829  0.00  0.00    +0.039 C 
ATOM      3  C   UNL     1       0.304   0.488   0.440  0.00  0.00    -0.073 C 
ATOM      4  C   UNL     1       0.132   0.232  -0.815  0.00  0.00    -0.027 C 
ATOM      5  C   UNL     1      -0.227  -1.126  -1.353  0.00  0.00    +0.031 C 
ATOM      6  C   UNL     1      -0.750  -2.019  -0.225  0.00  0.00    +0.005 C 
ATOM      7  C   UNL     1       0.199  -1.948   0.965  0.00  0.00    -0.022 C 
ATOM      8  C   UNL     1       0.160  -0.523   1.540  0.00  0.00    +0.023 C 
ATOM      9  C   UNL     1      -0.202  -2.944   2.051  0.00  0.00    +0.007 C 
ATOM     10  C   UNL     1      -0.263  -4.357   1.464  0.00  0.00    +0.001 C 
ATOM     11  C   UNL     1      -1.364  -4.391   0.407  0.00  0.00    +0.007 C 
ATOM     12  C   UNL     1      -1.055  -3.417  -0.730  0.00  0.00    -0.031 C 
ATOM     13  C   UNL     1      -2.326  -3.341  -1.608  0.00  0.00    +0.011 C 
ATOM     14  C   UNL     1       0.061  -3.995  -1.599  0.00  0.00    +0.011 C 
ATOM     15  C   UNL     1       1.653  -2.227   0.546  0.00  0.00    +0.012 C 
ENDBRANCH   1   8
BRANCH   1  16
ATOM     16  C   UNL     1      -0.999  -0.730   3.739  0.00  0.00    +0.128 C 
ATOM     17  C   UNL     1       0.371  -0.517   4.336  0.00  0.00    +0.182 C 
ATOM     18  C   UNL     1       0.419  -0.724   5.837  0.00  0.00    +0.174 C 
ATOM     19  C   UNL     1      -0.776  -0.137   6.521  0.00  0.00    -0.015 C 
ATOM     20  C   UNL     1      -0.594   0.693   7.518  0.00  0.00    +0.013 C 
ATOM     21  C   UNL     1      -2.173  -0.473   6.098  0.00  0.00    +0.174 C 
ATOM     22  C   UNL     1      -2.256  -0.618   4.581  0.00  0.00    +0.186 C 
ATOM     23  O   UNL     1      -1.769  -1.873   4.074  0.00  0.00    -0.359 OA
BRANCH  21  24
ATOM     24  O   UNL     1      -2.568  -1.703   6.709  0.00  0.00    -0.385 OA
ATOM     25  H   UNL     1      -2.557  -1.683   7.676  0.00  0.00    +0.210 HD
ENDBRANCH  21  24
BRANCH  18  26
ATOM     26  O   UNL     1       0.468  -2.126   6.111  0.00  0.00    -0.385 OA
ATOM     27  H   UNL     1       0.500  -2.341   7.053  0.00  0.00    +0.210 HD
ENDBRANCH  18  26
BRANCH  17  28
ATOM     28  O   UNL     1       1.284  -1.428   3.722  0.00  0.00    -0.386 OA
ATOM     29  H   UNL     1       2.174  -1.408   4.100  0.00  0.00    +0.210 HD
ENDBRANCH  17  28
ENDBRANCH   1  16
TORSDOF 5
