REMARK  Name = ZINC16915887
REMARK  10 active torsions:
REMARK  status: ('A' for Active; 'I' for Inactive)
REMARK    1  A    between atoms: C_1  and  C_2
REMARK    2  A    between atoms: C_2  and  C_4
REMARK    3  A    between atoms: C_2  and  O_16
REMARK    4  A    between atoms: N_6  and  C_7
REMARK    5  A    between atoms: C_10  and  C_14
REMARK    6  A    between atoms: O_16  and  C_17
REMARK    7  A    between atoms: C_17  and  C_19
REMARK    8  A    between atoms: C_19  and  C_20
REMARK    9  A    between atoms: C_20  and  N_21
REMARK   10  A    between atoms: N_24  and  C_25
REMARK                            x       y       z     vdW  Elec       q    Type
REMARK                         _______ _______ _______ _____ _____    ______ ____
ROOT
ATOM      1  C   UNL     1      -3.107  -4.923  -1.136  0.00  0.00    +0.309 C 
ATOM      2  O   UNL     1      -4.100  -4.375  -1.552  0.00  0.00    -0.251 OA
ENDROOT
BRANCH   1   3
ATOM      3  O   UNL     1      -2.202  -4.226  -0.430  0.00  0.00    -0.452 OA
BRANCH   3   5
ATOM      4  C   UNL     1      -3.275  -2.659   1.093  0.00  0.00    +0.062 C 
ATOM      5  C   UNL     1      -2.482  -2.820  -0.205  0.00  0.00    +0.259 C 
BRANCH   5   6
ATOM      6  C   UNL     1      -1.185  -2.060  -0.100  0.00  0.00    +0.258 C 
ATOM      7  O   UNL     1      -0.130  -2.657  -0.113  0.00  0.00    -0.271 OA
ATOM      8  N   UNL     1      -1.198  -0.716   0.009  0.00  0.00    -0.282 N 
ATOM      9  H   UNL     1      -2.041  -0.245   0.097  0.00  0.00    +0.155 HD
BRANCH   8  10
ATOM     10  C   UNL     1       0.002  -0.004  -0.004  0.00  0.00    +0.035 A 
ATOM     11  C   UNL     1       0.128   1.157   0.753  0.00  0.00    +0.024 A 
ATOM     12  C   UNL     1       1.309   1.863   0.744  0.00  0.00    +0.022 A 
ATOM     13  C   UNL     1       2.385   1.413  -0.028  0.00  0.00    +0.070 A 
ATOM     14  C   UNL     1       2.255   0.246  -0.788  0.00  0.00    +0.060 A 
ATOM     15  C   UNL     1       1.068  -0.456  -0.773  0.00  0.00    +0.044 A 
ATOM     16 CL   UNL     1       3.587  -0.319  -1.747  0.00  0.00    -0.082 Cl
BRANCH  13  17
ATOM     17  C   UNL     1       3.615   2.145  -0.040  0.00  0.00    +0.101 C 
ATOM     18  N   UNL     1       4.592   2.726  -0.050  0.00  0.00    -0.191 NA
ENDBRANCH  13  17
ENDBRANCH   8  10
ENDBRANCH   5   6
ENDBRANCH   3   5
ENDBRANCH   1   3
BRANCH   1  19
ATOM     19  C   UNL     1      -2.884  -6.388  -1.409  0.00  0.00    +0.139 C 
BRANCH  19  20
ATOM     20  C   UNL     1      -4.055  -6.938  -2.226  0.00  0.00    +0.117 C 
BRANCH  20  21
ATOM     21  N   UNL     1      -3.838  -8.362  -2.492  0.00  0.00    -0.299 N 
ATOM     22  C   UNL     1      -4.747  -9.062  -3.200  0.00  0.00    +0.300 C 
ATOM     23  O   UNL     1      -5.747  -8.511  -3.619  0.00  0.00    -0.253 OA
ATOM     24  N   UNL     1      -4.547 -10.372  -3.445  0.00  0.00    -0.294 N 
ATOM     25  H   UNL     1      -3.040  -8.802  -2.158  0.00  0.00    +0.150 HD
ATOM     26  H   UNL     1      -3.750 -10.812  -3.111  0.00  0.00    +0.151 HD
BRANCH  24  27
ATOM     27  C   UNL     1      -5.535 -11.132  -4.215  0.00  0.00    +0.037 C 
ATOM     28  C   UNL     1      -6.884 -11.092  -3.494  0.00  0.00    +0.029 C 
ATOM     29  C   UNL     1      -7.916 -11.886  -4.298  0.00  0.00    -0.008 C 
ATOM     30  C   UNL     1      -7.452 -13.337  -4.431  0.00  0.00    +0.007 C 
ATOM     31  C   UNL     1      -6.103 -13.378  -5.152  0.00  0.00    -0.008 C 
ATOM     32  C   UNL     1      -5.071 -12.584  -4.347  0.00  0.00    +0.029 C 
ATOM     33  C   UNL     1      -6.249 -12.760  -6.543  0.00  0.00    +0.007 C 
ATOM     34  C   UNL     1      -6.714 -11.308  -6.411  0.00  0.00    -0.008 C 
ATOM     35  C   UNL     1      -8.063 -11.268  -5.690  0.00  0.00    +0.007 C 
ATOM     36  C   UNL     1      -5.682 -10.514  -5.607  0.00  0.00    +0.029 C 
ENDBRANCH  24  27
ENDBRANCH  20  21
ENDBRANCH  19  20
ENDBRANCH   1  19
TORSDOF 9
