REMARK  Name = ZINC02111420
REMARK  9 active torsions:
REMARK  status: ('A' for Active; 'I' for Inactive)
REMARK    1  A    between atoms: C_1  and  C_2
REMARK    2  A    between atoms: C_6  and  C_18
REMARK    3  A    between atoms: C_7  and  C_11
REMARK    4  A    between atoms: C_11  and  C_12
REMARK    5  A    between atoms: C_19  and  O_21
REMARK    6  A    between atoms: O_21  and  C_22
REMARK    7  A    between atoms: C_22  and  C_24
REMARK    8  A    between atoms: C_22  and  C_25
REMARK    9  A    between atoms: C_30  and  O_38
REMARK                            x       y       z     vdW  Elec       q    Type
REMARK                         _______ _______ _______ _____ _____    ______ ____
ROOT
ATOM      1  C   UNL     1      -4.898   1.071   7.766  0.00  0.00    +0.044 C 
ATOM      2  C   UNL     1      -4.750   1.082   6.267  0.00  0.00    -0.043 A 
ATOM      3  C   UNL     1      -4.018   0.088   5.646  0.00  0.00    +0.050 A 
ATOM      4  C   UNL     1      -3.876   0.088   4.266  0.00  0.00    +0.143 A 
ATOM      5  C   UNL     1      -4.480   1.107   3.507  0.00  0.00    +0.062 A 
ATOM      6  C   UNL     1      -4.324   1.097   2.052  0.00  0.00    -0.026 A 
ATOM      7  C   UNL     1      -3.595   0.097   1.492  0.00  0.00    +0.045 A 
ATOM      8  C   UNL     1      -3.020  -0.895   2.312  0.00  0.00    +0.341 A 
ATOM      9  O   UNL     1      -2.373  -1.790   1.797  0.00  0.00    -0.245 OA
ATOM     10  O   UNL     1      -3.164  -0.878   3.646  0.00  0.00    -0.422 OA
ATOM     11  C   UNL     1      -4.953   2.168   1.199  0.00  0.00    +0.045 C 
ATOM     12  C   UNL     1      -5.221   2.111   4.149  0.00  0.00    +0.133 A 
ATOM     13  C   UNL     1      -5.349   2.088   5.527  0.00  0.00    +0.050 A 
ENDROOT
BRANCH   7  14
ATOM     14  C   UNL     1      -3.406   0.045  -0.002  0.00  0.00    +0.077 C 
BRANCH  14  15
ATOM     15  C   UNL     1      -4.497  -0.792  -0.618  0.00  0.00    -0.043 A 
ATOM     16  C   UNL     1      -5.666  -0.195  -1.051  0.00  0.00    +0.004 A 
ATOM     17  C   UNL     1      -6.665  -0.962  -1.621  0.00  0.00    +0.000 A 
ATOM     18  C   UNL     1      -6.497  -2.328  -1.752  0.00  0.00    +0.000 A 
ATOM     19  C   UNL     1      -5.330  -2.926  -1.314  0.00  0.00    +0.000 A 
ATOM     20  C   UNL     1      -4.331  -2.159  -0.745  0.00  0.00    +0.004 A 
ENDBRANCH  14  15
ENDBRANCH   7  14
BRANCH  12  21
ATOM     21  O   UNL     1      -5.807   3.098   3.425  0.00  0.00    -0.479 OA
BRANCH  21  22
ATOM     22  C   UNL     1      -6.594   4.050   4.143  0.00  0.00    +0.256 C 
ATOM     23  C   UNL     1      -5.683   5.136   4.716  0.00  0.00    +0.062 C 
BRANCH  22  24
ATOM     24  C   UNL     1      -7.598   4.677   3.210  0.00  0.00    +0.256 C 
ATOM     25  O   UNL     1      -7.549   4.444   2.021  0.00  0.00    -0.272 OA
ATOM     26  N   UNL     1      -8.550   5.497   3.698  0.00  0.00    -0.298 N 
ATOM     27  C   UNL     1      -8.552   5.884   5.115  0.00  0.00    +0.110 C 
ATOM     28  C   UNL     1      -9.925   5.562   5.712  0.00  0.00    +0.054 C 
ATOM     29  C   UNL     1     -11.014   6.241   4.877  0.00  0.00    +0.072 C 
ATOM     30  C   UNL     1     -12.383   5.932   5.488  0.00  0.00    +0.035 C 
ATOM     31  C   UNL     1     -12.599   4.418   5.509  0.00  0.00    +0.003 C 
ATOM     32  C   UNL     1     -12.545   3.873   4.081  0.00  0.00    +0.001 C 
ATOM     33  C   UNL     1     -11.180   4.188   3.465  0.00  0.00    +0.008 C 
ATOM     34  C   UNL     1     -10.963   5.709   3.443  0.00  0.00    +0.038 C 
ATOM     35  C   UNL     1      -9.604   6.027   2.821  0.00  0.00    +0.114 C 
BRANCH  29  36
ATOM     36  O   UNL     1     -10.800   7.654   4.871  0.00  0.00    -0.388 OA
ATOM     37  H   UNL     1     -10.821   8.059   5.749  0.00  0.00    +0.210 HD
ENDBRANCH  29  36
ENDBRANCH  22  24
ENDBRANCH  21  22
ENDBRANCH  12  21
TORSDOF 6
