REMARK  Name = ZINC20387720
REMARK  10 active torsions:
REMARK  status: ('A' for Active; 'I' for Inactive)
REMARK    1  A    between atoms: C_1  and  C_2
REMARK    2  A    between atoms: C_2  and  O_3
REMARK    3  A    between atoms: O_3  and  C_4
REMARK    4  A    between atoms: C_7  and  N_10
REMARK    5  A    between atoms: N_10  and  C_11
REMARK    6  A    between atoms: C_11  and  C_12
REMARK    7  A    between atoms: C_25  and  C_28
REMARK    8  A    between atoms: N_30  and  C_31
REMARK    9  A    between atoms: C_36  and  C_41
REMARK   10  A    between atoms: C_38  and  C_40
REMARK                            x       y       z     vdW  Elec       q    Type
REMARK                         _______ _______ _______ _____ _____    ______ ____
ROOT
ATOM      1  C   UNL     1     -13.185  -0.776   3.563  0.00  0.00    +0.043 A 
ATOM      2  C   UNL     1     -14.443  -0.466   3.187  0.00  0.00    +0.025 A 
ATOM      3  C   UNL     1     -14.368   0.667   2.352  0.00  0.00    +0.020 A 
ATOM      4  C   UNL     1     -13.068   1.013   2.254  0.00  0.00    +0.093 A 
ATOM      5  N   UNL     1     -12.334   0.127   2.990  0.00  0.00    -0.297 N 
ATOM      6  C   UNL     1     -10.946   0.144   3.139  0.00  0.00    +0.202 A 
ATOM      7  N   UNL     1     -10.155  -0.660   3.828  0.00  0.00    -0.121 NA
ATOM      8  N   UNL     1      -8.903  -0.507   3.853  0.00  0.00    -0.124 NA
ATOM      9  C   UNL     1      -8.305   0.476   3.197  0.00  0.00    +0.186 A 
ATOM     10  S   UNL     1      -9.729   1.262   2.449  0.00  0.00    -0.013 S 
ATOM     11  N   UNL     1      -6.958   0.802   3.111  0.00  0.00    -0.308 N 
ATOM     12  C   UNL     1      -6.140  -0.130   3.898  0.00  0.00    +0.108 C 
ATOM     13  C   UNL     1      -4.684   0.343   3.898  0.00  0.00    +0.032 C 
ATOM     14  C   UNL     1      -4.173   0.406   2.456  0.00  0.00    +0.078 C 
ATOM     15  C   UNL     1      -5.071   1.345   1.645  0.00  0.00    +0.032 C 
ATOM     16  C   UNL     1      -6.516   0.844   1.711  0.00  0.00    +0.108 C 
ENDROOT
BRANCH  14  17
ATOM     17  C   UNL     1      -2.760   0.928   2.446  0.00  0.00    +0.216 C 
ATOM     18  O   UNL     1      -2.212   1.218   3.488  0.00  0.00    -0.276 OA
ATOM     19  N   UNL     1      -2.103   1.072   1.277  0.00  0.00    -0.312 N 
ATOM     20  H   UNL     1      -2.599   0.809   0.332  0.00  0.00    +0.149 HD
BRANCH  19  21
ATOM     21  C   UNL     1      -0.729   1.579   1.267  0.00  0.00    +0.076 C 
ATOM     22  C   UNL     1      -0.750   3.109   1.275  0.00  0.00    +0.022 C 
ATOM     23  C   UNL     1       0.686   3.639   1.264  0.00  0.00    +0.002 C 
ATOM     24  C   UNL     1       1.402   3.145   0.006  0.00  0.00    +0.003 C 
ATOM     25  C   UNL     1       1.423   1.615  -0.003  0.00  0.00    -0.009 C 
ATOM     26  C   UNL     1      -0.013   1.086   0.008  0.00  0.00    +0.009 C 
ATOM     27  C   UNL     1      -0.753   1.593  -1.232  0.00  0.00    +0.009 C 
ATOM     28  C   UNL     1       2.139   1.122  -1.262  0.00  0.00    +0.008 C 
ENDBRANCH  19  21
ENDBRANCH  14  17
BRANCH   1  29
ATOM     29  C   UNL     1     -12.788  -1.920   4.460  0.00  0.00    +0.155 C 
BRANCH  29  30
ATOM     30  N   UNL     1     -12.415  -3.076   3.640  0.00  0.00    -0.338 N 
ATOM     31  H   UNL     1     -12.457  -3.009   2.543  0.00  0.00    +0.146 HD
BRANCH  30  35
ATOM     32  C   UNL     1     -11.200  -6.620   5.467  0.00  0.00    +0.121 A 
ATOM     33  C   UNL     1     -11.252  -6.536   4.084  0.00  0.00    +0.047 A 
ATOM     34  C   UNL     1     -11.655  -5.362   3.478  0.00  0.00    +0.026 A 
ATOM     35  C   UNL     1     -12.007  -4.266   4.254  0.00  0.00    +0.028 A 
ATOM     36  C   UNL     1     -11.950  -4.349   5.639  0.00  0.00    +0.026 A 
ATOM     37  C   UNL     1     -11.552  -5.525   6.243  0.00  0.00    +0.047 A 
BRANCH  32  38
ATOM     38  O   UNL     1     -10.803  -7.776   6.063  0.00  0.00    -0.492 OA
BRANCH  38  40
ATOM     39  C   UNL     1     -10.304  -9.166   7.977  0.00  0.00    +0.048 C 
ATOM     40  C   UNL     1     -10.772  -7.792   7.492  0.00  0.00    +0.225 C 
ENDBRANCH  38  40
ENDBRANCH  32  38
ENDBRANCH  30  35
ENDBRANCH  29  30
ENDBRANCH   1  29
TORSDOF 7
