REMARK  Name = ZINC38650156
REMARK  9 active torsions:
REMARK  status: ('A' for Active; 'I' for Inactive)
REMARK    1  A    between atoms: C_1  and  O_2
REMARK    2  A    between atoms: O_2  and  C_3
REMARK    3  A    between atoms: C_7  and  C_9
REMARK    4  A    between atoms: C_14  and  O_23
REMARK    5  A    between atoms: C_18  and  N_22
REMARK    6  A    between atoms: C_19  and  C_20
REMARK    7  A    between atoms: O_23  and  C_24
REMARK    8  A    between atoms: C_24  and  C_26
REMARK    9  A    between atoms: C_27  and  C_28
REMARK                            x       y       z     vdW  Elec       q    Type
REMARK                         _______ _______ _______ _____ _____    ______ ____
ROOT
ATOM      1  C   UNL     1      -2.482  -4.187   0.042  0.00  0.00    +0.098 C 
ATOM      2  C   UNL     1      -3.212  -4.653   1.274  0.00  0.00    +0.008 A 
ATOM      3  C   UNL     1      -2.534  -4.735   2.477  0.00  0.00    +0.012 A 
ATOM      4  C   UNL     1      -3.188  -5.160   3.617  0.00  0.00    +0.047 A 
ATOM      5  C   UNL     1      -4.530  -5.508   3.558  0.00  0.00    +0.135 A 
ATOM      6  C   UNL     1      -5.212  -5.427   2.354  0.00  0.00    +0.093 A 
ATOM      7  C   UNL     1      -4.553  -4.999   1.209  0.00  0.00    +0.138 A 
ATOM      8  O   UNL     1      -5.235  -4.926   0.039  0.00  0.00    -0.441 OA
ATOM      9  C   UNL     1      -4.566  -4.897  -1.125  0.00  0.00    +0.199 C 
ATOM     10  C   UNL     1      -3.260  -4.555  -1.190  0.00  0.00    +0.098 C 
ENDROOT
BRANCH   1  15
ATOM     11  C   UNL     1      -0.893  -0.761   0.146  0.00  0.00    +0.120 A 
ATOM     12  C   UNL     1      -2.011   0.059   0.201  0.00  0.00    +0.045 A 
ATOM     13  C   UNL     1      -3.275  -0.498   0.205  0.00  0.00    +0.004 A 
ATOM     14  C   UNL     1      -3.426  -1.872   0.153  0.00  0.00    +0.005 A 
ATOM     15  C   UNL     1      -2.314  -2.691   0.098  0.00  0.00    -0.031 A 
ATOM     16  C   UNL     1      -1.047  -2.138   0.089  0.00  0.00    +0.050 A 
BRANCH  11  18
ATOM     17  C   UNL     1       0.435   1.210   0.203  0.00  0.00    +0.277 C 
ATOM     18  O   UNL     1       0.352  -0.215   0.142  0.00  0.00    -0.495 OA
ENDBRANCH  11  18
ENDBRANCH   1  15
BRANCH   9  19
ATOM     19  N   UNL     1      -5.228  -5.225  -2.282  0.00  0.00    -0.328 N 
ATOM     20  H   UNL     1      -6.166  -5.472  -2.251  0.00  0.00    +0.145 HD
ATOM     21  H   UNL     1      -4.759  -5.209  -3.131  0.00  0.00    +0.145 HD
ENDBRANCH   9  19
BRANCH  10  22
ATOM     22  C   UNL     1      -2.605  -4.543  -2.463  0.00  0.00    +0.101 C 
ATOM     23  N   UNL     1      -2.086  -4.534  -3.473  0.00  0.00    -0.191 NA
ENDBRANCH  10  22
BRANCH   5  24
ATOM     24  O   UNL     1      -5.174  -5.928   4.678  0.00  0.00    -0.423 OA
BRANCH  24  25
ATOM     25  C   UNL     1      -5.403  -5.024   5.654  0.00  0.00    +0.337 C 
ATOM     26  O   UNL     1      -5.130  -3.852   5.473  0.00  0.00    -0.245 OA
BRANCH  25  27
ATOM     27  C   UNL     1      -5.978  -5.452   6.927  0.00  0.00    +0.092 C 
ATOM     28  C   UNL     1      -6.207  -4.548   7.903  0.00  0.00    +0.016 C 
BRANCH  28  29
ATOM     29  C   UNL     1      -6.785  -4.979   9.184  0.00  0.00    -0.006 A 
ATOM     30  C   UNL     1      -7.095  -6.327   9.398  0.00  0.00    +0.009 A 
ATOM     31  C   UNL     1      -7.638  -6.723  10.602  0.00  0.00    +0.001 A 
ATOM     32  C   UNL     1      -7.876  -5.792  11.599  0.00  0.00    +0.001 A 
ATOM     33  C   UNL     1      -7.574  -4.457  11.396  0.00  0.00    +0.020 A 
ATOM     34  C   UNL     1      -7.024  -4.045  10.199  0.00  0.00    +0.048 A 
ATOM     35 CL   UNL     1      -6.637  -2.371   9.949  0.00  0.00    -0.083 Cl
ENDBRANCH  28  29
ENDBRANCH  25  27
ENDBRANCH  24  25
ENDBRANCH   5  24
TORSDOF 8
