REMARK  Name = ZINC15676250
REMARK  7 active torsions:
REMARK  status: ('A' for Active; 'I' for Inactive)
REMARK    1  A    between atoms: C_1  and  O_2
REMARK    2  A    between atoms: O_2  and  C_3
REMARK    3  A    between atoms: C_6  and  C_9
REMARK    4  A    between atoms: C_9  and  N_10
REMARK    5  A    between atoms: C_11  and  C_13
REMARK    6  A    between atoms: N_23  and  C_24
REMARK    7  A    between atoms: C_24  and  C_25
REMARK                            x       y       z     vdW  Elec       q    Type
REMARK                         _______ _______ _______ _____ _____    ______ ____
ROOT
ATOM      1  C   UNL     1      -7.168  -3.563  -2.821  0.00  0.00    +0.149 C 
ATOM      2  C   UNL     1      -7.487  -2.238  -3.529  0.00  0.00    +0.083 C 
ATOM      3  C   UNL     1      -7.966  -2.562  -4.921  0.00  0.00    +0.040 A 
ATOM      4  C   UNL     1      -8.363  -3.797  -5.305  0.00  0.00    +0.051 A 
ATOM      5  N   UNL     1      -8.717  -3.734  -6.589  0.00  0.00    -0.349 N 
ATOM      6  C   UNL     1      -8.557  -2.508  -7.018  0.00  0.00    +0.171 A 
ATOM      7  N   UNL     1      -8.089  -1.748  -6.001  0.00  0.00    -0.349 N 
ATOM      8  H   UNL     1      -7.881  -0.801  -6.036  0.00  0.00    +0.166 HD
ATOM      9  C   UNL     1      -8.377  -4.987  -4.378  0.00  0.00    +0.140 C 
ATOM     10  N   UNL     1      -8.291  -4.495  -2.993  0.00  0.00    -0.281 NA
ATOM     11  H   UNL     1      -9.041  -4.478  -7.120  0.00  0.00    +0.166 HD
ENDROOT
BRANCH   1  13
ATOM     12  N   UNL     1      -5.698  -3.155  -0.874  0.00  0.00    -0.310 N 
ATOM     13  C   UNL     1      -6.949  -3.307  -1.352  0.00  0.00    +0.231 C 
ATOM     14  O   UNL     1      -7.898  -3.237  -0.600  0.00  0.00    -0.274 OA
ATOM     15  H   UNL     1      -4.939  -3.210  -1.475  0.00  0.00    +0.149 HD
BRANCH  12  16
ATOM     16  C   UNL     1      -5.485  -2.905   0.554  0.00  0.00    +0.139 C 
BRANCH  16  20
ATOM     17  C   UNL     1      -1.298  -2.534   1.326  0.00  0.00    +0.120 A 
ATOM     18  C   UNL     1      -2.048  -1.412   1.005  0.00  0.00    +0.046 A 
ATOM     19  C   UNL     1      -3.401  -1.535   0.755  0.00  0.00    +0.009 A 
ATOM     20  C   UNL     1      -4.009  -2.775   0.826  0.00  0.00    -0.030 A 
ATOM     21  C   UNL     1      -3.264  -3.895   1.147  0.00  0.00    +0.009 A 
ATOM     22  C   UNL     1      -1.909  -3.778   1.391  0.00  0.00    +0.046 A 
BRANCH  17  24
ATOM     23  C   UNL     1       0.595  -1.105   1.487  0.00  0.00    +0.277 C 
ATOM     24  O   UNL     1       0.033  -2.417   1.572  0.00  0.00    -0.495 OA
ENDBRANCH  17  24
ENDBRANCH  16  20
ENDBRANCH  12  16
ENDBRANCH   1  13
BRANCH  10  25
ATOM     25  C   UNL     1      -8.198  -5.612  -2.043  0.00  0.00    +0.128 C 
BRANCH  25  26
ATOM     26  C   UNL     1      -9.524  -6.324  -1.973  0.00  0.00    +0.004 A 
ATOM     27  C   UNL     1      -9.972  -7.370  -2.710  0.00  0.00    +0.012 A 
ATOM     28  C   UNL     1     -11.239  -7.866  -2.469  0.00  0.00    +0.008 A 
ATOM     29  C   UNL     1     -11.997  -7.293  -1.502  0.00  0.00    +0.045 A 
ATOM     30  S   UNL     1     -10.911  -6.014  -0.892  0.00  0.00    -0.100 S 
ENDBRANCH  25  26
ENDBRANCH  10  25
TORSDOF 6
