REMARK  Name = ZINC06014852
REMARK  10 active torsions:
REMARK  status: ('A' for Active; 'I' for Inactive)
REMARK    1  A    between atoms: C_1  and  C_2
REMARK    2  A    between atoms: C_2  and  C_3
REMARK    3  A    between atoms: C_2  and  C_4
REMARK    4  A    between atoms: C_2  and  O_5
REMARK    5  A    between atoms: O_5  and  C_6
REMARK    6  A    between atoms: C_15  and  C_27
REMARK    7  A    between atoms: C_17  and  C_23
REMARK    8  A    between atoms: C_17  and  C_25
REMARK    9  A    between atoms: C_18  and  N_22
REMARK   10  A    between atoms: C_19  and  C_20
REMARK                            x       y       z     vdW  Elec       q    Type
REMARK                         _______ _______ _______ _____ _____    ______ ____
ROOT
ATOM      1  C   UNL     1      -1.646   3.431   2.438  0.00  0.00    +0.404 C 
ATOM      2  O   UNL     1      -1.361   4.503   2.933  0.00  0.00    -0.226 OA
ATOM      3  N   UNL     1      -1.118   3.076   1.250  0.00  0.00    -0.263 N 
ATOM      4  C   UNL     1      -1.444   1.783   0.614  0.00  0.00    +0.138 C 
ATOM      5  C   UNL     1      -0.137   1.069   0.378  0.00  0.00    -0.003 C 
ATOM      6  C   UNL     1       0.982   1.740   0.186  0.00  0.00    -0.026 C 
ATOM      7  C   UNL     1       1.077   3.236   0.154  0.00  0.00    +0.048 C 
ATOM      8  C   UNL     1      -0.196   3.959   0.528  0.00  0.00    +0.120 C 
ATOM      9  C   UNL     1       2.259   3.662   1.025  0.00  0.00    +0.068 C 
ATOM     10  C   UNL     1       3.547   3.106   0.417  0.00  0.00    +0.188 C 
ATOM     11  C   UNL     1       3.434   1.641   0.123  0.00  0.00    +0.054 C 
ATOM     12  C   UNL     1       2.252   0.987   0.000  0.00  0.00    +0.074 C 
ENDROOT
BRANCH   9  13
ATOM     13  C   UNL     1       2.334   5.166   1.079  0.00  0.00    -0.038 A 
ATOM     14  C   UNL     1       2.176   5.907  -0.078  0.00  0.00    +0.007 A 
ATOM     15  C   UNL     1       2.239   7.287  -0.031  0.00  0.00    +0.041 A 
ATOM     16  C   UNL     1       2.472   7.928   1.173  0.00  0.00    +0.158 A 
ATOM     17  C   UNL     1       2.636   7.185   2.332  0.00  0.00    +0.159 A 
ATOM     18  C   UNL     1       2.567   5.804   2.283  0.00  0.00    +0.045 A 
ATOM     19  F   UNL     1       2.862   7.809   3.509  0.00  0.00    -0.202 F 
ATOM     20  F   UNL     1       2.538   9.277   1.219  0.00  0.00    -0.202 F 
ENDBRANCH   9  13
BRANCH  11  21
ATOM     21  N   UNL     1       4.587   0.922  -0.029  0.00  0.00    -0.358 N 
ATOM     22  H   UNL     1       4.539  -0.155  -0.245  0.00  0.00    +0.142 HD
ATOM     23  H   UNL     1       5.562   1.422   0.064  0.00  0.00    +0.142 HD
ENDBRANCH  11  21
BRANCH  12  24
ATOM     24  C   UNL     1       2.226  -0.412  -0.306  0.00  0.00    +0.101 C 
ATOM     25  N   UNL     1       2.206  -1.521  -0.550  0.00  0.00    -0.191 NA
ENDBRANCH  12  24
BRANCH  10  26
ATOM     26  C   UNL     1       4.656   3.322   1.360  0.00  0.00    +0.091 C 
ATOM     27  N   UNL     1       5.513   3.490   2.087  0.00  0.00    -0.194 NA
ENDBRANCH  10  26
BRANCH  10  28
ATOM     28  C   UNL     1       3.834   3.825  -0.835  0.00  0.00    +0.091 C 
ATOM     29  N   UNL     1       4.056   4.380  -1.801  0.00  0.00    -0.194 NA
ENDBRANCH  10  28
BRANCH   1  30
ATOM     30  O   UNL     1      -2.490   2.598   3.075  0.00  0.00    -0.445 OA
BRANCH  30  32
ATOM     31  C   UNL     1      -3.801   4.346   4.150  0.00  0.00    +0.055 C 
ATOM     32  C   UNL     1      -3.021   3.046   4.351  0.00  0.00    +0.107 C 
ATOM     33  C   UNL     1      -3.953   1.974   4.920  0.00  0.00    +0.055 C 
ATOM     34  C   UNL     1      -1.867   3.288   5.326  0.00  0.00    +0.055 C 
ENDBRANCH  30  32
ENDBRANCH   1  30
TORSDOF 7
