REMARK  Name = ZINC09433692
REMARK  9 active torsions:
REMARK  status: ('A' for Active; 'I' for Inactive)
REMARK    1  A    between atoms: C_7  and  C_24
REMARK    2  A    between atoms: C_9  and  C_19
REMARK    3  A    between atoms: N_11  and  C_14
REMARK    4  A    between atoms: N_26  and  C_27
REMARK    5  A    between atoms: C_27  and  C_28
REMARK    6  A    between atoms: C_28  and  N_75
REMARK    7  A    between atoms: C_29  and  C_30
REMARK    8  A    between atoms: C_29  and  N_75
REMARK    9  A    between atoms: C_35  and  N_75
REMARK                            x       y       z     vdW  Elec       q    Type
REMARK                         _______ _______ _______ _____ _____    ______ ____
ROOT
ATOM      1  C   UNL     1      -7.969   8.847  -0.549  0.00  0.00    +0.000 A 
ATOM      2  C   UNL     1      -9.124   8.190  -0.934  0.00  0.00    +0.001 A 
ATOM      3  C   UNL     1      -9.276   7.760  -2.237  0.00  0.00    +0.013 A 
ATOM      4  C   UNL     1      -8.260   7.992  -3.162  0.00  0.00    +0.041 A 
ATOM      5  C   UNL     1      -7.092   8.645  -2.766  0.00  0.00    -0.021 A 
ATOM      6  C   UNL     1      -6.954   9.074  -1.463  0.00  0.00    +0.005 A 
ATOM      7  C   UNL     1      -5.992   8.873  -3.769  0.00  0.00    +0.131 C 
ATOM      8  C   UNL     1      -6.586   9.090  -5.159  0.00  0.00    +0.130 C 
ATOM      9  N   UNL     1      -7.540   8.034  -5.491  0.00  0.00    -0.286 N 
ATOM     10  C   UNL     1      -8.400   7.562  -4.569  0.00  0.00    +0.248 C 
ATOM     11  O   UNL     1      -9.283   6.789  -4.891  0.00  0.00    -0.270 OA
ENDROOT
BRANCH   9  12
ATOM     12  C   UNL     1      -7.561   7.481  -6.848  0.00  0.00    +0.077 C 
ATOM     13  C   UNL     1      -8.963   7.655  -7.468  0.00  0.00    +0.022 C 
ATOM     14  C   UNL     1      -9.175   6.361  -8.293  0.00  0.00    +0.002 C 
ATOM     15  C   UNL     1      -8.525   5.275  -7.400  0.00  0.00    +0.002 C 
ATOM     16  C   UNL     1      -7.282   5.969  -6.805  0.00  0.00    +0.022 C 
ENDBRANCH   9  12
BRANCH   8  17
ATOM     17  C   UNL     1      -7.290  10.422  -5.193  0.00  0.00    +0.011 A 
ATOM     18  C   UNL     1      -6.853  11.607  -5.687  0.00  0.00    +0.013 A 
ATOM     19  C   UNL     1      -7.681  12.711  -5.613  0.00  0.00    +0.008 A 
ATOM     20  C   UNL     1      -8.902  12.579  -5.040  0.00  0.00    +0.045 A 
ATOM     21  S   UNL     1      -8.914  10.852  -4.588  0.00  0.00    -0.100 S 
ENDBRANCH   8  17
BRANCH   7  22
ATOM     22  C   UNL     1      -5.085   7.670  -3.797  0.00  0.00    +0.223 C 
ATOM     23  O   UNL     1      -4.940   7.043  -4.825  0.00  0.00    -0.275 OA
ATOM     24  N   UNL     1      -4.434   7.291  -2.679  0.00  0.00    -0.317 N 
ATOM     25  H   UNL     1      -4.550   7.793  -1.857  0.00  0.00    +0.149 HD
BRANCH  24  26
ATOM     26  C   UNL     1      -3.551   6.122  -2.706  0.00  0.00    +0.086 C 
BRANCH  26  27
ATOM     27  C   UNL     1      -2.941   5.912  -1.319  0.00  0.00    -0.059 C 
BRANCH  27  28
ATOM     28  N   UNL     1      -2.189   4.639  -1.315  0.00  0.00    +0.387 N 
ATOM     29  H   UNL     1      -2.820   3.879  -1.595  0.00  0.00    -0.081 HD
BRANCH  28  30
ATOM     30  C   UNL     1      -1.067   4.712  -2.274  0.00  0.00    -0.068 C 
ATOM     31  C   UNL     1      -0.686   6.179  -2.562  0.00  0.00    -0.015 C 
ATOM     32  C   UNL     1      -0.339   6.192  -4.072  0.00  0.00    -0.002 C 
ATOM     33  C   UNL     1      -1.385   5.220  -4.671  0.00  0.00    -0.002 C 
ATOM     34  C   UNL     1      -1.512   4.102  -3.615  0.00  0.00    -0.015 C 
ENDBRANCH  28  30
BRANCH  28  35
ATOM     35  C   UNL     1      -1.676   4.361   0.043  0.00  0.00    -0.003 C 
BRANCH  35  36
ATOM     36  C   UNL     1      -1.257   2.915   0.114  0.00  0.00    +0.089 A 
ATOM     37  C   UNL     1      -0.018   2.443  -0.111  0.00  0.00    +0.042 A 
ATOM     38  C   UNL     1      -0.075   1.041   0.064  0.00  0.00    +0.041 A 
ATOM     39  C   UNL     1      -1.346   0.740   0.385  0.00  0.00    +0.195 A 
ATOM     40  O   UNL     1      -2.059   1.878   0.409  0.00  0.00    -0.470 OA
ENDBRANCH  35  36
ENDBRANCH  28  35
ENDBRANCH  27  28
ENDBRANCH  26  27
ENDBRANCH  24  26
ENDBRANCH   7  22
TORSDOF 9
