REMARK  Name = ZINC35271554
REMARK  14 active torsions:
REMARK  status: ('A' for Active; 'I' for Inactive)
REMARK    1  A    between atoms: C_1  and  C_2
REMARK    2  A    between atoms: C_3  and  C_4
REMARK    3  A    between atoms: C_3  and  C_5
REMARK    4  A    between atoms: C_5  and  O_7
REMARK    5  A    between atoms: O_7  and  C_8
REMARK    6  A    between atoms: C_10  and  O_39
REMARK    7  A    between atoms: C_12  and  O_38
REMARK    8  A    between atoms: C_14  and  C_37
REMARK    9  A    between atoms: C_17  and  O_19
REMARK   10  A    between atoms: O_19  and  C_20
REMARK   11  A    between atoms: C_20  and  C_21
REMARK   12  A    between atoms: C_20  and  C_22
REMARK   13  A    between atoms: C_20  and  C_23
REMARK   14  A    between atoms: C_27  and  C_36
REMARK                            x       y       z     vdW  Elec       q    Type
REMARK                         _______ _______ _______ _____ _____    ______ ____
ROOT
ATOM      1  C   UNL     1       1.163  -4.214  -1.976  0.00  0.00    +0.263 C 
ATOM      2  C   UNL     1       2.416  -4.712  -1.248  0.00  0.00    +0.191 C 
ATOM      3  C   UNL     1       3.655  -4.305  -2.051  0.00  0.00    +0.175 C 
ATOM      4  C   UNL     1       3.544  -4.870  -3.469  0.00  0.00    +0.149 C 
ATOM      5  O   UNL     1       2.342  -4.392  -4.078  0.00  0.00    -0.342 OA
ATOM      6  C   UNL     1       1.147  -4.783  -3.397  0.00  0.00    +0.295 C 
ATOM      7  C   UNL     1       4.750  -4.418  -4.295  0.00  0.00    +0.041 C 
ENDROOT
BRANCH   3   8
ATOM      8  O   UNL     1       3.740  -2.880  -2.109  0.00  0.00    -0.387 OA
ATOM      9  H   UNL     1       4.503  -2.550  -2.603  0.00  0.00    +0.210 HD
ENDBRANCH   3   8
BRANCH   2  10
ATOM     10  O   UNL     1       2.475  -4.129   0.055  0.00  0.00    -0.385 OA
ATOM     11  H   UNL     1       3.245  -4.402   0.573  0.00  0.00    +0.210 HD
ENDBRANCH   2  10
BRANCH   1  12
ATOM     12  O   UNL     1       1.181  -2.786  -2.033  0.00  0.00    -0.450 OA
BRANCH  12  13
ATOM     13  C   UNL     1       0.598  -2.126  -1.013  0.00  0.00    +0.335 C 
ATOM     14  O   UNL     1       0.088  -2.745  -0.100  0.00  0.00    -0.245 OA
BRANCH  13  17
ATOM     15  C   UNL     1      -0.018   1.503   0.010  0.00  0.00    +0.036 C 
ATOM     16  C   UNL     1       0.002  -0.004   0.002  0.00  0.00    -0.020 C 
ATOM     17  C   UNL     1       0.578  -0.656  -1.005  0.00  0.00    +0.029 C 
ATOM     18  C   UNL     1       1.209   0.112  -2.137  0.00  0.00    +0.051 C 
ENDBRANCH  13  17
ENDBRANCH  12  13
ENDBRANCH   1  12
BRANCH   6  19
ATOM     19  O   UNL     1       0.009  -4.277  -4.100  0.00  0.00    -0.341 OA
BRANCH  19  20
ATOM     20  C   UNL     1      -0.229  -4.915  -5.356  0.00  0.00    +0.070 C 
ATOM     21  C   UNL     1       0.986  -4.722  -6.265  0.00  0.00    +0.041 C 
ATOM     22  C   UNL     1      -0.465  -6.410  -5.131  0.00  0.00    +0.041 C 
BRANCH  20  23
ATOM     23  C   UNL     1      -1.464  -4.298  -6.016  0.00  0.00    +0.021 C 
ATOM     24  C   UNL     1      -2.679  -4.492  -5.107  0.00  0.00    +0.007 C 
ATOM     25  C   UNL     1      -3.908  -3.863  -5.766  0.00  0.00    +0.007 C 
ATOM     26  C   UNL     1      -4.168  -4.527  -7.116  0.00  0.00    -0.026 C 
ATOM     27  C   UNL     1      -4.461  -6.015  -6.922  0.00  0.00    +0.007 C 
ATOM     28  C   UNL     1      -4.844  -6.644  -8.264  0.00  0.00    +0.005 C 
ATOM     29  C   UNL     1      -3.661  -6.548  -9.231  0.00  0.00    +0.030 C 
ATOM     30  C   UNL     1      -3.223  -5.102  -9.320  0.00  0.00    -0.073 C 
ATOM     31  C   UNL     1      -3.085  -4.509 -10.480  0.00  0.00    +0.008 C 
ATOM     32  C   UNL     1      -2.949  -4.360  -8.028  0.00  0.00    +0.021 C 
ATOM     33  C   UNL     1      -1.720  -4.981  -7.359  0.00  0.00    +0.014 C 
ATOM     34  C   UNL     1      -5.384  -3.873  -7.774  0.00  0.00    +0.012 C 
ENDBRANCH  20  23
ENDBRANCH  19  20
ENDBRANCH   6  19
TORSDOF 8
