REMARK  Name = ZINC06859748
REMARK  6 active torsions:
REMARK  status: ('A' for Active; 'I' for Inactive)
REMARK    1  A    between atoms: C_1  and  C_2
REMARK    2  A    between atoms: C_2  and  C_3
REMARK    3  A    between atoms: C_6  and  N_9
REMARK    4  A    between atoms: N_9  and  S_10
REMARK    5  A    between atoms: S_10  and  C_13
REMARK    6  A    between atoms: C_14  and  C_23
REMARK                            x       y       z     vdW  Elec       q    Type
REMARK                         _______ _______ _______ _____ _____    ______ ____
ROOT
ATOM      1  S   UNL     1       1.254   2.254   0.105  0.00  0.00    +0.079 S 
ATOM      2  O   UNL     1       0.969   3.619   0.379  0.00  0.00    -0.150 OA
ATOM      3  O   UNL     1       2.151   1.488   0.897  0.00  0.00    -0.150 OA
ENDROOT
BRANCH   1   4
ATOM      4  C   UNL     1       1.860   2.188  -1.548  0.00  0.00    +0.194 A 
ATOM      5  C   UNL     1       2.078   0.971  -2.157  0.00  0.00    +0.073 A 
ATOM      6  N   UNL     1       2.531   0.951  -3.408  0.00  0.00    -0.226 NA
ATOM      7  C   UNL     1       2.780   2.062  -4.055  0.00  0.00    +0.180 A 
ATOM      8  N   UNL     1       2.597   3.312  -3.525  0.00  0.00    -0.260 N 
ATOM      9  C   UNL     1       2.127   3.368  -2.243  0.00  0.00    +0.286 A 
ATOM     10  O   UNL     1       1.940   4.449  -1.707  0.00  0.00    -0.265 OA
ATOM     11  C   UNL     1       2.904   4.379  -4.335  0.00  0.00    +0.104 A 
ATOM     12  C   UNL     1       3.358   4.194  -5.574  0.00  0.00    +0.067 A 
ATOM     13  S   UNL     1       3.385   2.412  -5.692  0.00  0.00    -0.058 S 
ATOM     14  C   UNL     1       1.801  -0.315  -1.422  0.00  0.00    +0.068 C 
ENDBRANCH   1   4
BRANCH   1  15
ATOM     15  N   UNL     1      -0.197   1.455   0.127  0.00  0.00    -0.216 N 
ATOM     16  H   UNL     1      -0.308   0.668   0.683  0.00  0.00    +0.174 HD
BRANCH  15  20
ATOM     17  C   UNL     1      -3.369   2.834  -2.190  0.00  0.00    -0.048 A 
ATOM     18  C   UNL     1      -3.054   1.488  -2.184  0.00  0.00    +0.005 A 
ATOM     19  C   UNL     1      -2.002   1.027  -1.417  0.00  0.00    +0.025 A 
ATOM     20  C   UNL     1      -1.261   1.917  -0.651  0.00  0.00    +0.048 A 
ATOM     21  C   UNL     1      -1.584   3.268  -0.655  0.00  0.00    +0.025 A 
ATOM     22  C   UNL     1      -2.633   3.723  -1.429  0.00  0.00    +0.005 A 
BRANCH  17  24
ATOM     23  C   UNL     1      -5.806   3.297  -2.204  0.00  0.00    +0.009 C 
ATOM     24  C   UNL     1      -4.517   3.333  -3.029  0.00  0.00    +0.032 C 
ENDBRANCH  17  24
ENDBRANCH  15  20
ENDBRANCH   1  15
TORSDOF 4
