REMARK  Name = ZINC02741032
REMARK  6 active torsions:
REMARK  status: ('A' for Active; 'I' for Inactive)
REMARK    1  A    between atoms: C_1  and  C_2
REMARK    2  A    between atoms: C_3  and  C_28
REMARK    3  A    between atoms: C_4  and  C_21
REMARK    4  A    between atoms: C_10  and  C_15
REMARK    5  A    between atoms: C_28  and  O_30
REMARK    6  A    between atoms: O_30  and  C_31
REMARK                            x       y       z     vdW  Elec       q    Type
REMARK                         _______ _______ _______ _____ _____    ______ ____
ROOT
ATOM      1  C   UNL     1       3.808  -3.575  -2.545  0.00  0.00    +0.061 C 
ATOM      2  C   UNL     1       3.165  -3.112  -1.263  0.00  0.00    +0.016 C 
ATOM      3  C   UNL     1       1.899  -2.662  -1.276  0.00  0.00    +0.065 C 
ATOM      4  C   UNL     1       1.229  -2.185  -0.021  0.00  0.00    +0.092 C 
ATOM      5  C   UNL     1       1.960  -2.677   1.203  0.00  0.00    +0.024 C 
ATOM      6  C   UNL     1       3.228  -3.131   1.113  0.00  0.00    +0.016 C 
ATOM      7  N   UNL     1       3.873  -3.154  -0.094  0.00  0.00    -0.321 N 
ATOM      8  C   UNL     1       3.965  -3.627   2.332  0.00  0.00    +0.059 C 
ATOM      9  C   UNL     1       3.469  -2.879   3.572  0.00  0.00    +0.032 C 
ATOM     10  C   UNL     1       1.959  -3.102   3.703  0.00  0.00    +0.088 C 
ATOM     11  C   UNL     1       1.286  -2.647   2.437  0.00  0.00    +0.162 C 
ATOM     12  O   UNL     1       0.140  -2.246   2.481  0.00  0.00    -0.292 OA
ATOM     13  H   UNL     1       4.972  -3.206  -0.118  0.00  0.00    +0.152 HD
ENDROOT
BRANCH   4  14
ATOM     14  C   UNL     1       1.208  -0.678  -0.013  0.00  0.00    -0.034 A 
ATOM     15  C   UNL     1       2.396   0.029  -0.021  0.00  0.00    +0.004 A 
ATOM     16  C   UNL     1       2.378   1.411  -0.013  0.00  0.00    +0.001 A 
ATOM     17  C   UNL     1       1.172   2.087   0.002  0.00  0.00    +0.015 A 
ATOM     18  C   UNL     1      -0.017   1.379   0.010  0.00  0.00    +0.018 A 
ATOM     19  C   UNL     1       0.002  -0.004   0.002  0.00  0.00    +0.019 A 
ATOM     20 BR   UNL     1      -1.667   2.303   0.022  0.00  0.00    -0.050 Br
ENDBRANCH   4  14
BRANCH   9  21
ATOM     21  C   UNL     1       4.168  -3.411   4.797  0.00  0.00    -0.044 A 
ATOM     22  C   UNL     1       4.053  -4.747   5.133  0.00  0.00    +0.004 A 
ATOM     23  C   UNL     1       4.697  -5.236   6.254  0.00  0.00    +0.000 A 
ATOM     24  C   UNL     1       5.448  -4.386   7.045  0.00  0.00    +0.000 A 
ATOM     25  C   UNL     1       5.559  -3.049   6.712  0.00  0.00    +0.000 A 
ATOM     26  C   UNL     1       4.918  -2.562   5.588  0.00  0.00    +0.004 A 
ENDBRANCH   9  21
BRANCH   3  27
ATOM     27  C   UNL     1       1.184  -2.638  -2.496  0.00  0.00    +0.338 C 
ATOM     28  O   UNL     1       1.716  -3.022  -3.521  0.00  0.00    -0.245 OA
BRANCH  27  29
ATOM     29  O   UNL     1      -0.088  -2.188  -2.524  0.00  0.00    -0.458 OA
BRANCH  29  30
ATOM     30  C   UNL     1      -0.750  -2.192  -3.791  0.00  0.00    +0.177 C 
ATOM     31  C   UNL     1      -0.508  -0.856  -4.496  0.00  0.00    +0.044 C 
ATOM     32  C   UNL     1      -1.217  -0.859  -5.852  0.00  0.00    +0.004 C 
ATOM     33  C   UNL     1      -2.719  -1.061  -5.642  0.00  0.00    +0.000 C 
ATOM     34  C   UNL     1      -2.961  -2.397  -4.937  0.00  0.00    +0.004 C 
ATOM     35  C   UNL     1      -2.252  -2.393  -3.581  0.00  0.00    +0.044 C 
ENDBRANCH  29  30
ENDBRANCH  27  29
ENDBRANCH   3  27
TORSDOF 5
