REMARK  Name = ZINC35991219
REMARK  12 active torsions:
REMARK  status: ('A' for Active; 'I' for Inactive)
REMARK    1  A    between atoms: C_1  and  C_2
REMARK    2  A    between atoms: C_2  and  N_3
REMARK    3  A    between atoms: C_4  and  C_24
REMARK    4  A    between atoms: C_5  and  C_19
REMARK    5  A    between atoms: C_6  and  C_11
REMARK    6  A    between atoms: C_19  and  O_21
REMARK    7  A    between atoms: O_21  and  C_22
REMARK    8  A    between atoms: C_22  and  C_23
REMARK    9  A    between atoms: C_24  and  N_25
REMARK   10  A    between atoms: N_25  and  C_26
REMARK   11  A    between atoms: N_25  and  C_27
REMARK   12  A    between atoms: N_30  and  C_33
REMARK                            x       y       z     vdW  Elec       q    Type
REMARK                         _______ _______ _______ _____ _____    ______ ____
ROOT
ATOM      1  N   UNL     1      -1.335  -0.151   0.273  0.00  0.00    -0.258 N 
ATOM      2  C   UNL     1      -2.078  -0.445   1.381  0.00  0.00    +0.041 C 
ATOM      3  C   UNL     1      -3.251  -1.106   1.280  0.00  0.00    +0.080 C 
ATOM      4  C   UNL     1      -3.715  -1.509  -0.105  0.00  0.00    +0.145 C 
ATOM      5  N   UNL     1      -2.843  -1.145  -1.234  0.00  0.00    -0.288 N 
ATOM      6  C   UNL     1      -1.700  -0.479  -0.973  0.00  0.00    +0.307 C 
ATOM      7  O   UNL     1      -0.975  -0.171  -1.898  0.00  0.00    -0.252 OA
ATOM      8  H   UNL     1      -3.086  -1.376  -2.144  0.00  0.00    +0.151 HD
ENDROOT
BRANCH   4   9
ATOM      9  C   UNL     1      -5.066  -0.884  -0.343  0.00  0.00    -0.004 A 
ATOM     10  C   UNL     1      -5.157   0.360  -0.939  0.00  0.00    +0.008 A 
ATOM     11  C   UNL     1      -6.395   0.934  -1.157  0.00  0.00    +0.020 A 
ATOM     12  C   UNL     1      -7.545   0.263  -0.779  0.00  0.00    +0.042 A 
ATOM     13  C   UNL     1      -7.455  -0.982  -0.183  0.00  0.00    +0.040 A 
ATOM     14  C   UNL     1      -6.215  -1.558   0.031  0.00  0.00    +0.048 A 
ATOM     15 CL   UNL     1      -6.101  -3.123   0.773  0.00  0.00    -0.083 Cl
ATOM     16 CL   UNL     1      -9.100   0.984  -1.052  0.00  0.00    -0.083 Cl
ENDBRANCH   4   9
BRANCH   1  18
ATOM     17  C   UNL     1      -0.303   2.066   0.249  0.00  0.00    +0.025 C 
ATOM     18  C   UNL     1      -0.072   0.568   0.457  0.00  0.00    +0.111 C 
ENDBRANCH   1  18
BRANCH   3  19
ATOM     19  C   UNL     1      -4.020  -1.411   2.427  0.00  0.00    +0.339 C 
ATOM     20  O   UNL     1      -3.938  -2.512   2.938  0.00  0.00    -0.245 OA
BRANCH  19  21
ATOM     21  O   UNL     1      -4.844  -0.482   2.954  0.00  0.00    -0.462 OA
BRANCH  21  22
ATOM     22  C   UNL     1      -5.506  -0.819   4.175  0.00  0.00    +0.229 C 
ATOM     23  C   UNL     1      -6.482   0.298   4.551  0.00  0.00    +0.048 C 
ENDBRANCH  21  22
ENDBRANCH  19  21
ENDBRANCH   3  19
BRANCH   2  24
ATOM     24  C   UNL     1      -1.579  -0.025   2.740  0.00  0.00    +0.136 C 
BRANCH  24  25
ATOM     25  N   UNL     1      -1.567   1.441   2.826  0.00  0.00    -0.297 NA
ATOM     26  C   UNL     1      -2.932   1.974   2.922  0.00  0.00    +0.105 C 
BRANCH  25  27
ATOM     27  C   UNL     1      -0.743   1.896   3.954  0.00  0.00    +0.053 C 
ATOM     28  C   UNL     1      -1.385   1.446   5.270  0.00  0.00    +0.000 C 
ATOM     29  C   UNL     1      -0.566   1.990   6.442  0.00  0.00    -0.078 C 
ATOM     30  N   UNL     1      -0.538   3.457   6.386  0.00  0.00    +0.378 N 
ATOM     31  C   UNL     1       0.140   3.895   5.160  0.00  0.00    -0.078 C 
ATOM     32  C   UNL     1      -0.652   3.425   3.938  0.00  0.00    +0.000 C 
ATOM     33  C   UNL     1       0.182   3.977   7.556  0.00  0.00    -0.096 C 
ATOM     34  H   UNL     1      -1.484   3.810   6.391  0.00  0.00    -0.082 HD
ENDBRANCH  25  27
ENDBRANCH  24  25
ENDBRANCH   2  24
TORSDOF 8
