REMARK  Name = ZINC36202736
REMARK  14 active torsions:
REMARK  status: ('A' for Active; 'I' for Inactive)
REMARK    1  A    between atoms: C_1  and  O_2
REMARK    2  A    between atoms: O_2  and  C_3
REMARK    3  A    between atoms: C_6  and  C_9
REMARK    4  A    between atoms: C_9  and  C_10
REMARK    5  A    between atoms: C_9  and  C_18
REMARK    6  A    between atoms: C_9  and  O_38
REMARK    7  A    between atoms: C_13  and  O_16
REMARK    8  A    between atoms: O_16  and  C_17
REMARK    9  A    between atoms: C_21  and  C_23
REMARK   10  A    between atoms: C_23  and  N_24
REMARK   11  A    between atoms: N_24  and  C_25
REMARK   12  A    between atoms: N_24  and  C_31
REMARK   13  A    between atoms: C_25  and  C_26
REMARK   14  A    between atoms: C_31  and  C_32
REMARK                            x       y       z     vdW  Elec       q    Type
REMARK                         _______ _______ _______ _____ _____    ______ ____
ROOT
ATOM      1  C   UNL     1      -6.450  -3.068  -0.192  0.00  0.00    +0.146 A 
ATOM      2  C   UNL     1      -7.745  -2.873   0.116  0.00  0.00    +0.048 A 
ATOM      3  C   UNL     1      -7.826  -2.811   1.526  0.00  0.00    +0.043 A 
ATOM      4  C   UNL     1      -6.576  -2.971   1.996  0.00  0.00    +0.089 A 
ATOM      5  O   UNL     1      -5.747  -3.132   0.951  0.00  0.00    -0.463 OA
ENDROOT
BRANCH   1   6
ATOM      6  C   UNL     1      -5.885  -3.198  -1.583  0.00  0.00    +0.174 C 
BRANCH   6  10
ATOM      7  C   UNL     1      -1.864  -1.750  -1.627  0.00  0.00    +0.120 A 
ATOM      8  C   UNL     1      -2.826  -1.153  -2.429  0.00  0.00    +0.046 A 
ATOM      9  C   UNL     1      -4.125  -1.624  -2.413  0.00  0.00    +0.011 A 
ATOM     10  C   UNL     1      -4.467  -2.687  -1.598  0.00  0.00    -0.004 A 
ATOM     11  C   UNL     1      -3.510  -3.283  -0.797  0.00  0.00    +0.011 A 
ATOM     12  C   UNL     1      -2.208  -2.820  -0.814  0.00  0.00    +0.046 A 
BRANCH   7  14
ATOM     13  C   UNL     1      -0.304  -0.184  -2.501  0.00  0.00    +0.277 C 
ATOM     14  O   UNL     1      -0.586  -1.289  -1.641  0.00  0.00    -0.495 OA
ENDBRANCH   7  14
ENDBRANCH   6  10
BRANCH   6  15
ATOM     15  C   UNL     1      -5.901  -4.646  -1.998  0.00  0.00    -0.004 A 
ATOM     16  C   UNL     1      -5.622  -5.633  -1.072  0.00  0.00    +0.011 A 
ATOM     17  C   UNL     1      -5.636  -6.962  -1.450  0.00  0.00    +0.046 A 
ATOM     18  C   UNL     1      -5.932  -7.305  -2.761  0.00  0.00    +0.120 A 
ATOM     19  C   UNL     1      -6.213  -6.313  -3.689  0.00  0.00    +0.046 A 
ATOM     20  C   UNL     1      -6.202  -4.986  -3.304  0.00  0.00    +0.011 A 
BRANCH  18  21
ATOM     21  O   UNL     1      -5.947  -8.611  -3.136  0.00  0.00    -0.495 OA
ATOM     22  C   UNL     1      -6.260  -8.891  -4.502  0.00  0.00    +0.277 C 
ENDBRANCH  18  21
ENDBRANCH   6  15
BRANCH   6  23
ATOM     23  O   UNL     1      -6.677  -2.432  -2.493  0.00  0.00    -0.372 OA
ATOM     24  H   UNL     1      -6.711  -1.488  -2.286  0.00  0.00    +0.212 HD
ENDBRANCH   6  23
ENDBRANCH   1   6
BRANCH   4  25
ATOM     25  C   UNL     1      -6.174  -2.975   3.448  0.00  0.00    -0.003 C 
BRANCH  25  26
ATOM     26  N   UNL     1      -6.237  -4.346   3.970  0.00  0.00    +0.389 N 
ATOM     27  H   UNL     1      -7.158  -4.726   3.806  0.00  0.00    -0.081 HD
BRANCH  26  28
ATOM     28  C   UNL     1      -5.962  -4.334   5.413  0.00  0.00    -0.042 C 
BRANCH  28  29
ATOM     29  C   UNL     1      -7.084  -3.631   6.132  0.00  0.00    -0.057 A 
ATOM     30  C   UNL     1      -6.972  -2.294   6.468  0.00  0.00    +0.009 A 
ATOM     31  C   UNL     1      -8.000  -1.691   7.115  0.00  0.00    +0.045 A 
ATOM     32  S   UNL     1      -9.174  -3.027   7.269  0.00  0.00    -0.105 S 
ATOM     33  C   UNL     1      -8.219  -4.297   6.455  0.00  0.00    +0.047 A 
ENDBRANCH  28  29
ENDBRANCH  26  28
BRANCH  26  34
ATOM     34  C   UNL     1      -5.236  -5.177   3.288  0.00  0.00    -0.046 C 
BRANCH  34  35
ATOM     35  C   UNL     1      -5.388  -6.631   3.738  0.00  0.00    +0.102 C 
ATOM     36  C   UNL     1      -4.367  -7.519   2.994  0.00  0.00    +0.032 C 
ATOM     37  C   UNL     1      -5.192  -8.804   2.710  0.00  0.00    +0.030 C 
ATOM     38  C   UNL     1      -6.602  -8.203   2.483  0.00  0.00    +0.160 C 
ATOM     39  O   UNL     1      -6.698  -7.108   3.410  0.00  0.00    -0.378 OA
ENDBRANCH  34  35
ENDBRANCH  26  34
ENDBRANCH  25  26
ENDBRANCH   4  25
TORSDOF 12
