REMARK  Name = ZINC36322462
REMARK  6 active torsions:
REMARK  status: ('A' for Active; 'I' for Inactive)
REMARK    1  A    between atoms: C_1  and  C_2
REMARK    2  A    between atoms: C_2  and  C_3
REMARK    3  A    between atoms: N_9  and  S_10
REMARK    4  A    between atoms: S_10  and  C_13
REMARK    5  A    between atoms: C_15  and  N_21
REMARK    6  A    between atoms: C_16  and  C_20
REMARK                            x       y       z     vdW  Elec       q    Type
REMARK                         _______ _______ _______ _____ _____    ______ ____
ROOT
ATOM      1  S   UNL     1      -1.256   1.120  -2.294  0.00  0.00    +0.061 S 
ATOM      2  O   UNL     1      -2.140   0.883  -3.382  0.00  0.00    -0.153 OA
ATOM      3  O   UNL     1      -1.665   0.994  -0.939  0.00  0.00    -0.153 OA
ENDROOT
BRANCH   1   4
ATOM      4  C   UNL     1      -0.651   2.764  -2.486  0.00  0.00    +0.109 A 
ATOM      5  C   UNL     1      -0.313   3.509  -1.373  0.00  0.00    +0.051 A 
ATOM      6  C   UNL     1       0.164   4.804  -1.524  0.00  0.00    +0.031 A 
ATOM      7  C   UNL     1       0.299   5.348  -2.795  0.00  0.00    -0.011 A 
ATOM      8  C   UNL     1      -0.041   4.598  -3.905  0.00  0.00    +0.047 A 
ATOM      9  C   UNL     1      -0.511   3.305  -3.750  0.00  0.00    +0.049 A 
ATOM     10 CL   UNL     1       0.126   5.276  -5.495  0.00  0.00    -0.083 Cl
ATOM     11  C   UNL     1       0.816   6.753  -2.964  0.00  0.00    +0.047 C 
BRANCH   6  12
ATOM     12  N   UNL     1       0.507   5.560  -0.400  0.00  0.00    -0.358 N 
ATOM     13  H   UNL     1       0.412   5.179   0.487  0.00  0.00    +0.142 HD
ATOM     14  H   UNL     1       0.840   6.465  -0.507  0.00  0.00    +0.142 HD
ENDBRANCH   6  12
ENDBRANCH   1   4
BRANCH   1  20
ATOM     15  C   UNL     1       0.977  -0.157  -1.401  0.00  0.00    +0.105 C 
ATOM     16  C   UNL     1       1.138  -1.673  -1.243  0.00  0.00    +0.180 C 
ATOM     17  O   UNL     1       1.468  -2.246  -2.511  0.00  0.00    -0.377 OA
ATOM     18  C   UNL     1       0.457  -2.079  -3.508  0.00  0.00    +0.177 C 
ATOM     19  C   UNL     1       0.261  -0.583  -3.782  0.00  0.00    +0.138 C 
ATOM     20  N   UNL     1       0.030   0.098  -2.498  0.00  0.00    -0.169 NA
BRANCH  15  22
ATOM     21  C   UNL     1       1.462   0.257   1.015  0.00  0.00    +0.005 C 
ATOM     22  C   UNL     1       0.433   0.441  -0.102  0.00  0.00    +0.019 C 
ENDBRANCH  15  22
ENDBRANCH   1  20
TORSDOF 4
