REMARK  Name = ZINC36396512
REMARK  12 active torsions:
REMARK  status: ('A' for Active; 'I' for Inactive)
REMARK    1  A    between atoms: C_1  and  C_2
REMARK    2  A    between atoms: C_7  and  N_12
REMARK    3  A    between atoms: C_9  and  C_11
REMARK    4  A    between atoms: C_16  and  C_18
REMARK    5  A    between atoms: C_18  and  O_19
REMARK    6  A    between atoms: O_19  and  C_20
REMARK    7  A    between atoms: C_20  and  C_22
REMARK    8  A    between atoms: C_22  and  C_24
REMARK    9  A    between atoms: C_22  and  N_28
REMARK   10  A    between atoms: C_24  and  C_25
REMARK   11  A    between atoms: C_25  and  S_26
REMARK   12  A    between atoms: S_26  and  C_27
REMARK                            x       y       z     vdW  Elec       q    Type
REMARK                         _______ _______ _______ _____ _____    ______ ____
ROOT
ATOM      1  O   UNL     1       1.872  -7.247   6.026  0.00  0.00    -0.454 OA
ENDROOT
BRANCH   1   2
ATOM      2  C   UNL     1       2.426  -7.839   7.095  0.00  0.00    +0.329 C 
ATOM      3  O   UNL     1       3.267  -7.257   7.740  0.00  0.00    -0.249 OA
BRANCH   2   4
ATOM      4  C   UNL     1       2.001  -9.229   7.492  0.00  0.00    +0.194 C 
BRANCH   4   5
ATOM      5  N   UNL     1       2.747  -9.647   8.681  0.00  0.00    -0.220 N 
ATOM      6  C   UNL     1       4.087  -9.743   8.744  0.00  0.00    +0.255 C 
ATOM      7  O   UNL     1       4.859  -9.501   7.838  0.00  0.00    -0.270 OA
ATOM      8  C   UNL     1       4.464 -10.193  10.101  0.00  0.00    +0.049 A 
ATOM      9  C   UNL     1       5.669 -10.460  10.732  0.00  0.00    +0.014 A 
ATOM     10  C   UNL     1       5.674 -10.878  12.053  0.00  0.00    +0.001 A 
ATOM     11  C   UNL     1       4.487 -11.029  12.745  0.00  0.00    +0.001 A 
ATOM     12  C   UNL     1       3.275 -10.765  12.127  0.00  0.00    +0.014 A 
ATOM     13  C   UNL     1       3.254 -10.347  10.806  0.00  0.00    +0.049 A 
ATOM     14  C   UNL     1       2.183  -9.981   9.856  0.00  0.00    +0.255 C 
ATOM     15  O   UNL     1       0.992  -9.983  10.095  0.00  0.00    -0.270 OA
ENDBRANCH   4   5
BRANCH   4  16
ATOM     16  C   UNL     1       2.287 -10.197   6.343  0.00  0.00    +0.045 C 
BRANCH  16  17
ATOM     17  C   UNL     1       1.742 -11.583   6.696  0.00  0.00    +0.071 C 
BRANCH  17  18
ATOM     18  S   UNL     1       2.082 -12.731   5.334  0.00  0.00    -0.164 S 
ATOM     19  C   UNL     1       1.382 -14.306   5.902  0.00  0.00    +0.084 C 
ENDBRANCH  17  18
ENDBRANCH  16  17
ENDBRANCH   4  16
ENDBRANCH   2   4
ENDBRANCH   1   2
BRANCH   1  20
ATOM     20  C   UNL     1       2.323  -5.928   5.708  0.00  0.00    +0.328 C 
BRANCH  20  25
ATOM     21  N   UNL     1       1.471  -2.526   2.420  0.00  0.00    -0.296 N 
ATOM     22  C   UNL     1       1.207  -3.754   2.907  0.00  0.00    +0.306 C 
ATOM     23  O   UNL     1       0.381  -4.460   2.362  0.00  0.00    -0.252 OA
ATOM     24  N   UNL     1       1.859  -4.201   3.999  0.00  0.00    -0.237 N 
ATOM     25  C   UNL     1       1.594  -5.429   4.487  0.00  0.00    +0.258 C 
ATOM     26  O   UNL     1       0.770  -6.133   3.943  0.00  0.00    -0.272 OA
ATOM     27  H   UNL     1       2.131  -1.963   2.855  0.00  0.00    +0.151 HD
ATOM     28  H   UNL     1       2.518  -3.638   4.434  0.00  0.00    +0.159 HD
BRANCH  21  34
ATOM     29  C   UNL     1      -0.019   1.526   0.010  0.00  0.00    +0.008 C 
ATOM     30  C   UNL     1       0.002  -0.004   0.002  0.00  0.00    -0.009 C 
ATOM     31  C   UNL     1       0.718  -0.497  -1.257  0.00  0.00    +0.003 C 
ATOM     32  C   UNL     1       0.739  -2.027  -1.265  0.00  0.00    +0.002 C 
ATOM     33  C   UNL     1       1.479  -2.534  -0.026  0.00  0.00    +0.022 C 
ATOM     34  C   UNL     1       0.763  -2.041   1.233  0.00  0.00    +0.078 C 
ATOM     35  C   UNL     1       0.742  -0.511   1.242  0.00  0.00    +0.009 C 
ATOM     36  C   UNL     1       0.026  -0.018   2.500  0.00  0.00    +0.009 C 
ENDBRANCH  21  34
ENDBRANCH  20  25
ENDBRANCH   1  20
TORSDOF 9
