REMARK  Name = ZINC63294459
REMARK  4 active torsions:
REMARK  status: ('A' for Active; 'I' for Inactive)
REMARK    1  A    between atoms: N_17  and  C_18
REMARK    2  A    between atoms: C_18  and  C_19
REMARK    3  A    between atoms: C_24  and  C_27
REMARK    4  A    between atoms: C_24  and  O_34
REMARK                            x       y       z     vdW  Elec       q    Type
REMARK                         _______ _______ _______ _____ _____    ______ ____
ROOT
ATOM      1  C   UNL     1      -0.010   1.351   0.010  0.00  0.00    +0.001 A 
ATOM      2  C   UNL     1       1.172   2.104   0.008  0.00  0.00    +0.002 A 
ATOM      3  C   UNL     1       2.396   1.536  -0.007  0.00  0.00    +0.026 A 
ATOM      4  C   UNL     1       2.535   0.122  -0.021  0.00  0.00    +0.043 A 
ATOM      5  N   UNL     1       3.597  -0.651  -0.017  0.00  0.00    -0.376 N 
ATOM      6  C   UNL     1       3.160  -2.042  -0.115  0.00  0.00    +0.124 C 
ATOM      7  C   UNL     1       3.674  -2.887   1.056  0.00  0.00    +0.138 C 
ATOM      8  N   UNL     1       2.879  -4.124   1.104  0.00  0.00    -0.283 N 
ATOM      9  C   UNL     1       1.425  -4.071   1.288  0.00  0.00    +0.114 C 
ATOM     10  C   UNL     1       0.798  -3.236   0.155  0.00  0.00    +0.052 C 
ATOM     11  C   UNL     1       1.644  -1.995  -0.018  0.00  0.00    -0.036 C 
ATOM     12  C   UNL     1       1.299  -0.699  -0.013  0.00  0.00    -0.001 A 
ATOM     13  C   UNL     1       0.008  -0.001  -0.000  0.00  0.00    +0.010 A 
ATOM     14  C   UNL     1       3.492  -5.317   0.976  0.00  0.00    +0.303 C 
ATOM     15  O   UNL     1       4.682  -5.366   0.728  0.00  0.00    -0.253 OA
ATOM     16  N   UNL     1       2.788  -6.456   1.124  0.00  0.00    -0.291 N 
ATOM     17  H   UNL     1       1.827  -6.419   1.249  0.00  0.00    +0.151 HD
ATOM     18  H   UNL     1       4.517  -0.350   0.042  0.00  0.00    +0.160 HD
ENDROOT
BRANCH  16  19
ATOM     19  C   UNL     1       3.473  -7.751   1.094  0.00  0.00    +0.201 C 
BRANCH  19  20
ATOM     20  C   UNL     1       2.467  -8.857   1.280  0.00  0.00    +0.233 C 
ATOM     21  O   UNL     1       1.292  -8.590   1.423  0.00  0.00    -0.274 OA
ATOM     22  N   UNL     1       2.872 -10.142   1.288  0.00  0.00    -0.300 N 
ATOM     23  C   UNL     1       4.292 -10.481   1.122  0.00  0.00    +0.111 C 
ATOM     24  C   UNL     1       4.428 -11.485  -0.027  0.00  0.00    +0.058 C 
ATOM     25  C   UNL     1       3.523 -12.688   0.242  0.00  0.00    +0.094 C 
ATOM     26  C   UNL     1       2.065 -12.227   0.309  0.00  0.00    +0.058 C 
ATOM     27  C   UNL     1       1.902 -11.231   1.468  0.00  0.00    +0.111 C 
BRANCH  25  28
ATOM     28  C   UNL     1       3.680 -13.694  -0.870  0.00  0.00    -0.016 A 
ATOM     29  C   UNL     1       4.004 -13.269  -2.145  0.00  0.00    +0.008 A 
ATOM     30  C   UNL     1       4.149 -14.190  -3.165  0.00  0.00    +0.020 A 
ATOM     31  C   UNL     1       3.969 -15.538  -2.910  0.00  0.00    +0.041 A 
ATOM     32  C   UNL     1       3.645 -15.963  -1.633  0.00  0.00    +0.020 A 
ATOM     33  C   UNL     1       3.506 -15.041  -0.613  0.00  0.00    +0.008 A 
ATOM     34 CL   UNL     1       4.150 -16.696  -4.190  0.00  0.00    -0.084 Cl
ENDBRANCH  25  28
BRANCH  25  35
ATOM     35  O   UNL     1       3.889 -13.292   1.484  0.00  0.00    -0.384 OA
ATOM     36  H   UNL     1       3.355 -14.063   1.720  0.00  0.00    +0.211 HD
ENDBRANCH  25  35
ENDBRANCH  19  20
ENDBRANCH  16  19
TORSDOF 4
