REMARK  Name = ZINC20158379
REMARK  6 active torsions:
REMARK  status: ('A' for Active; 'I' for Inactive)
REMARK    1  A    between atoms: C_1  and  C_2
REMARK    2  A    between atoms: C_2  and  N_3
REMARK    3  A    between atoms: N_3  and  N_4
REMARK    4  A    between atoms: C_5  and  C_7
REMARK    5  A    between atoms: C_7  and  C_8
REMARK    6  A    between atoms: C_18  and  C_19
REMARK                            x       y       z     vdW  Elec       q    Type
REMARK                         _______ _______ _______ _____ _____    ______ ____
ROOT
ATOM      1  N   UNL     1      -3.674   1.361   0.035  0.00  0.00    -0.269 N 
ATOM      2  H   UNL     1      -3.890   2.439   0.042  0.00  0.00    +0.170 HD
ENDROOT
BRANCH   1   3
ATOM      3  N   UNL     1      -4.727   0.436   0.037  0.00  0.00    -0.237 N 
ATOM      4  C   UNL     1      -6.003   0.868   0.047  0.00  0.00    +0.233 C 
ATOM      5  O   UNL     1      -6.241   2.057   0.055  0.00  0.00    -0.274 OA
ATOM      6  H   UNL     1      -4.511  -0.643   0.030  0.00  0.00    +0.173 HD
BRANCH   4   7
ATOM      7  C   UNL     1      -7.136  -0.127   0.049  0.00  0.00    +0.133 C 
BRANCH   7   8
ATOM      8  C   UNL     1      -8.450   0.609   0.062  0.00  0.00    -0.031 A 
ATOM      9  C   UNL     1      -9.090   0.848   1.239  0.00  0.00    +0.005 A 
ATOM     10  C   UNL     1     -10.307   1.526   1.270  0.00  0.00    +0.001 A 
ATOM     11  C   UNL     1     -10.891   1.971   0.124  0.00  0.00    +0.008 A 
ATOM     12  C   UNL     1     -10.260   1.744  -1.111  0.00  0.00    -0.018 A 
ATOM     13  C   UNL     1      -9.020   1.058  -1.142  0.00  0.00    -0.014 A 
ATOM     14  C   UNL     1      -8.391   0.827  -2.378  0.00  0.00    +0.009 A 
ATOM     15  C   UNL     1      -8.976   1.271  -3.524  0.00  0.00    +0.001 A 
ATOM     16  C   UNL     1     -10.193   1.949  -3.493  0.00  0.00    +0.001 A 
ATOM     17  C   UNL     1     -10.832   2.188  -2.315  0.00  0.00    +0.008 A 
ENDBRANCH   7   8
ENDBRANCH   4   7
ENDBRANCH   1   3
BRANCH   1  19
ATOM     18  C   UNL     1      -2.167  -0.528   0.015  0.00  0.00    +0.062 C 
ATOM     19  C   UNL     1      -2.462   0.950   0.025  0.00  0.00    +0.024 C 
ATOM     20  C   UNL     1      -1.329   1.945   0.023  0.00  0.00    +0.087 C 
BRANCH  20  21
ATOM     21  C   UNL     1      -0.014   1.209   0.011  0.00  0.00    +0.244 C 
ATOM     22  O   UNL     1       0.002  -0.004   0.004  0.00  0.00    -0.270 OA
ATOM     23  N   UNL     1       1.143   1.898   0.001  0.00  0.00    -0.267 N 
ATOM     24  C   UNL     1       2.359   1.221   0.091  0.00  0.00    +0.125 A 
ATOM     25  C   UNL     1       3.544   1.942   0.188  0.00  0.00    +0.045 A 
ATOM     26  C   UNL     1       4.743   1.258   0.282  0.00  0.00    +0.025 A 
ATOM     27  C   UNL     1       4.716  -0.131   0.265  0.00  0.00    +0.059 A 
ATOM     28  C   UNL     1       3.502  -0.782   0.161  0.00  0.00    +0.132 A 
ATOM     29  N   UNL     1       2.375  -0.102   0.078  0.00  0.00    -0.239 NA
ATOM     30 CL   UNL     1       6.192  -1.038   0.373  0.00  0.00    -0.082 Cl
ATOM     31  H   UNL     1       1.130   2.995  -0.077  0.00  0.00    +0.157 HD
ENDBRANCH  20  21
ENDBRANCH   1  19
TORSDOF 5
