REMARK  Name = ZINC01768223
REMARK  12 active torsions:
REMARK  status: ('A' for Active; 'I' for Inactive)
REMARK    1  A    between atoms: C_1  and  C_2
REMARK    2  A    between atoms: C_2  and  N_66
REMARK    3  A    between atoms: C_3  and  C_4
REMARK    4  A    between atoms: C_3  and  N_66
REMARK    5  A    between atoms: C_5  and  O_29
REMARK    6  A    between atoms: C_11  and  C_25
REMARK    7  A    between atoms: C_12  and  C_15
REMARK    8  A    between atoms: C_18  and  O_23
REMARK    9  A    between atoms: C_19  and  O_21
REMARK   10  A    between atoms: O_21  and  C_22
REMARK   11  A    between atoms: O_23  and  C_24
REMARK   12  A    between atoms: C_30  and  N_66
REMARK                            x       y       z     vdW  Elec       q    Type
REMARK                         _______ _______ _______ _____ _____    ______ ____
ROOT
ATOM      1  C   UNL     1       1.006   2.261   2.270  0.00  0.00    +0.020 A 
ATOM      2  C   UNL     1       2.242   1.825   1.823  0.00  0.00    +0.122 A 
ATOM      3  C   UNL     1       3.316   2.709   1.734  0.00  0.00    +0.046 A 
ATOM      4  C   UNL     1       3.165   4.016   2.098  0.00  0.00    +0.019 A 
ATOM      5  C   UNL     1       1.927   4.469   2.556  0.00  0.00    +0.065 A 
ATOM      6  C   UNL     1       0.835   3.587   2.644  0.00  0.00    +0.144 A 
ATOM      7  O   UNL     1      -0.360   4.026   3.085  0.00  0.00    -0.450 OA
ATOM      8  C   UNL     1      -0.585   5.289   3.458  0.00  0.00    +0.219 A 
ATOM      9  C   UNL     1       0.380   6.244   3.424  0.00  0.00    +0.077 A 
ATOM     10  C   UNL     1       1.727   5.873   2.957  0.00  0.00    +0.201 A 
ATOM     11  O   UNL     1       2.632   6.688   2.905  0.00  0.00    -0.286 OA
ENDROOT
BRANCH   9  12
ATOM     12  C   UNL     1       0.083   7.634   3.848  0.00  0.00    -0.007 A 
ATOM     13  C   UNL     1      -0.819   8.408   3.120  0.00  0.00    +0.012 A 
ATOM     14  C   UNL     1      -1.099   9.700   3.519  0.00  0.00    +0.050 A 
ATOM     15  C   UNL     1      -0.476  10.234   4.636  0.00  0.00    +0.162 A 
ATOM     16  C   UNL     1       0.431   9.467   5.363  0.00  0.00    +0.162 A 
ATOM     17  C   UNL     1       0.711   8.171   4.971  0.00  0.00    +0.058 A 
BRANCH  16  18
ATOM     18  O   UNL     1       1.042   9.993   6.459  0.00  0.00    -0.491 OA
ATOM     19  C   UNL     1       1.960   9.150   7.157  0.00  0.00    +0.277 C 
ENDBRANCH  16  18
BRANCH  15  20
ATOM     20  O   UNL     1      -0.750  11.509   5.022  0.00  0.00    -0.491 OA
ATOM     21  C   UNL     1      -1.690  12.238   4.230  0.00  0.00    +0.277 C 
ENDBRANCH  15  20
ENDBRANCH   9  12
BRANCH   8  22
ATOM     22  C   UNL     1      -1.962   5.668   3.937  0.00  0.00    +0.451 C 
ATOM     23  F   UNL     1      -2.734   6.090   2.849  0.00  0.00    -0.163 F 
ATOM     24  F   UNL     1      -2.569   4.560   4.538  0.00  0.00    -0.163 F 
ATOM     25  F   UNL     1      -1.863   6.708   4.868  0.00  0.00    -0.163 F 
ENDBRANCH   8  22
BRANCH   2  26
ATOM     26  O   UNL     1       2.408   0.527   1.463  0.00  0.00    -0.506 OA
ATOM     27  H   UNL     1       2.302   0.365   0.516  0.00  0.00    +0.292 HD
ENDBRANCH   2  26
BRANCH   1  28
ATOM     28  C   UNL     1      -0.149   1.297   2.356  0.00  0.00    -0.035 C 
BRANCH  28  29
ATOM     29  N   UNL     1      -1.111   1.615   1.280  0.00  0.00    +0.384 N 
ATOM     30  H   UNL     1      -1.191   2.635   1.194  0.00  0.00    -0.081 HD
BRANCH  29  31
ATOM     31  C   UNL     1      -2.439   1.055   1.608  0.00  0.00    -0.068 C 
ATOM     32  C   UNL     1      -2.430  -0.468   1.459  0.00  0.00    -0.015 C 
ATOM     33  C   UNL     1      -3.816  -1.022   1.799  0.00  0.00    -0.002 C 
ATOM     34  C   UNL     1      -4.852  -0.422   0.847  0.00  0.00    -0.000 C 
ATOM     35  C   UNL     1      -4.861   1.101   0.996  0.00  0.00    -0.002 C 
ATOM     36  C   UNL     1      -3.475   1.654   0.656  0.00  0.00    -0.015 C 
ENDBRANCH  29  31
BRANCH  29  38
ATOM     37  C   UNL     1       0.355   2.051  -0.625  0.00  0.00    -0.017 C 
ATOM     38  C   UNL     1      -0.633   1.061  -0.005  0.00  0.00    -0.081 C 
ENDBRANCH  29  38
ENDBRANCH  28  29
ENDBRANCH   1  28
TORSDOF 9
