REMARK  Name = ZINC12447703
REMARK  9 active torsions:
REMARK  status: ('A' for Active; 'I' for Inactive)
REMARK    1  A    between atoms: C_1  and  C_2
REMARK    2  A    between atoms: C_5  and  C_8
REMARK    3  A    between atoms: C_8  and  C_9
REMARK    4  A    between atoms: C_9  and  N_10
REMARK    5  A    between atoms: C_11  and  C_27
REMARK    6  A    between atoms: C_12  and  C_26
REMARK    7  A    between atoms: C_13  and  S_16
REMARK    8  A    between atoms: C_14  and  N_15
REMARK    9  A    between atoms: S_16  and  C_19
REMARK                            x       y       z     vdW  Elec       q    Type
REMARK                         _______ _______ _______ _____ _____    ______ ____
ROOT
ATOM      1  N   UNL     1       0.043  -1.987   1.434  0.00  0.00    -0.331 N 
ATOM      2  C   UNL     1      -1.060  -2.801   1.445  0.00  0.00    +0.022 A 
ATOM      3  C   UNL     1      -0.640  -4.081   1.430  0.00  0.00    -0.003 A 
ATOM      4  C   UNL     1       0.770  -4.066   1.417  0.00  0.00    +0.136 A 
ATOM      5  C   UNL     1       1.162  -2.768   1.419  0.00  0.00    +0.123 A 
ATOM      6  C   UNL     1      -1.517  -5.306   1.433  0.00  0.00    +0.047 C 
ATOM      7  C   UNL     1      -2.495  -2.343   1.468  0.00  0.00    +0.064 C 
ENDROOT
BRANCH   5   8
ATOM      8  N   UNL     1       2.480  -2.310   1.410  0.00  0.00    -0.343 N 
ATOM      9  H   UNL     1       2.663  -1.357   1.413  0.00  0.00    +0.144 HD
ATOM     10  H   UNL     1       3.214  -2.944   1.399  0.00  0.00    +0.144 HD
ENDBRANCH   5   8
BRANCH   4  11
ATOM     11  S   UNL     1       1.829  -5.474   1.399  0.00  0.00    +0.029 S 
ATOM     12  O   UNL     1       1.072  -6.544   0.850  0.00  0.00    -0.164 OA
ATOM     13  O   UNL     1       3.063  -5.048   0.839  0.00  0.00    -0.164 OA
BRANCH  11  14
ATOM     14  C   UNL     1       2.157  -5.899   3.077  0.00  0.00    +0.094 A 
ATOM     15  C   UNL     1       3.247  -5.351   3.728  0.00  0.00    +0.029 A 
ATOM     16  C   UNL     1       3.502  -5.680   5.046  0.00  0.00    +0.022 A 
ATOM     17  C   UNL     1       2.674  -6.567   5.710  0.00  0.00    +0.041 A 
ATOM     18  C   UNL     1       1.587  -7.120   5.057  0.00  0.00    +0.022 A 
ATOM     19  C   UNL     1       1.329  -6.785   3.740  0.00  0.00    +0.029 A 
ATOM     20 CL   UNL     1       2.997  -6.985   7.364  0.00  0.00    -0.084 Cl
ENDBRANCH  11  14
ENDBRANCH   4  11
BRANCH   1  21
ATOM     21  C   UNL     1       0.023  -0.522   1.442  0.00  0.00    +0.128 C 
BRANCH  21  22
ATOM     22  C   UNL     1       0.002  -0.004   0.002  0.00  0.00    +0.056 C 
BRANCH  22  27
ATOM     23  C   UNL     1      -0.076   5.774   0.033  0.00  0.00    +0.044 C 
ATOM     24  C   UNL     1      -0.056   4.267   0.025  0.00  0.00    -0.050 A 
ATOM     25  C   UNL     1       1.151   3.592   0.010  0.00  0.00    +0.003 A 
ATOM     26  C   UNL     1       1.169   2.210   0.003  0.00  0.00    +0.004 A 
ATOM     27  C   UNL     1      -0.018   1.503   0.010  0.00  0.00    -0.046 A 
ATOM     28  C   UNL     1      -1.225   2.178   0.020  0.00  0.00    +0.004 A 
ATOM     29  C   UNL     1      -1.244   3.560   0.032  0.00  0.00    +0.003 A 
ENDBRANCH  22  27
ENDBRANCH  21  22
ENDBRANCH   1  21
TORSDOF 6
