REMARK  Name = ZINC21842359
REMARK  9 active torsions:
REMARK  status: ('A' for Active; 'I' for Inactive)
REMARK    1  A    between atoms: C_1  and  O_2
REMARK    2  A    between atoms: O_2  and  C_3
REMARK    3  A    between atoms: C_3  and  C_5
REMARK    4  A    between atoms: C_5  and  C_6
REMARK    5  A    between atoms: N_13  and  C_14
REMARK    6  A    between atoms: C_14  and  C_15
REMARK    7  A    between atoms: N_17  and  C_18
REMARK    8  A    between atoms: C_18  and  C_20
REMARK    9  A    between atoms: C_18  and  C_26
REMARK                            x       y       z     vdW  Elec       q    Type
REMARK                         _______ _______ _______ _____ _____    ______ ____
ROOT
ATOM      1  C   UNL     1      -1.654  -1.630  -2.736  0.00  0.00    +0.197 C 
ATOM      2  O   UNL     1      -2.712  -1.596  -3.328  0.00  0.00    -0.278 OA
ATOM      3  N   UNL     1      -0.669  -2.446  -3.161  0.00  0.00    -0.306 N 
ATOM      4  H   UNL     1       0.290  -2.477  -2.624  0.00  0.00    +0.150 HD
ENDROOT
BRANCH   1   5
ATOM      5  C   UNL     1      -1.441  -0.760  -1.524  0.00  0.00    +0.020 C 
BRANCH   5  12
ATOM      6  C   UNL     1      -3.807  -0.655  -1.023  0.00  0.00    +0.031 C 
ATOM      7  C   UNL     1      -5.008   0.248  -0.996  0.00  0.00    +0.200 C 
ATOM      8  O   UNL     1      -6.017  -0.143  -0.450  0.00  0.00    -0.278 OA
ATOM      9  N   UNL     1      -5.009   1.466  -1.549  0.00  0.00    -0.318 N 
ATOM     10  C   UNL     1      -3.836   2.044  -2.198  0.00  0.00    +0.085 C 
ATOM     11  C   UNL     1      -2.831   0.944  -2.542  0.00  0.00    -0.058 C 
ATOM     12  N   UNL     1      -2.602   0.121  -1.343  0.00  0.00    +0.394 N 
ATOM     13  H   UNL     1      -5.948   2.037  -1.499  0.00  0.00    +0.149 HD
ATOM     14  H   UNL     1      -2.383   0.789  -0.497  0.00  0.00    -0.080 HD
BRANCH   6  15
ATOM     15  C   UNL     1      -3.637  -1.315   0.346  0.00  0.00    +0.114 C 
BRANCH  15  16
ATOM     16  C   UNL     1      -3.382  -0.256   1.387  0.00  0.00    +0.306 C 
ATOM     17  O   UNL     1      -3.241   0.897   1.053  0.00  0.00    -0.251 OA
BRANCH  16  19
ATOM     18  C   UNL     1      -3.075   0.482   3.632  0.00  0.00    +0.280 C 
ATOM     19  O   UNL     1      -3.318  -0.591   2.685  0.00  0.00    -0.468 OA
ENDBRANCH  16  19
ENDBRANCH  15  16
ENDBRANCH   6  15
ENDBRANCH   5  12
ENDBRANCH   1   5
BRANCH   3  20
ATOM     20  C   UNL     1      -0.877  -3.292  -4.339  0.00  0.00    +0.133 C 
BRANCH  20  21
ATOM     21  C   UNL     1       0.033  -4.491  -4.263  0.00  0.00    -0.023 A 
ATOM     22  C   UNL     1       1.331  -4.346  -3.811  0.00  0.00    +0.007 A 
ATOM     23  C   UNL     1       2.164  -5.447  -3.735  0.00  0.00    +0.020 A 
ATOM     24  C   UNL     1       1.701  -6.692  -4.123  0.00  0.00    +0.041 A 
ATOM     25  C   UNL     1       0.404  -6.835  -4.580  0.00  0.00    +0.020 A 
ATOM     26  C   UNL     1      -0.430  -5.735  -4.650  0.00  0.00    +0.007 A 
ATOM     27 CL   UNL     1       2.749  -8.073  -4.035  0.00  0.00    -0.084 Cl
ENDBRANCH  20  21
BRANCH  20  28
ATOM     28  C   UNL     1      -0.565  -2.504  -5.585  0.00  0.00    -0.023 A 
ATOM     29  C   UNL     1       0.513  -1.638  -5.603  0.00  0.00    +0.006 A 
ATOM     30  C   UNL     1       0.802  -0.918  -6.748  0.00  0.00    +0.000 A 
ATOM     31  C   UNL     1       0.007  -1.057  -7.870  0.00  0.00    +0.000 A 
ATOM     32  C   UNL     1      -1.074  -1.919  -7.850  0.00  0.00    +0.000 A 
ATOM     33  C   UNL     1      -1.359  -2.642  -6.708  0.00  0.00    +0.006 A 
ENDBRANCH  20  28
ENDBRANCH   3  20
TORSDOF 8
