REMARK  Name = ZINC32125172
REMARK  5 active torsions:
REMARK  status: ('A' for Active; 'I' for Inactive)
REMARK    1  A    between atoms: C_1  and  O_2
REMARK    2  A    between atoms: O_2  and  C_3
REMARK    3  A    between atoms: C_4  and  C_11
REMARK    4  A    between atoms: N_13  and  C_14
REMARK    5  A    between atoms: C_15  and  C_24
REMARK                            x       y       z     vdW  Elec       q    Type
REMARK                         _______ _______ _______ _____ _____    ______ ____
ROOT
ATOM      1  C   UNL     1       4.353  -1.687   1.453  0.00  0.00    +0.085 A 
ATOM      2  C   UNL     1       2.999  -1.642   1.746  0.00  0.00    +0.068 A 
ATOM      3  C   UNL     1       2.179  -0.684   1.016  0.00  0.00    -0.023 A 
ATOM      4  C   UNL     1       2.846   0.061   0.110  0.00  0.00    -0.004 A 
ATOM      5  S   UNL     1       4.530  -0.479   0.225  0.00  0.00    -0.077 S 
ATOM      6  C   UNL     1       2.288   1.105  -0.807  0.00  0.00    +0.043 C 
ATOM      7  C   UNL     1       1.406   2.068  -0.000  0.00  0.00    +0.005 C 
ATOM      8  C   UNL     1      -0.019   1.523   0.010  0.00  0.00    +0.001 C 
ATOM      9  C   UNL     1       0.002  -0.004   0.002  0.00  0.00    +0.005 C 
ATOM     10  C   UNL     1       0.682  -0.535   1.259  0.00  0.00    +0.037 C 
ENDROOT
BRANCH   2  11
ATOM     11  C   UNL     1       2.412  -2.526   2.757  0.00  0.00    +0.244 C 
ATOM     12  O   UNL     1       1.983  -3.619   2.435  0.00  0.00    -0.270 OA
ATOM     13  N   UNL     1       2.348  -2.130   4.044  0.00  0.00    -0.325 N 
ATOM     14  H   UNL     1       1.907  -2.794   4.802  0.00  0.00    +0.145 HD
ATOM     15  H   UNL     1       2.735  -1.143   4.335  0.00  0.00    +0.145 HD
ENDBRANCH   2  11
BRANCH   1  18
ATOM     16  C   UNL     1       6.606  -2.402   1.591  0.00  0.00    +0.252 C 
ATOM     17  O   UNL     1       6.903  -1.598   0.729  0.00  0.00    -0.270 OA
ATOM     18  N   UNL     1       5.328  -2.501   2.008  0.00  0.00    -0.275 N 
ATOM     19  H   UNL     1       5.059  -3.228   2.788  0.00  0.00    +0.156 HD
BRANCH  16  21
ATOM     20  C   UNL     1       8.972  -3.172   1.748  0.00  0.00    +0.146 A 
ATOM     21  C   UNL     1       7.643  -3.268   2.182  0.00  0.00    +0.081 A 
ATOM     22  C   UNL     1       7.305  -4.192   3.173  0.00  0.00    +0.032 A 
ATOM     23  C   UNL     1       8.280  -5.000   3.721  0.00  0.00    +0.020 A 
ATOM     24  C   UNL     1       9.594  -4.898   3.293  0.00  0.00    +0.034 A 
ATOM     25  C   UNL     1       9.941  -3.988   2.313  0.00  0.00    +0.061 A 
ATOM     26 BR   UNL     1      11.738  -3.860   1.737  0.00  0.00    -0.046 Br
ATOM     27 BR   UNL     1       7.821  -6.250   5.064  0.00  0.00    -0.050 Br
BRANCH  20  29
ATOM     28  C   UNL     1       9.701  -0.975   1.211  0.00  0.00    +0.277 C 
ATOM     29  O   UNL     1       9.311  -2.281   0.781  0.00  0.00    -0.493 OA
ENDBRANCH  20  29
ENDBRANCH  16  21
ENDBRANCH   1  18
TORSDOF 4
