REMARK  Name = ZINC01910965
REMARK  8 active torsions:
REMARK  status: ('A' for Active; 'I' for Inactive)
REMARK    1  A    between atoms: C_4  and  C_7
REMARK    2  A    between atoms: C_8  and  C_9
REMARK    3  A    between atoms: N_11  and  C_12
REMARK    4  A    between atoms: C_12  and  C_14
REMARK    5  A    between atoms: C_12  and  N_18
REMARK    6  A    between atoms: N_18  and  C_19
REMARK    7  A    between atoms: C_19  and  N_21
REMARK    8  A    between atoms: N_21  and  C_22
REMARK                            x       y       z     vdW  Elec       q    Type
REMARK                         _______ _______ _______ _____ _____    ______ ____
ROOT
ATOM      1  C   UNL     1       6.904  -5.290   0.126  0.00  0.00    +0.211 C 
ENDROOT
BRANCH   1   4
ATOM      2  C   UNL     1       6.132  -3.068   0.763  0.00  0.00    +0.238 C 
ATOM      3  O   UNL     1       7.282  -2.678   0.685  0.00  0.00    -0.271 OA
ATOM      4  N   UNL     1       5.838  -4.358   0.502  0.00  0.00    -0.290 N 
ATOM      5  H   UNL     1       4.922  -4.669   0.564  0.00  0.00    +0.151 HD
BRANCH   2   7
ATOM      6  C   UNL     1       5.360  -0.847   1.400  0.00  0.00    +0.013 C 
ATOM      7  C   UNL     1       5.066  -2.137   1.139  0.00  0.00    +0.068 C 
BRANCH   6  11
ATOM      8  C   UNL     1       2.273   1.852   2.489  0.00  0.00    +0.000 A 
ATOM      9  C   UNL     1       3.580   2.299   2.402  0.00  0.00    +0.001 A 
ATOM     10  C   UNL     1       4.589   1.428   2.049  0.00  0.00    +0.008 A 
ATOM     11  C   UNL     1       4.289   0.089   1.778  0.00  0.00    -0.025 A 
ATOM     12  C   UNL     1       2.966  -0.355   1.868  0.00  0.00    +0.008 A 
ATOM     13  C   UNL     1       1.968   0.528   2.222  0.00  0.00    +0.001 A 
ENDBRANCH   6  11
ENDBRANCH   2   7
ENDBRANCH   1   4
BRANCH   1  14
ATOM     14  C   UNL     1       6.736  -6.598   0.901  0.00  0.00    +0.225 C 
ATOM     15 CL   UNL     1       5.134  -7.327   0.509  0.00  0.00    -0.080 Cl
ATOM     16 CL   UNL     1       8.047  -7.745   0.438  0.00  0.00    -0.080 Cl
ATOM     17 CL   UNL     1       6.827  -6.264   2.671  0.00  0.00    -0.080 Cl
ENDBRANCH   1  14
BRANCH   1  18
ATOM     18  N   UNL     1       6.830  -5.562  -1.312  0.00  0.00    -0.305 N 
ATOM     19  H   UNL     1       6.137  -6.145  -1.660  0.00  0.00    +0.150 HD
BRANCH  18  20
ATOM     20  C   UNL     1       7.724  -5.001  -2.151  0.00  0.00    +0.136 C 
ATOM     21  S   UNL     1       8.946  -3.972  -1.536  0.00  0.00    -0.019 S 
BRANCH  20  22
ATOM     22  N   UNL     1       7.655  -5.251  -3.473  0.00  0.00    -0.295 N 
ATOM     23  H   UNL     1       7.014  -5.895  -3.813  0.00  0.00    +0.154 HD
BRANCH  22  24
ATOM     24  C   UNL     1       8.508  -4.583  -4.355  0.00  0.00    +0.059 A 
ATOM     25  C   UNL     1       8.718  -3.228  -4.224  0.00  0.00    +0.025 A 
ATOM     26  C   UNL     1       9.564  -2.550  -5.096  0.00  0.00    +0.003 A 
ATOM     27  C   UNL     1      10.208  -3.207  -6.101  0.00  0.00    +0.010 A 
ATOM     28  C   UNL     1      10.020  -4.588  -6.267  0.00  0.00    +0.002 A 
ATOM     29  C   UNL     1       9.165  -5.292  -5.384  0.00  0.00    +0.092 A 
ATOM     30  N   UNL     1       8.988  -6.607  -5.536  0.00  0.00    -0.253 NA
ATOM     31  C   UNL     1       9.595  -7.271  -6.489  0.00  0.00    +0.111 A 
ATOM     32  C   UNL     1      10.453  -6.642  -7.388  0.00  0.00    +0.020 A 
ATOM     33  C   UNL     1      10.670  -5.297  -7.295  0.00  0.00    +0.011 A 
ENDBRANCH  22  24
ENDBRANCH  20  22
ENDBRANCH  18  20
ENDBRANCH   1  18
TORSDOF 8
