REMARK  Name = ZINC65548751
REMARK  8 active torsions:
REMARK  status: ('A' for Active; 'I' for Inactive)
REMARK    1  A    between atoms: C_1  and  C_2
REMARK    2  A    between atoms: C_2  and  O_3
REMARK    3  A    between atoms: O_3  and  C_4
REMARK    4  A    between atoms: C_4  and  C_6
REMARK    5  A    between atoms: C_17  and  N_19
REMARK    6  A    between atoms: C_20  and  C_22
REMARK    7  A    between atoms: C_22  and  S_23
REMARK    8  A    between atoms: S_23  and  C_24
REMARK                            x       y       z     vdW  Elec       q    Type
REMARK                         _______ _______ _______ _____ _____    ______ ____
ROOT
ATOM      1  N   UNL     1       3.309  -1.259   3.800  0.00  0.00    -0.302 N 
ATOM      2  C   UNL     1       4.479  -1.550   4.402  0.00  0.00    +0.224 C 
ATOM      3  O   UNL     1       5.260  -2.313   3.873  0.00  0.00    -0.275 OA
ATOM      4  H   UNL     1       2.685  -0.649   4.222  0.00  0.00    +0.150 HD
ENDROOT
BRANCH   1  13
ATOM      5  C   UNL     1       1.516  -2.381   2.500  0.00  0.00    +0.132 C 
ATOM      6  C   UNL     1       1.449  -3.883   2.437  0.00  0.00    +0.018 C 
ATOM      7  C   UNL     1       0.165  -4.536   1.991  0.00  0.00    +0.005 C 
ATOM      8  C   UNL     1       0.271  -6.037   2.311  0.00  0.00    +0.000 C 
ATOM      9  C   UNL     1       1.499  -6.654   1.649  0.00  0.00    +0.001 C 
ATOM     10  C   UNL     1       2.785  -5.915   2.047  0.00  0.00    +0.014 C 
ATOM     11  C   UNL     1       2.615  -4.461   1.591  0.00  0.00    +0.052 C 
ATOM     12  S   UNL     1       3.969  -3.398   2.238  0.00  0.00    -0.134 S 
ATOM     13  C   UNL     1       2.980  -1.865   2.507  0.00  0.00    +0.145 C 
BRANCH   5  14
ATOM     14  C   UNL     1       0.801  -1.808   1.304  0.00  0.00    +0.313 C 
ATOM     15  O   UNL     1       0.324  -2.546   0.475  0.00  0.00    -0.250 OA
BRANCH  14  16
ATOM     16  O   UNL     1       0.693  -0.477   1.160  0.00  0.00    -0.465 OA
BRANCH  16  18
ATOM     17  C   UNL     1      -0.019   1.526   0.010  0.00  0.00    +0.048 C 
ATOM     18  C   UNL     1       0.002  -0.004   0.002  0.00  0.00    +0.229 C 
ENDBRANCH  16  18
ENDBRANCH  14  16
ENDBRANCH   5  14
ENDBRANCH   1  13
BRANCH   2  19
ATOM     19  C   UNL     1       4.818  -0.927   5.731  0.00  0.00    +0.168 C 
BRANCH  19  20
ATOM     20  S   UNL     1       6.447  -1.511   6.276  0.00  0.00    -0.106 S 
BRANCH  20  21
ATOM     21  C   UNL     1       6.702  -0.680   7.868  0.00  0.00    +0.236 C 
ATOM     22  N   UNL     1       6.603   0.775   7.698  0.00  0.00    -0.355 N 
ATOM     23  C   UNL     1       5.618   1.189   8.441  0.00  0.00    +0.061 A 
ATOM     24  C   UNL     1       5.042   2.519   8.688  0.00  0.00    +0.027 A 
ATOM     25  C   UNL     1       3.997   2.645   9.530  0.00  0.00    +0.002 A 
ATOM     26  C   UNL     1       3.422   1.548  10.195  0.00  0.00    +0.002 A 
ATOM     27  C   UNL     1       3.873   0.287  10.041  0.00  0.00    +0.027 A 
ATOM     28  C   UNL     1       5.009   0.028   9.145  0.00  0.00    +0.061 A 
ATOM     29  N   UNL     1       5.641  -1.060   8.810  0.00  0.00    -0.355 N 
ATOM     30  H   UNL     1       7.169   1.327   7.136  0.00  0.00    +0.162 HD
ATOM     31  H   UNL     1       5.447  -1.957   9.124  0.00  0.00    +0.162 HD
ENDBRANCH  20  21
ENDBRANCH  19  20
ENDBRANCH   2  19
TORSDOF 7
