REMARK  Name = ZINC38028575
REMARK  9 active torsions:
REMARK  status: ('A' for Active; 'I' for Inactive)
REMARK    1  A    between atoms: C_1  and  C_2
REMARK    2  A    between atoms: C_2  and  C_3
REMARK    3  A    between atoms: C_3  and  C_5
REMARK    4  A    between atoms: C_3  and  N_13
REMARK    5  A    between atoms: C_10  and  O_11
REMARK    6  A    between atoms: N_13  and  C_14
REMARK    7  A    between atoms: C_14  and  C_15
REMARK    8  A    between atoms: C_15  and  C_17
REMARK    9  A    between atoms: C_15  and  N_18
REMARK                            x       y       z     vdW  Elec       q    Type
REMARK                         _______ _______ _______ _____ _____    ______ ____
ROOT
ATOM      1  N   UNL     1      -2.610  -0.153  -1.133  0.00  0.00    +0.383 N 
ATOM      2  H   UNL     1      -2.227  -0.609  -1.948  0.00  0.00    -0.085 HD
ATOM      3  H   UNL     1      -3.617  -0.213  -1.156  0.00  0.00    -0.085 HD
ENDROOT
BRANCH   1   4
ATOM      4  C   UNL     1      -2.108  -0.814   0.079  0.00  0.00    -0.038 C 
BRANCH   4   5
ATOM      5  C   UNL     1      -2.787  -0.226   1.289  0.00  0.00    -0.019 A 
ATOM      6  C   UNL     1      -4.032   0.359   1.167  0.00  0.00    +0.020 A 
ATOM      7  C   UNL     1      -4.655   0.899   2.278  0.00  0.00    +0.018 A 
ATOM      8  C   UNL     1      -4.033   0.855   3.513  0.00  0.00    +0.019 A 
ATOM      9  C   UNL     1      -2.788   0.270   3.639  0.00  0.00    +0.047 A 
ATOM     10  C   UNL     1      -2.164  -0.277   2.528  0.00  0.00    +0.119 A 
ATOM     11 BR   UNL     1      -6.360   1.700   2.108  0.00  0.00    -0.050 Br
BRANCH  10  12
ATOM     12  O   UNL     1      -0.941  -0.857   2.651  0.00  0.00    -0.507 OA
ATOM     13  H   UNL     1      -0.201  -0.246   2.524  0.00  0.00    +0.292 HD
ENDBRANCH  10  12
ENDBRANCH   4   5
BRANCH   4  15
ATOM     14  C   UNL     1      -1.605  -2.937  -1.139  0.00  0.00    +0.002 C 
ATOM     15  C   UNL     1      -2.408  -2.312   0.004  0.00  0.00    -0.015 C 
ENDBRANCH   4  15
ENDBRANCH   1   4
BRANCH   1  16
ATOM     16  C   UNL     1      -2.203   1.258  -1.125  0.00  0.00    -0.098 C 
BRANCH  16  17
ATOM     17  C   UNL     1      -2.648   1.924  -2.429  0.00  0.00    -0.089 C 
ATOM     18  C   UNL     1      -2.142   3.368  -2.463  0.00  0.00    -0.015 C 
BRANCH  17  19
ATOM     19  N   UNL     1      -2.094   1.185  -3.571  0.00  0.00    +0.380 N 
ATOM     20  C   UNL     1      -0.630   1.297  -3.561  0.00  0.00    -0.079 C 
ATOM     21  C   UNL     1      -0.043   0.461  -4.700  0.00  0.00    -0.019 C 
ATOM     22  C   UNL     1      -0.587   0.977  -6.036  0.00  0.00    -0.004 C 
ATOM     23  C   UNL     1      -2.117   0.925  -6.007  0.00  0.00    -0.019 C 
ATOM     24  C   UNL     1      -2.627   1.743  -4.819  0.00  0.00    -0.079 C 
ATOM     25  H   UNL     1      -2.355   0.213  -3.499  0.00  0.00    -0.082 HD
ENDBRANCH  17  19
ENDBRANCH  16  17
ENDBRANCH   1  16
TORSDOF 7
