REMARK  Name = ZINC25170231
REMARK  7 active torsions:
REMARK  status: ('A' for Active; 'I' for Inactive)
REMARK    1  A    between atoms: C_1  and  C_2
REMARK    2  A    between atoms: C_9  and  C_19
REMARK    3  A    between atoms: C_12  and  C_13
REMARK    4  A    between atoms: N_21  and  C_22
REMARK    5  A    between atoms: C_22  and  C_28
REMARK    6  A    between atoms: C_28  and  O_30
REMARK    7  A    between atoms: O_30  and  C_31
REMARK                            x       y       z     vdW  Elec       q    Type
REMARK                         _______ _______ _______ _____ _____    ______ ____
ROOT
ATOM      1  C   UNL     1       3.700   2.196   0.058  0.00  0.00    +0.051 C 
ATOM      2  C   UNL     1       2.402   1.430   0.025  0.00  0.00    +0.040 A 
ATOM      3  C   UNL     1       1.177   2.091   0.279  0.00  0.00    +0.196 A 
ATOM      4  O   UNL     1       1.140   3.284   0.528  0.00  0.00    -0.287 OA
ATOM      5  C   UNL     1      -0.054   1.278   0.231  0.00  0.00    +0.065 A 
ATOM      6  C   UNL     1      -1.305   1.843   0.474  0.00  0.00    +0.015 A 
ATOM      7  C   UNL     1      -2.438   1.057   0.415  0.00  0.00    +0.002 A 
ATOM      8  C   UNL     1      -2.342  -0.292   0.129  0.00  0.00    +0.017 A 
ATOM      9  C   UNL     1      -1.100  -0.878  -0.112  0.00  0.00    +0.080 A 
ATOM     10  C   UNL     1       0.059  -0.089  -0.062  0.00  0.00    +0.151 A 
ATOM     11  O   UNL     1       1.272  -0.628  -0.290  0.00  0.00    -0.454 OA
ATOM     12  C   UNL     1       2.400   0.098  -0.249  0.00  0.00    +0.142 A 
ENDROOT
BRANCH  12  13
ATOM     13  C   UNL     1       3.688  -0.575  -0.512  0.00  0.00    +0.018 A 
ATOM     14  C   UNL     1       4.559  -0.069  -1.479  0.00  0.00    +0.011 A 
ATOM     15  C   UNL     1       5.763  -0.700  -1.716  0.00  0.00    +0.001 A 
ATOM     16  C   UNL     1       6.103  -1.838  -1.006  0.00  0.00    +0.000 A 
ATOM     17  C   UNL     1       5.242  -2.348  -0.050  0.00  0.00    +0.001 A 
ATOM     18  C   UNL     1       4.037  -1.724   0.201  0.00  0.00    +0.011 A 
ENDBRANCH  12  13
BRANCH   9  19
ATOM     19  C   UNL     1      -1.005  -2.318  -0.417  0.00  0.00    +0.248 C 
ATOM     20  O   UNL     1       0.080  -2.825  -0.626  0.00  0.00    -0.270 OA
ATOM     21  N   UNL     1      -2.122  -3.072  -0.464  0.00  0.00    -0.296 N 
ATOM     22  H   UNL     1      -3.103  -2.614  -0.275  0.00  0.00    +0.150 HD
BRANCH  21  23
ATOM     23  C   UNL     1      -2.027  -4.503  -0.767  0.00  0.00    +0.132 C 
ATOM     24  C   UNL     1      -1.396  -4.691  -2.147  0.00  0.00    +0.037 C 
ATOM     25  C   UNL     1      -2.263  -4.002  -3.203  0.00  0.00    +0.003 C 
ATOM     26  C   UNL     1      -3.663  -4.618  -3.195  0.00  0.00    +0.000 C 
ATOM     27  C   UNL     1      -4.295  -4.430  -1.814  0.00  0.00    +0.003 C 
ATOM     28  C   UNL     1      -3.428  -5.119  -0.758  0.00  0.00    +0.037 C 
BRANCH  23  29
ATOM     29  C   UNL     1      -1.173  -5.181   0.273  0.00  0.00    +0.331 C 
ATOM     30  O   UNL     1      -1.433  -6.307   0.627  0.00  0.00    -0.248 OA
BRANCH  29  31
ATOM     31  O   UNL     1      -0.125  -4.535   0.807  0.00  0.00    -0.466 OA
ATOM     32  C   UNL     1       0.653  -5.250   1.802  0.00  0.00    +0.280 C 
ENDBRANCH  29  31
ENDBRANCH  23  29
ENDBRANCH  21  23
ENDBRANCH   9  19
TORSDOF 5
