REMARK  Name = ZINC34830136
REMARK  6 active torsions:
REMARK  status: ('A' for Active; 'I' for Inactive)
REMARK    1  A    between atoms: C_1  and  C_2
REMARK    2  A    between atoms: C_2  and  C_4
REMARK    3  A    between atoms: C_2  and  N_23
REMARK    4  A    between atoms: C_12  and  C_14
REMARK    5  A    between atoms: C_18  and  N_20
REMARK    6  A    between atoms: C_31  and  C_33
REMARK                            x       y       z     vdW  Elec       q    Type
REMARK                         _______ _______ _______ _____ _____    ______ ____
ROOT
ATOM      1  C   UNL     1       1.311  -0.806   2.054  0.00  0.00    +0.202 C 
ATOM      2  O   UNL     1       0.949  -1.176   3.151  0.00  0.00    -0.277 OA
ATOM      3  N   UNL     1       2.622  -0.624   1.803  0.00  0.00    -0.300 N 
ATOM      4  C   UNL     1       3.084  -0.279   0.451  0.00  0.00    +0.126 C 
ATOM      5  C   UNL     1       3.909   1.011   0.529  0.00  0.00    +0.127 C 
ATOM      6  N   UNL     1       4.903   0.869   1.602  0.00  0.00    -0.295 N 
ATOM      7  C   UNL     1       4.441   0.524   2.954  0.00  0.00    +0.127 C 
ATOM      8  C   UNL     1       3.616  -0.761   2.877  0.00  0.00    +0.126 C 
ATOM      9  C   UNL     1       6.214   1.051   1.350  0.00  0.00    +0.247 C 
ATOM     10  O   UNL     1       7.037   0.819   2.215  0.00  0.00    -0.270 OA
ENDROOT
BRANCH   9  11
ATOM     11  C   UNL     1       6.653   1.532   0.023  0.00  0.00    +0.039 A 
ATOM     12  C   UNL     1       5.894   2.482  -0.664  0.00  0.00    +0.013 A 
ATOM     13  C   UNL     1       6.309   2.928  -1.902  0.00  0.00    +0.003 A 
ATOM     14  C   UNL     1       7.474   2.434  -2.463  0.00  0.00    +0.033 A 
ATOM     15  C   UNL     1       8.230   1.492  -1.788  0.00  0.00    +0.127 A 
ATOM     16  C   UNL     1       7.829   1.043  -0.546  0.00  0.00    +0.045 A 
BRANCH  15  17
ATOM     17  N   UNL     1       9.474   0.970  -2.397  0.00  0.00    +0.056 N 
ATOM     18  O   UNL     1       9.829   1.367  -3.482  0.00  0.00    -0.126 OA
ATOM     19  O   UNL     1      10.135   0.147  -1.808  0.00  0.00    -0.126 OA
ENDBRANCH  15  17
ENDBRANCH   9  11
BRANCH   1  21
ATOM     20  C   UNL     1       0.123   0.958   0.779  0.00  0.00    -0.004 C 
ATOM     21  C   UNL     1       0.293  -0.550   0.972  0.00  0.00    +0.018 C 
BRANCH  21  22
ATOM     22  N   UNL     1      -0.994  -1.142   1.360  0.00  0.00    +0.395 N 
ATOM     23  C   UNL     1      -1.518  -0.431   2.534  0.00  0.00    -0.071 C 
ATOM     24  C   UNL     1      -2.676  -1.248   3.134  0.00  0.00    +0.024 C 
ATOM     25  C   UNL     1      -3.576  -1.645   2.009  0.00  0.00    -0.010 A 
ATOM     26  C   UNL     1      -3.290  -1.571   0.679  0.00  0.00    -0.047 A 
ATOM     27  C   UNL     1      -4.288  -1.994  -0.196  0.00  0.00    +0.010 A 
ATOM     28  C   UNL     1      -5.466  -2.450   0.290  0.00  0.00    +0.045 A 
ATOM     29  S   UNL     1      -5.219  -2.302   2.054  0.00  0.00    -0.101 S 
ATOM     30  C   UNL     1      -1.929  -1.048   0.232  0.00  0.00    -0.005 C 
ATOM     31  H   UNL     1      -0.855  -2.113   1.596  0.00  0.00    -0.079 HD
BRANCH  30  32
ATOM     32  C   UNL     1      -1.419  -1.879  -0.917  0.00  0.00    -0.057 A 
ATOM     33  C   UNL     1      -0.947  -3.158  -0.689  0.00  0.00    +0.002 A 
ATOM     34  C   UNL     1      -0.479  -3.920  -1.743  0.00  0.00    +0.000 A 
ATOM     35  C   UNL     1      -0.485  -3.404  -3.025  0.00  0.00    +0.000 A 
ATOM     36  C   UNL     1      -0.959  -2.126  -3.253  0.00  0.00    +0.000 A 
ATOM     37  C   UNL     1      -1.430  -1.365  -2.200  0.00  0.00    +0.002 A 
ENDBRANCH  30  32
ENDBRANCH  21  22
ENDBRANCH   1  21
TORSDOF 5
