REMARK  Name = ZINC20620488
REMARK  5 active torsions:
REMARK  status: ('A' for Active; 'I' for Inactive)
REMARK    1  A    between atoms: C_1  and  C_2
REMARK    2  A    between atoms: C_5  and  S_8
REMARK    3  A    between atoms: S_8  and  C_11
REMARK    4  A    between atoms: C_11  and  C_23
REMARK    5  A    between atoms: C_12  and  C_13
REMARK                            x       y       z     vdW  Elec       q    Type
REMARK                         _______ _______ _______ _____ _____    ______ ____
ROOT
ATOM      1  C   UNL     1      -1.011   2.004  -1.339  0.00  0.00    +0.170 C 
ATOM      2  C   UNL     1      -0.467   2.857  -2.233  0.00  0.00    +0.046 C 
ENDROOT
BRANCH   2   3
ATOM      3  C   UNL     1      -1.196   3.194  -3.465  0.00  0.00    -0.017 A 
ATOM      4  C   UNL     1      -2.049   2.255  -4.055  0.00  0.00    +0.057 A 
ATOM      5  C   UNL     1      -2.736   2.578  -5.208  0.00  0.00    +0.168 A 
ATOM      6  C   UNL     1      -2.570   3.835  -5.791  0.00  0.00    +0.184 A 
ATOM      7  C   UNL     1      -1.718   4.766  -5.208  0.00  0.00    +0.087 A 
ATOM      8  C   UNL     1      -1.034   4.452  -4.053  0.00  0.00    +0.032 A 
ATOM      9 CL   UNL     1      -1.516   6.328  -5.937  0.00  0.00    -0.080 Cl
ATOM     10  O   UNL     1      -3.345   3.901  -6.912  0.00  0.00    -0.451 OA
ATOM     11  C   UNL     1      -4.297   2.829  -6.785  0.00  0.00    +0.466 C 
ATOM     12  O   UNL     1      -3.616   1.860  -5.966  0.00  0.00    -0.453 OA
ENDBRANCH   2   3
BRANCH   1  13
ATOM     13  S   UNL     1      -0.065   1.454   0.042  0.00  0.00    +0.035 S 
ATOM     14  O   UNL     1      -0.200   0.040   0.089  0.00  0.00    -0.164 OA
ATOM     15  O   UNL     1       1.200   2.095  -0.050  0.00  0.00    -0.164 OA
BRANCH  13  20
ATOM     16  C   UNL     1      -2.733   3.609   5.006  0.00  0.00    +0.044 C 
ATOM     17  C   UNL     1      -2.066   3.070   3.766  0.00  0.00    -0.050 A 
ATOM     18  C   UNL     1      -2.434   1.836   3.264  0.00  0.00    +0.005 A 
ATOM     19  C   UNL     1      -1.823   1.342   2.127  0.00  0.00    +0.027 A 
ATOM     20  C   UNL     1      -0.844   2.083   1.492  0.00  0.00    +0.094 A 
ATOM     21  C   UNL     1      -0.473   3.315   1.996  0.00  0.00    +0.027 A 
ATOM     22  C   UNL     1      -1.087   3.811   3.131  0.00  0.00    +0.005 A 
ENDBRANCH  13  20
ENDBRANCH   1  13
BRANCH   1  23
ATOM     23  C   UNL     1      -2.357   1.547  -1.513  0.00  0.00    +0.119 C 
ATOM     24  N   UNL     1      -3.424   1.184  -1.651  0.00  0.00    -0.189 NA
ENDBRANCH   1  23
TORSDOF 4
