REMARK  Name = ZINC63362037
REMARK  5 active torsions:
REMARK  status: ('A' for Active; 'I' for Inactive)
REMARK    1  A    between atoms: C_1  and  C_2
REMARK    2  A    between atoms: C_9  and  N_17
REMARK    3  A    between atoms: N_17  and  C_18
REMARK    4  A    between atoms: C_18  and  C_19
REMARK    5  A    between atoms: C_31  and  C_38
REMARK                            x       y       z     vdW  Elec       q    Type
REMARK                         _______ _______ _______ _____ _____    ______ ____
ROOT
ATOM      1  N   UNL     1      -0.837  -6.654   1.458  0.00  0.00    -0.310 NA
ATOM      2  H   UNL     1      -0.383  -6.657   0.557  0.00  0.00    +0.122 HD
ENDROOT
BRANCH   1  10
ATOM      3  C   UNL     1      -0.018   1.503   0.010  0.00  0.00    +0.044 C 
ATOM      4  C   UNL     1       0.002  -0.004   0.002  0.00  0.00    -0.050 A 
ATOM      5  C   UNL     1       0.005  -0.680  -1.226  0.00  0.00    +0.005 A 
ATOM      6  C   UNL     1       0.027  -2.026  -1.316  0.00  0.00    +0.026 A 
ATOM      7  C   UNL     1       0.047  -2.826  -0.142  0.00  0.00    +0.043 A 
ATOM      8  N   UNL     1       0.047  -4.130   0.027  0.00  0.00    -0.376 N 
ATOM      9  C   UNL     1       0.155  -4.412   1.456  0.00  0.00    +0.123 C 
ATOM     10  C   UNL     1      -0.996  -5.284   1.964  0.00  0.00    +0.080 C 
ATOM     11  C   UNL     1      -0.963  -5.289   3.495  0.00  0.00    +0.021 C 
ATOM     12  C   UNL     1      -1.249  -3.897   4.058  0.00  0.00    +0.006 C 
ATOM     13  C   UNL     1      -0.137  -2.922   3.636  0.00  0.00    +0.033 C 
ATOM     14  C   UNL     1       0.045  -3.061   2.143  0.00  0.00    -0.037 C 
ATOM     15  C   UNL     1       0.036  -2.137   1.172  0.00  0.00    -0.001 A 
ATOM     16  C   UNL     1       0.022  -0.668   1.179  0.00  0.00    +0.013 A 
ATOM     17  H   UNL     1      -0.015  -4.793  -0.678  0.00  0.00    +0.160 HD
ENDBRANCH   1  10
BRANCH   1  18
ATOM     18  C   UNL     1      -2.131  -7.346   1.398  0.00  0.00    +0.096 C 
BRANCH  18  19
ATOM     19  C   UNL     1      -1.925  -8.767   0.869  0.00  0.00    +0.118 C 
ATOM     20  C   UNL     1      -3.292  -9.501   0.724  0.00  0.00    +0.045 C 
ATOM     21  C   UNL     1      -3.162 -10.426  -0.488  0.00  0.00    +0.016 C 
ATOM     22  C   UNL     1      -4.235 -11.510  -0.451  0.00  0.00    +0.021 C 
ATOM     23  C   UNL     1      -4.125 -12.392  -1.672  0.00  0.00    -0.073 C 
ATOM     24  C   UNL     1      -3.339 -12.069  -2.669  0.00  0.00    +0.008 C 
ATOM     25  C   UNL     1      -4.949 -13.662  -1.711  0.00  0.00    +0.030 C 
ATOM     26  C   UNL     1      -4.703 -14.446  -0.418  0.00  0.00    +0.005 C 
ATOM     27  C   UNL     1      -4.979 -13.546   0.789  0.00  0.00    +0.007 C 
ATOM     28  C   UNL     1      -4.004 -12.368   0.802  0.00  0.00    -0.022 C 
ATOM     29  C   UNL     1      -4.239 -11.483   2.025  0.00  0.00    +0.052 C 
ATOM     30  C   UNL     1      -3.302 -10.292   2.046  0.00  0.00    +0.181 C 
ATOM     31  O   UNL     1      -1.931 -10.670   2.227  0.00  0.00    -0.461 OA
ATOM     32  C   UNL     1      -1.165  -9.608   1.879  0.00  0.00    +0.312 C 
ATOM     33  O   UNL     1      -0.060  -9.367   2.302  0.00  0.00    -0.250 OA
ATOM     34  C   UNL     1      -2.570 -12.901   0.803  0.00  0.00    +0.012 C 
ENDBRANCH  18  19
ENDBRANCH   1  18
TORSDOF 3
