REMARK  Name = ZINC61591311
REMARK  3 active torsions:
REMARK  status: ('A' for Active; 'I' for Inactive)
REMARK    1  A    between atoms: C_1  and  C_2
REMARK    2  A    between atoms: C_2  and  C_4
REMARK    3  A    between atoms: C_2  and  N_11
REMARK                            x       y       z     vdW  Elec       q    Type
REMARK                         _______ _______ _______ _____ _____    ______ ____
ROOT
ATOM      1  C   UNL     1      -1.226   0.905   0.082  0.00  0.00    +0.036 C 
ATOM      2  C   UNL     1       0.002  -0.004   0.002  0.00  0.00    +0.121 C 
ENDROOT
BRANCH   2   3
ATOM      3  N   UNL     1       0.598  -0.138   1.334  0.00  0.00    -0.265 N 
ATOM      4  C   UNL     1       0.868   0.879   2.172  0.00  0.00    +0.344 A 
ATOM      5  O   UNL     1       0.661   2.057   1.953  0.00  0.00    -0.245 OA
ATOM      6  N   UNL     1       1.409   0.369   3.298  0.00  0.00    -0.249 N 
ATOM      7  H   UNL     1       1.701   0.870   4.075  0.00  0.00    +0.191 HD
ATOM      8  N   UNL     1       1.468  -1.023   3.132  0.00  0.00    -0.275 N 
ATOM      9  C   UNL     1       0.956  -1.298   1.915  0.00  0.00    +0.177 A 
ATOM     10  S   UNL     1       0.794  -2.856   1.225  0.00  0.00    -0.011 S 
ATOM     11  H   UNL     1       1.809  -1.666   3.773  0.00  0.00    +0.189 HD
ENDBRANCH   2   3
BRANCH   2  12
ATOM     12  C   UNL     1       1.012   0.597  -0.942  0.00  0.00    -0.024 A 
ATOM     13  C   UNL     1       1.996   1.437  -0.457  0.00  0.00    +0.006 A 
ATOM     14  C   UNL     1       2.922   1.989  -1.323  0.00  0.00    +0.001 A 
ATOM     15  C   UNL     1       2.865   1.700  -2.673  0.00  0.00    +0.015 A 
ATOM     16  C   UNL     1       1.880   0.858  -3.158  0.00  0.00    +0.018 A 
ATOM     17  C   UNL     1       0.956   0.302  -2.291  0.00  0.00    +0.021 A 
ATOM     18 BR   UNL     1       1.800   0.463  -5.006  0.00  0.00    -0.050 Br
ENDBRANCH   2  12
TORSDOF 2
