REMARK  Name = ZINC49994252
REMARK  10 active torsions:
REMARK  status: ('A' for Active; 'I' for Inactive)
REMARK    1  A    between atoms: C_1  and  C_2
REMARK    2  A    between atoms: C_2  and  C_3
REMARK    3  A    between atoms: C_7  and  C_29
REMARK    4  A    between atoms: C_8  and  N_9
REMARK    5  A    between atoms: N_9  and  C_10
REMARK    6  A    between atoms: C_10  and  N_12
REMARK    7  A    between atoms: N_12  and  N_13
REMARK    8  A    between atoms: C_14  and  C_16
REMARK    9  A    between atoms: C_22  and  O_27
REMARK   10  A    between atoms: O_27  and  C_28
REMARK                            x       y       z     vdW  Elec       q    Type
REMARK                         _______ _______ _______ _____ _____    ______ ____
ROOT
ATOM      1  N   UNL     1      -1.562  -0.162  -5.307  0.00  0.00    -0.235 N 
ATOM      2  C   UNL     1      -1.262  -0.006  -6.612  0.00  0.00    +0.236 C 
ATOM      3  O   UNL     1      -2.011  -0.439  -7.462  0.00  0.00    -0.274 OA
ATOM      4  H   UNL     1      -0.963   0.184  -4.627  0.00  0.00    +0.173 HD
ENDROOT
BRANCH   2   5
ATOM      5  C   UNL     1       0.004   0.706  -7.014  0.00  0.00    +0.118 C 
ATOM      6  C   UNL     1       0.115   0.736  -8.540  0.00  0.00    +0.055 C 
ATOM      7  C   UNL     1       1.501   1.176  -8.940  0.00  0.00    -0.005 A 
ATOM      8  C   UNL     1       1.709   1.631 -10.232  0.00  0.00    +0.011 A 
ATOM      9  C   UNL     1       2.964   2.038 -10.635  0.00  0.00    +0.046 A 
ATOM     10  C   UNL     1       4.027   1.993  -9.743  0.00  0.00    +0.124 A 
ATOM     11  C   UNL     1       3.823   1.540  -8.451  0.00  0.00    +0.091 A 
ATOM     12  C   UNL     1       2.557   1.132  -8.045  0.00  0.00    +0.127 A 
ATOM     13  O   UNL     1       2.394   0.705  -6.766  0.00  0.00    -0.491 OA
ATOM     14  C   UNL     1       1.219  -0.046  -6.457  0.00  0.00    +0.242 C 
BRANCH  10  15
ATOM     15  O   UNL     1       5.265   2.391 -10.138  0.00  0.00    -0.495 OA
ATOM     16  C   UNL     1       5.401   2.846 -11.486  0.00  0.00    +0.277 C 
ENDBRANCH  10  15
ENDBRANCH   2   5
BRANCH   1  17
ATOM     17  N   UNL     1      -2.739  -0.823  -4.933  0.00  0.00    -0.246 N 
ATOM     18  H   UNL     1      -3.338  -1.169  -5.613  0.00  0.00    +0.172 HD
BRANCH  17  19
ATOM     19  C   UNL     1      -3.039  -0.979  -3.628  0.00  0.00    +0.151 C 
ATOM     20  S   UNL     1      -4.477  -1.787  -3.171  0.00  0.00    -0.017 S 
BRANCH  19  21
ATOM     21  N   UNL     1      -2.207  -0.498  -2.683  0.00  0.00    -0.295 N 
ATOM     22  H   UNL     1      -1.428   0.019  -2.941  0.00  0.00    +0.154 HD
BRANCH  21  28
ATOM     23  C   UNL     1      -2.981   0.263  -0.526  0.00  0.00    -0.026 A 
ATOM     24  C   UNL     1      -3.242   0.015   0.807  0.00  0.00    +0.005 A 
ATOM     25  C   UNL     1      -2.985  -1.234   1.342  0.00  0.00    +0.001 A 
ATOM     26  C   UNL     1      -2.467  -2.238   0.545  0.00  0.00    +0.005 A 
ATOM     27  C   UNL     1      -2.204  -1.996  -0.789  0.00  0.00    -0.029 A 
ATOM     28  C   UNL     1      -2.466  -0.745  -1.331  0.00  0.00    +0.039 A 
ATOM     29  C   UNL     1      -1.638  -3.091  -1.657  0.00  0.00    +0.045 C 
BRANCH  23  31
ATOM     30  C   UNL     1      -4.650   1.629  -1.750  0.00  0.00    +0.009 C 
ATOM     31  C   UNL     1      -3.261   1.625  -1.108  0.00  0.00    +0.033 C 
ENDBRANCH  23  31
ENDBRANCH  21  28
ENDBRANCH  19  21
ENDBRANCH  17  19
ENDBRANCH   1  17
TORSDOF 7
