REMARK  Name = ZINC39673936
REMARK  9 active torsions:
REMARK  status: ('A' for Active; 'I' for Inactive)
REMARK    1  A    between atoms: C_1  and  C_2
REMARK    2  A    between atoms: C_2  and  C_3
REMARK    3  A    between atoms: C_3  and  C_4
REMARK    4  A    between atoms: C_4  and  C_5
REMARK    5  A    between atoms: C_9  and  C_18
REMARK    6  A    between atoms: N_20  and  C_21
REMARK    7  A    between atoms: C_21  and  C_22
REMARK    8  A    between atoms: C_22  and  C_23
REMARK    9  A    between atoms: C_31  and  C_33
REMARK                            x       y       z     vdW  Elec       q    Type
REMARK                         _______ _______ _______ _____ _____    ______ ____
ROOT
ATOM      1  C   UNL     1       1.554  -2.530  -2.627  0.00  0.00    +0.216 C 
ATOM      2  O   UNL     1       1.958  -1.756  -3.469  0.00  0.00    -0.276 OA
ATOM      3  N   UNL     1       1.645  -3.859  -2.835  0.00  0.00    -0.300 N 
ATOM      4  C   UNL     1       1.204  -4.951  -1.935  0.00  0.00    +0.121 C 
ATOM      5  C   UNL     1       0.600  -6.015  -2.880  0.00  0.00    +0.100 C 
ATOM      6  C   UNL     1       1.264  -5.753  -4.242  0.00  0.00    -0.004 C 
ATOM      7  C   UNL     1       2.202  -4.558  -4.017  0.00  0.00    +0.115 C 
ATOM      8  C   UNL     1       0.209  -5.399  -5.285  0.00  0.00    -0.010 C 
ATOM      9  C   UNL     1       0.888  -5.199  -6.643  0.00  0.00    -0.082 C 
ATOM     10  N   UNL     1       1.590  -6.429  -7.027  0.00  0.00    +0.379 N 
ATOM     11  C   UNL     1       2.665  -6.712  -6.067  0.00  0.00    -0.082 C 
ATOM     12  C   UNL     1       2.061  -6.976  -4.685  0.00  0.00    -0.010 C 
ATOM     13  H   UNL     1       0.938  -7.199  -7.035  0.00  0.00    -0.086 HD
ATOM     14  H   UNL     1       1.985  -6.316  -7.948  0.00  0.00    -0.086 HD
ENDROOT
BRANCH   5  15
ATOM     15  C   UNL     1       0.931  -7.401  -2.389  0.00  0.00    +0.218 C 
ATOM     16  O   UNL     1       1.964  -7.599  -1.785  0.00  0.00    -0.275 OA
ATOM     17  N   UNL     1       0.081  -8.420  -2.622  0.00  0.00    -0.315 N 
ATOM     18  H   UNL     1      -0.745  -8.261  -3.106  0.00  0.00    +0.149 HD
BRANCH  17  19
ATOM     19  C   UNL     1       0.403  -9.767  -2.146  0.00  0.00    +0.109 C 
BRANCH  19  20
ATOM     20  C   UNL     1      -0.719 -10.729  -2.539  0.00  0.00    +0.056 C 
BRANCH  20  21
ATOM     21  C   UNL     1      -0.387 -12.115  -2.048  0.00  0.00    -0.018 A 
ATOM     22  C   UNL     1      -0.747 -12.689  -0.749  0.00  0.00    +0.003 A 
ATOM     23  C   UNL     1      -1.442 -12.212   0.364  0.00  0.00    +0.010 A 
ATOM     24  C   UNL     1      -1.613 -13.018   1.453  0.00  0.00    +0.001 A 
ATOM     25  C   UNL     1      -1.101 -14.308   1.463  0.00  0.00    +0.002 A 
ATOM     26  C   UNL     1      -0.412 -14.799   0.376  0.00  0.00    +0.026 A 
ATOM     27  C   UNL     1      -0.226 -13.996  -0.744  0.00  0.00    +0.047 A 
ATOM     28  N   UNL     1       0.399 -14.188  -1.956  0.00  0.00    -0.358 N 
ATOM     29  C   UNL     1       0.288 -13.060  -2.721  0.00  0.00    +0.017 A 
ATOM     30  H   UNL     1       0.849 -15.004  -2.228  0.00  0.00    +0.166 HD
ATOM     31  C   UNL     1       0.845 -12.900  -4.112  0.00  0.00    +0.063 C 
ENDBRANCH  20  21
ENDBRANCH  19  20
ENDBRANCH  17  19
ENDBRANCH   5  15
BRANCH   1  32
ATOM     32  C   UNL     1       0.950  -2.007  -1.350  0.00  0.00    +0.096 C 
BRANCH  32  33
ATOM     33  C   UNL     1       0.967  -0.477  -1.367  0.00  0.00    +0.009 C 
BRANCH  33  35
ATOM     34  C   UNL     1       0.371   1.584  -0.087  0.00  0.00    +0.004 C 
ATOM     35  C   UNL     1       0.354   0.054  -0.070  0.00  0.00    -0.003 C 
ENDBRANCH  33  35
ENDBRANCH  32  33
ENDBRANCH   1  32
TORSDOF 7
