REMARK  Name = ZINC08432764
REMARK  5 active torsions:
REMARK  status: ('A' for Active; 'I' for Inactive)
REMARK    1  A    between atoms: C_1  and  O_2
REMARK    2  A    between atoms: O_2  and  C_3
REMARK    3  A    between atoms: C_4  and  C_11
REMARK    4  A    between atoms: N_12  and  N_13
REMARK    5  A    between atoms: C_16  and  C_19
REMARK                            x       y       z     vdW  Elec       q    Type
REMARK                         _______ _______ _______ _____ _____    ______ ____
ROOT
ATOM      1  N   UNL     1      -3.864  -2.324   0.006  0.00  0.00    -0.215 N 
ATOM      2  C   UNL     1      -3.650  -0.957   0.013  0.00  0.00    +0.178 A 
ATOM      3  N   UNL     1      -2.509  -0.290   0.011  0.00  0.00    -0.223 NA
ATOM      4  C   UNL     1      -2.487   1.035   0.019  0.00  0.00    +0.087 A 
ATOM      5  C   UNL     1      -3.669   1.725   0.033  0.00  0.00    +0.077 A 
ATOM      6  S   UNL     1      -4.842   0.375   0.025  0.00  0.00    -0.059 S 
ATOM      7  H   UNL     1      -3.110  -2.933   0.000  0.00  0.00    +0.176 HD
ENDROOT
BRANCH   4   8
ATOM      8  C   UNL     1      -1.197   1.762   0.017  0.00  0.00    +0.086 A 
ATOM      9  C   UNL     1      -0.013   1.076   0.008  0.00  0.00    +0.028 A 
ATOM     10  C   UNL     1       1.234   1.844   0.000  0.00  0.00    +0.018 A 
ATOM     11  C   UNL     1       2.472   1.190  -0.015  0.00  0.00    +0.011 A 
ATOM     12  C   UNL     1       3.626   1.922  -0.022  0.00  0.00    +0.001 A 
ATOM     13  C   UNL     1       3.579   3.308  -0.014  0.00  0.00    +0.004 A 
ATOM     14  C   UNL     1       2.370   3.971   0.001  0.00  0.00    +0.047 A 
ATOM     15  C   UNL     1       1.183   3.249   0.008  0.00  0.00    +0.139 A 
ATOM     16  O   UNL     1      -0.004   3.893   0.024  0.00  0.00    -0.422 OA
ATOM     17  C   UNL     1      -1.169   3.228   0.031  0.00  0.00    +0.347 A 
ATOM     18  O   UNL     1      -2.215   3.849   0.045  0.00  0.00    -0.244 OA
ENDBRANCH   4   8
BRANCH   1  20
ATOM     19  C   UNL     1      -5.373  -4.111   0.003  0.00  0.00    +0.142 C 
ATOM     20  N   UNL     1      -5.171  -2.828   0.009  0.00  0.00    -0.188 NA
BRANCH  19  22
ATOM     21  C   UNL     1      -7.841  -3.764   0.021  0.00  0.00    +0.147 A 
ATOM     22  C   UNL     1      -6.748  -4.641   0.006  0.00  0.00    +0.039 A 
ATOM     23  C   UNL     1      -6.969  -6.020  -0.000  0.00  0.00    +0.033 A 
ATOM     24  C   UNL     1      -8.259  -6.510   0.002  0.00  0.00    +0.043 A 
ATOM     25  C   UNL     1      -9.337  -5.640   0.011  0.00  0.00    +0.043 A 
ATOM     26  C   UNL     1      -9.130  -4.272   0.018  0.00  0.00    +0.085 A 
ATOM     27 CL   UNL     1     -10.488  -3.190   0.029  0.00  0.00    -0.080 Cl
ATOM     28 CL   UNL     1      -8.533  -8.224  -0.006  0.00  0.00    -0.083 Cl
BRANCH  21  30
ATOM     29  C   UNL     1      -7.547  -1.766  -1.234  0.00  0.00    +0.277 C 
ATOM     30  O   UNL     1      -7.637  -2.420   0.033  0.00  0.00    -0.493 OA
ENDBRANCH  21  30
ENDBRANCH  19  22
ENDBRANCH   1  20
TORSDOF 4
