REMARK  Name = ZINC04638324
REMARK  6 active torsions:
REMARK  status: ('A' for Active; 'I' for Inactive)
REMARK    1  A    between atoms: C_1  and  O_2
REMARK    2  A    between atoms: O_2  and  C_3
REMARK    3  A    between atoms: C_7  and  C_9
REMARK    4  A    between atoms: C_18  and  C_27
REMARK    5  A    between atoms: C_22  and  C_23
REMARK    6  A    between atoms: C_22  and  C_25
REMARK                            x       y       z     vdW  Elec       q    Type
REMARK                         _______ _______ _______ _____ _____    ______ ____
ROOT
ATOM      1  C   UNL     1       1.389  -4.130   2.211  0.00  0.00    +0.066 C 
ATOM      2  C   UNL     1       2.854  -4.575   2.218  0.00  0.00    +0.027 C 
ATOM      3  C   UNL     1       3.525  -4.146   0.924  0.00  0.00    +0.009 C 
ATOM      4  C   UNL     1       5.041  -4.063   1.095  0.00  0.00    +0.005 C 
ATOM      5  C   UNL     1       5.349  -2.987   2.143  0.00  0.00    +0.027 C 
ATOM      6  C   UNL     1       4.635  -3.340   3.417  0.00  0.00    -0.026 C 
ATOM      7  C   UNL     1       3.544  -4.029   3.434  0.00  0.00    -0.047 C 
ATOM      8  C   UNL     1       2.926  -4.323   4.793  0.00  0.00    +0.164 C 
ATOM      9  C   UNL     1       1.440  -4.049   4.685  0.00  0.00    +0.065 C 
ATOM     10  N   UNL     1       0.831  -3.364   5.577  0.00  0.00    -0.304 NA
ATOM     11  C   UNL     1       0.695  -4.622   3.485  0.00  0.00    +0.188 C 
ATOM     12  H   UNL     1       1.320  -3.012   6.337  0.00  0.00    +0.186 HD
ENDROOT
BRANCH   1  17
ATOM     13  C   UNL     1       0.626  -0.618   1.042  0.00  0.00    +0.120 A 
ATOM     14  C   UNL     1       1.202   0.139   2.051  0.00  0.00    +0.045 A 
ATOM     15  C   UNL     1       1.835  -0.488   3.107  0.00  0.00    +0.004 A 
ATOM     16  C   UNL     1       1.895  -1.869   3.158  0.00  0.00    +0.004 A 
ATOM     17  C   UNL     1       1.321  -2.625   2.153  0.00  0.00    -0.037 A 
ATOM     18  C   UNL     1       0.682  -2.003   1.097  0.00  0.00    +0.049 A 
BRANCH  13  20
ATOM     19  C   UNL     1      -0.017   1.425   0.010  0.00  0.00    +0.277 C 
ATOM     20  O   UNL     1       0.002  -0.004   0.002  0.00  0.00    -0.495 OA
ENDBRANCH  13  20
ENDBRANCH   1  17
BRANCH  11  21
ATOM     21  C   UNL     1      -0.697  -4.145   3.504  0.00  0.00    +0.091 C 
ATOM     22  N   UNL     1      -1.772  -3.777   3.518  0.00  0.00    -0.195 NA
ENDBRANCH  11  21
BRANCH  11  23
ATOM     23  C   UNL     1       0.716  -6.093   3.521  0.00  0.00    +0.091 C 
ATOM     24  N   UNL     1       0.732  -7.229   3.548  0.00  0.00    -0.195 NA
ENDBRANCH  11  23
BRANCH   8  25
ATOM     25  C   UNL     1       3.524  -3.448   5.815  0.00  0.00    +0.076 C 
ATOM     26  N   UNL     1       3.986  -2.773   6.603  0.00  0.00    -0.196 NA
ENDBRANCH   8  25
TORSDOF 5
