REMARK  Name = ZINC32606590
REMARK  3 active torsions:
REMARK  status: ('A' for Active; 'I' for Inactive)
REMARK    1  A    between atoms: C_1  and  C_2
REMARK    2  A    between atoms: N_13  and  C_14
REMARK    3  A    between atoms: C_18  and  N_20
REMARK                            x       y       z     vdW  Elec       q    Type
REMARK                         _______ _______ _______ _____ _____    ______ ____
ROOT
ATOM      1  C   UNL     1      -0.553   1.448   0.037  0.00  0.00    +0.063 C 
ATOM      2  C   UNL     1      -0.266  -0.032   0.015  0.00  0.00    +0.015 A 
ATOM      3  C   UNL     1      -0.256  -0.692  -1.204  0.00  0.00    +0.049 A 
ATOM      4  C   UNL     1       0.011  -2.071  -1.246  0.00  0.00    +0.075 A 
ATOM      5  C   UNL     1       0.269  -2.752   0.030  0.00  0.00    +0.026 A 
ATOM      6  C   UNL     1       0.542  -4.119   0.084  0.00  0.00    +0.050 A 
ATOM      7  C   UNL     1       0.779  -4.715   1.305  0.00  0.00    +0.124 A 
ATOM      8  C   UNL     1       0.745  -3.960   2.479  0.00  0.00    +0.040 A 
ATOM      9  C   UNL     1       0.479  -2.624   2.447  0.00  0.00    +0.029 A 
ATOM     10  C   UNL     1       0.236  -1.989   1.224  0.00  0.00    +0.049 A 
ATOM     11  N   UNL     1      -0.026  -0.655   1.166  0.00  0.00    -0.358 N 
ATOM     12  F   UNL     1       1.044  -6.038   1.365  0.00  0.00    -0.205 F 
ATOM     13  N   UNL     1       0.028  -2.744  -2.412  0.00  0.00    -0.247 NA
ATOM     14  H   UNL     1      -0.043  -0.143   1.990  0.00  0.00    +0.166 HD
ENDROOT
BRANCH  13  15
ATOM     15  C   UNL     1      -0.087  -2.088  -3.556  0.00  0.00    +0.067 A 
ATOM     16  C   UNL     1       0.840  -1.002  -3.899  0.00  0.00    +0.029 A 
ATOM     17  C   UNL     1       0.688  -0.353  -5.085  0.00  0.00    +0.024 A 
ATOM     18  C   UNL     1      -0.330  -0.707  -5.967  0.00  0.00    +0.071 A 
ATOM     19  C   UNL     1      -1.230  -1.730  -5.681  0.00  0.00    +0.146 A 
ATOM     20  C   UNL     1      -1.142  -2.432  -4.519  0.00  0.00    +0.062 A 
ATOM     21 CL   UNL     1      -0.481   0.153  -7.468  0.00  0.00    -0.081 Cl
BRANCH  19  22
ATOM     22  N   UNL     1      -2.292  -2.063  -6.656  0.00  0.00    +0.058 N 
ATOM     23  O   UNL     1      -3.148  -3.029  -6.394  0.00  0.00    -0.126 OA
ATOM     24  O   UNL     1      -2.382  -1.392  -7.786  0.00  0.00    -0.126 OA
ENDBRANCH  19  22
ENDBRANCH  13  15
TORSDOF 2
