REMARK  Name = ZINC14890359
REMARK  8 active torsions:
REMARK  status: ('A' for Active; 'I' for Inactive)
REMARK    1  A    between atoms: C_1  and  C_2
REMARK    2  A    between atoms: C_5  and  N_8
REMARK    3  A    between atoms: C_9  and  C_11
REMARK    4  A    between atoms: C_11  and  C_13
REMARK    5  A    between atoms: C_11  and  N_16
REMARK    6  A    between atoms: C_13  and  C_14
REMARK    7  A    between atoms: C_13  and  C_15
REMARK    8  A    between atoms: C_17  and  C_19
REMARK                            x       y       z     vdW  Elec       q    Type
REMARK                         _______ _______ _______ _____ _____    ______ ____
ROOT
ATOM      1  C   UNL     1      -2.355   7.216  -0.668  0.00  0.00    +0.161 C 
ENDROOT
BRANCH   1   3
ATOM      2  N   UNL     1      -3.614   9.088  -1.681  0.00  0.00    -0.311 N 
ATOM      3  C   UNL     1      -3.512   7.762  -1.463  0.00  0.00    +0.234 C 
ATOM      4  O   UNL     1      -4.353   7.009  -1.907  0.00  0.00    -0.274 OA
ATOM      5  H   UNL     1      -2.898   9.779  -1.212  0.00  0.00    +0.149 HD
BRANCH   2  10
ATOM      6  C   UNL     1      -2.003  12.699  -3.971  0.00  0.00    +0.007 C 
ATOM      7  C   UNL     1      -3.265  11.851  -3.796  0.00  0.00    -0.014 C 
ATOM      8  C   UNL     1      -3.719  11.908  -2.336  0.00  0.00    +0.005 C 
ATOM      9  C   UNL     1      -4.980  11.059  -2.161  0.00  0.00    +0.022 C 
ATOM     10  C   UNL     1      -4.677   9.610  -2.545  0.00  0.00    +0.073 C 
ATOM     11  C   UNL     1      -4.222   9.553  -4.004  0.00  0.00    +0.022 C 
ATOM     12  C   UNL     1      -2.961  10.401  -4.179  0.00  0.00    +0.005 C 
ENDBRANCH   2  10
ENDBRANCH   1   3
BRANCH   1  13
ATOM     13  N   UNL     1      -2.683   5.870  -0.190  0.00  0.00    -0.303 N 
ATOM     14  C   UNL     1      -2.080   5.381   0.911  0.00  0.00    +0.220 C 
ATOM     15  O   UNL     1      -1.266   6.054   1.507  0.00  0.00    -0.275 OA
ATOM     16  H   UNL     1      -3.421   5.259  -0.731  0.00  0.00    +0.149 HD
BRANCH  14  17
ATOM     17  C   UNL     1      -2.417   3.996   1.402  0.00  0.00    +0.048 C 
ATOM     18  C   UNL     1      -2.084   2.974   0.314  0.00  0.00    +0.019 C 
ATOM     19  C   UNL     1      -2.427   1.569   0.813  0.00  0.00    -0.009 C 
ATOM     20  C   UNL     1      -1.609   1.260   2.069  0.00  0.00    +0.007 C 
ATOM     21  C   UNL     1      -1.942   2.283   3.157  0.00  0.00    -0.009 C 
ATOM     22  C   UNL     1      -1.599   3.688   2.658  0.00  0.00    +0.019 C 
ATOM     23  C   UNL     1      -3.433   2.208   3.489  0.00  0.00    +0.007 C 
ATOM     24  C   UNL     1      -4.251   2.517   2.232  0.00  0.00    -0.009 C 
ATOM     25  C   UNL     1      -3.919   1.494   1.144  0.00  0.00    +0.007 C 
ATOM     26  C   UNL     1      -3.909   3.922   1.734  0.00  0.00    +0.019 C 
ENDBRANCH  14  17
ENDBRANCH   1  13
BRANCH   1  27
ATOM     27  C   UNL     1      -1.111   7.153  -1.556  0.00  0.00    +0.012 C 
ATOM     28  C   UNL     1       0.090   6.706  -0.720  0.00  0.00    +0.009 C 
ATOM     29  C   UNL     1      -1.343   6.152  -2.690  0.00  0.00    +0.009 C 
ENDBRANCH   1  27
TORSDOF 5
