REMARK  Name = ZINC08487036
REMARK  7 active torsions:
REMARK  status: ('A' for Active; 'I' for Inactive)
REMARK    1  A    between atoms: C_1  and  O_2
REMARK    2  A    between atoms: O_2  and  C_3
REMARK    3  A    between atoms: C_5  and  C_13
REMARK    4  A    between atoms: C_7  and  O_11
REMARK    5  A    between atoms: C_8  and  O_9
REMARK    6  A    between atoms: O_9  and  C_10
REMARK    7  A    between atoms: O_11  and  C_12
REMARK                            x       y       z     vdW  Elec       q    Type
REMARK                         _______ _______ _______ _____ _____    ______ ____
ROOT
ATOM      1  C   UNL     1       2.402   0.386  -4.230  0.00  0.00    +0.091 C 
ATOM      2  C   UNL     1       3.871   0.092  -4.308  0.00  0.00    +0.042 A 
ATOM      3  C   UNL     1       4.752   0.639  -3.363  0.00  0.00    +0.126 A 
ATOM      4  N   UNL     1       6.051   0.368  -3.442  0.00  0.00    -0.208 NA
ATOM      5  C   UNL     1       6.531  -0.416  -4.403  0.00  0.00    +0.180 A 
ATOM      6  S   UNL     1       8.211  -0.740  -4.465  0.00  0.00    -0.011 S 
ATOM      7  N   UNL     1       5.718  -0.960  -5.329  0.00  0.00    -0.322 N 
ATOM      8  C   UNL     1       4.374  -0.709  -5.292  0.00  0.00    +0.110 A 
ATOM      9  N   UNL     1       3.537  -1.251  -6.236  0.00  0.00    -0.304 N 
ATOM     10  C   UNL     1       2.296  -0.716  -6.459  0.00  0.00    +0.017 C 
ATOM     11  C   UNL     1       1.714   0.077  -5.536  0.00  0.00    +0.024 C 
ATOM     12  C   UNL     1       0.448   0.643  -5.765  0.00  0.00    +0.162 C 
ATOM     13  O   UNL     1      -0.053   1.349  -4.912  0.00  0.00    -0.292 OA
ATOM     14  C   UNL     1      -0.300   0.392  -7.046  0.00  0.00    +0.080 C 
ATOM     15  C   UNL     1       0.709   0.130  -8.169  0.00  0.00    +0.014 C 
ATOM     16  C   UNL     1       1.599  -1.040  -7.757  0.00  0.00    +0.051 C 
ATOM     17  N   UNL     1       4.274   1.453  -2.360  0.00  0.00    -0.343 N 
ATOM     18  H   UNL     1       3.827  -2.020  -6.751  0.00  0.00    +0.153 HD
ATOM     19  H   UNL     1       4.886   1.830  -1.708  0.00  0.00    +0.144 HD
ATOM     20  H   UNL     1       3.326   1.650  -2.305  0.00  0.00    +0.144 HD
ATOM     21  H   UNL     1       6.086  -1.531  -6.022  0.00  0.00    +0.169 HD
ENDROOT
BRANCH   1  24
ATOM     22  C   UNL     1       0.606  -0.608  -1.056  0.00  0.00    +0.165 A 
ATOM     23  C   UNL     1       1.173   0.160  -2.063  0.00  0.00    +0.054 A 
ATOM     24  C   UNL     1       1.787  -0.452  -3.139  0.00  0.00    -0.028 A 
ATOM     25  C   UNL     1       1.839  -1.831  -3.217  0.00  0.00    +0.054 A 
ATOM     26  C   UNL     1       1.275  -2.606  -2.215  0.00  0.00    +0.165 A 
ATOM     27  C   UNL     1       0.661  -1.994  -1.128  0.00  0.00    +0.204 A 
BRANCH  22  29
ATOM     28  C   UNL     1      -0.017   1.425   0.010  0.00  0.00    +0.277 C 
ATOM     29  O   UNL     1       0.002  -0.004   0.002  0.00  0.00    -0.491 OA
ENDBRANCH  22  29
BRANCH  27  30
ATOM     30  O   UNL     1       0.111  -2.751  -0.140  0.00  0.00    -0.488 OA
ATOM     31  C   UNL     1      -1.260  -3.124  -0.295  0.00  0.00    +0.277 C 
ENDBRANCH  27  30
BRANCH  26  32
ATOM     32  O   UNL     1       1.326  -3.963  -2.293  0.00  0.00    -0.491 OA
ATOM     33  C   UNL     1       1.977  -4.523  -3.435  0.00  0.00    +0.277 C 
ENDBRANCH  26  32
ENDBRANCH   1  24
TORSDOF 4
