REMARK  Name = ZINC63530535
REMARK  11 active torsions:
REMARK  status: ('A' for Active; 'I' for Inactive)
REMARK    1  A    between atoms: C_1  and  C_2
REMARK    2  A    between atoms: C_6  and  S_27
REMARK    3  A    between atoms: C_7  and  C_12
REMARK    4  A    between atoms: N_14  and  C_15
REMARK    5  A    between atoms: C_15  and  C_16
REMARK    6  A    between atoms: C_16  and  C_17
REMARK    7  A    between atoms: C_20  and  O_25
REMARK    8  A    between atoms: C_21  and  O_23
REMARK    9  A    between atoms: O_23  and  C_24
REMARK   10  A    between atoms: O_25  and  C_26
REMARK   11  A    between atoms: S_27  and  C_28
REMARK                            x       y       z     vdW  Elec       q    Type
REMARK                         _______ _______ _______ _____ _____    ______ ____
ROOT
ATOM      1  C   UNL     1      -0.527   1.452   0.173  0.00  0.00    +0.044 C 
ATOM      2  C   UNL     1      -0.371  -0.046   0.128  0.00  0.00    -0.048 A 
ATOM      3  C   UNL     1      -0.446  -0.699  -1.104  0.00  0.00    +0.004 A 
ATOM      4  C   UNL     1      -0.312  -2.047  -1.203  0.00  0.00    +0.011 A 
ATOM      5  C   UNL     1      -0.093  -2.817  -0.039  0.00  0.00    +0.010 A 
ATOM      6  C   UNL     1       0.077  -4.182   0.165  0.00  0.00    +0.030 C 
ATOM      7  C   UNL     1       0.271  -4.352   1.655  0.00  0.00    +0.204 C 
ATOM      8  N   UNL     1       0.193  -3.006   2.229  0.00  0.00    -0.369 N 
ATOM      9  C   UNL     1      -0.014  -2.133   1.260  0.00  0.00    +0.044 A 
ATOM     10  C   UNL     1      -0.157  -0.723   1.284  0.00  0.00    +0.029 A 
ATOM     11  H   UNL     1       0.280  -2.790   3.171  0.00  0.00    +0.161 HD
ENDROOT
BRANCH   7  12
ATOM     12  C   UNL     1       1.620  -4.962   1.937  0.00  0.00    +0.240 C 
ATOM     13  O   UNL     1       2.543  -4.256   2.284  0.00  0.00    -0.273 OA
ATOM     14  N   UNL     1       1.800  -6.291   1.804  0.00  0.00    -0.313 N 
ATOM     15  H   UNL     1       1.061  -6.855   1.527  0.00  0.00    +0.149 HD
BRANCH  14  16
ATOM     16  C   UNL     1       3.111  -6.883   2.079  0.00  0.00    +0.109 C 
BRANCH  16  17
ATOM     17  C   UNL     1       3.045  -8.395   1.854  0.00  0.00    +0.054 C 
BRANCH  17  18
ATOM     18  C   UNL     1       4.394  -9.005   2.136  0.00  0.00    -0.042 A 
ATOM     19  C   UNL     1       5.324  -9.122   1.120  0.00  0.00    +0.007 A 
ATOM     20  C   UNL     1       6.563  -9.680   1.374  0.00  0.00    +0.049 A 
ATOM     21  C   UNL     1       6.875 -10.123   2.649  0.00  0.00    +0.161 A 
ATOM     22  C   UNL     1       5.939 -10.005   3.672  0.00  0.00    +0.162 A 
ATOM     23  C   UNL     1       4.701  -9.440   3.412  0.00  0.00    +0.053 A 
BRANCH  22  24
ATOM     24  O   UNL     1       6.241 -10.439   4.925  0.00  0.00    -0.491 OA
ATOM     25  C   UNL     1       5.232 -10.286   5.925  0.00  0.00    +0.277 C 
ENDBRANCH  22  24
BRANCH  21  26
ATOM     26  O   UNL     1       8.093 -10.673   2.900  0.00  0.00    -0.491 OA
ATOM     27  C   UNL     1       9.004 -10.763   1.802  0.00  0.00    +0.277 C 
ENDBRANCH  21  26
ENDBRANCH  17  18
ENDBRANCH  16  17
ENDBRANCH  14  16
ENDBRANCH   7  12
BRANCH   6  28
ATOM     28  S   UNL     1       0.070  -5.377  -0.988  0.00  0.00    -0.091 S 
BRANCH  28  29
ATOM     29  C   UNL     1      -1.397  -6.291  -0.645  0.00  0.00    +0.013 A 
ATOM     30  C   UNL     1      -2.289  -5.839   0.320  0.00  0.00    +0.016 A 
ATOM     31  C   UNL     1      -3.438  -6.557   0.586  0.00  0.00    +0.021 A 
ATOM     32  C   UNL     1      -3.701  -7.727  -0.106  0.00  0.00    +0.041 A 
ATOM     33  C   UNL     1      -2.814  -8.179  -1.067  0.00  0.00    +0.021 A 
ATOM     34  C   UNL     1      -1.667  -7.462  -1.343  0.00  0.00    +0.016 A 
ATOM     35 CL   UNL     1      -5.146  -8.627   0.232  0.00  0.00    -0.084 Cl
ENDBRANCH  28  29
ENDBRANCH   6  28
TORSDOF 8
