REMARK  Name = ZINC39518022
REMARK  7 active torsions:
REMARK  status: ('A' for Active; 'I' for Inactive)
REMARK    1  A    between atoms: C_1  and  C_2
REMARK    2  A    between atoms: C_10  and  C_11
REMARK    3  A    between atoms: N_13  and  C_14
REMARK    4  A    between atoms: C_14  and  C_16
REMARK    5  A    between atoms: C_14  and  C_17
REMARK    6  A    between atoms: C_21  and  S_23
REMARK    7  A    between atoms: S_23  and  N_26
REMARK                            x       y       z     vdW  Elec       q    Type
REMARK                         _______ _______ _______ _____ _____    ______ ____
ROOT
ATOM      1  C   UNL     1       0.032  -0.382   2.484  0.00  0.00    +0.280 C 
ATOM      2  O   UNL     1       0.018   0.806   2.745  0.00  0.00    -0.267 OA
ATOM      3  N   UNL     1       0.054  -1.291   3.479  0.00  0.00    -0.302 N 
ATOM      4  H   UNL     1       0.065  -2.238   3.270  0.00  0.00    +0.150 HD
ENDROOT
BRANCH   1  14
ATOM      5  C   UNL     1      -0.018   1.503   0.010  0.00  0.00    +0.048 C 
ATOM      6  C   UNL     1       0.002  -0.004   0.002  0.00  0.00    +0.008 A 
ATOM      7  C   UNL     1       0.009  -0.877  -1.171  0.00  0.00    +0.025 A 
ATOM      8  C   UNL     1      -0.001  -0.654  -2.551  0.00  0.00    +0.032 A 
ATOM      9  C   UNL     1       0.010  -1.718  -3.409  0.00  0.00    +0.042 A 
ATOM     10  C   UNL     1       0.030  -3.018  -2.918  0.00  0.00    +0.023 A 
ATOM     11  C   UNL     1       0.039  -3.258  -1.561  0.00  0.00    +0.048 A 
ATOM     12  C   UNL     1       0.029  -2.191  -0.669  0.00  0.00    +0.136 A 
ATOM     13  O   UNL     1       0.035  -2.113   0.676  0.00  0.00    -0.450 OA
ATOM     14  C   UNL     1       0.024  -0.826   1.083  0.00  0.00    +0.193 A 
ATOM     15 CL   UNL     1      -0.002  -1.444  -5.123  0.00  0.00    -0.084 Cl
ENDBRANCH   1  14
BRANCH   3  16
ATOM     16  C   UNL     1       0.062  -0.848   4.875  0.00  0.00    +0.101 C 
ATOM     17  C   UNL     1       1.499  -0.554   5.309  0.00  0.00    +0.033 C 
BRANCH  16  18
ATOM     18  C   UNL     1      -0.515  -1.931   5.749  0.00  0.00    -0.026 A 
ATOM     19  C   UNL     1      -0.202  -3.256   5.506  0.00  0.00    +0.005 A 
ATOM     20  C   UNL     1      -0.732  -4.250   6.307  0.00  0.00    +0.002 A 
ATOM     21  C   UNL     1      -1.574  -3.919   7.353  0.00  0.00    +0.028 A 
ATOM     22  C   UNL     1      -1.886  -2.595   7.597  0.00  0.00    +0.105 A 
ATOM     23  C   UNL     1      -1.353  -1.601   6.798  0.00  0.00    +0.034 A 
BRANCH  22  24
ATOM     24  S   UNL     1      -2.960  -2.174   8.929  0.00  0.00    +0.056 S 
ATOM     25  O   UNL     1      -3.528  -0.911   8.609  0.00  0.00    -0.153 OA
ATOM     26  O   UNL     1      -3.754  -3.323   9.189  0.00  0.00    -0.153 OA
BRANCH  24  27
ATOM     27  N   UNL     1      -2.012  -1.941  10.267  0.00  0.00    -0.204 NA
ATOM     28  H   UNL     1      -1.050  -2.047  10.204  0.00  0.00    +0.144 HD
ATOM     29  H   UNL     1      -2.419  -1.700  11.113  0.00  0.00    +0.144 HD
ENDBRANCH  24  27
ENDBRANCH  22  24
ENDBRANCH  16  18
ENDBRANCH   3  16
TORSDOF 5
