REMARK  Name = ZINC09161100
REMARK  8 active torsions:
REMARK  status: ('A' for Active; 'I' for Inactive)
REMARK    1  A    between atoms: C_1  and  C_2
REMARK    2  A    between atoms: C_9  and  C_25
REMARK    3  A    between atoms: C_29  and  O_31
REMARK    4  A    between atoms: O_31  and  C_32
REMARK    5  A    between atoms: C_32  and  C_33
REMARK    6  A    between atoms: C_33  and  C_34
REMARK    7  A    between atoms: C_34  and  C_35
REMARK    8  A    between atoms: C_34  and  C_36
REMARK                            x       y       z     vdW  Elec       q    Type
REMARK                         _______ _______ _______ _____ _____    ______ ____
ROOT
ATOM      1  C   UNL     1      -4.283  -1.805   0.229  0.00  0.00    +0.044 C 
ATOM      2  C   UNL     1      -3.982  -0.332   0.122  0.00  0.00    -0.046 A 
ATOM      3  C   UNL     1      -5.008   0.597   0.024  0.00  0.00    +0.023 A 
ATOM      4  C   UNL     1      -4.699   1.939  -0.072  0.00  0.00    +0.113 A 
ATOM      5  N   UNL     1      -3.444   2.346  -0.071  0.00  0.00    -0.240 NA
ATOM      6  C   UNL     1      -2.437   1.491   0.021  0.00  0.00    +0.129 A 
ATOM      7  C   UNL     1      -2.675   0.124   0.114  0.00  0.00    +0.047 A 
ATOM      8  N   UNL     1      -1.127   1.964   0.018  0.00  0.00    -0.238 N 
ATOM      9  C   UNL     1      -0.719   3.374   0.027  0.00  0.00    +0.151 C 
ATOM     10  C   UNL     1       0.787   3.370   0.013  0.00  0.00    +0.072 A 
ATOM     11  C   UNL     1       1.784   4.445   0.009  0.00  0.00    +0.199 A 
ATOM     12  O   UNL     1       1.458   5.619   0.018  0.00  0.00    -0.287 OA
ATOM     13  C   UNL     1       3.201   4.034  -0.007  0.00  0.00    +0.066 A 
ATOM     14  C   UNL     1       4.230   4.975  -0.013  0.00  0.00    +0.035 A 
ATOM     15  C   UNL     1       5.541   4.547  -0.028  0.00  0.00    +0.042 A 
ATOM     16  C   UNL     1       5.832   3.189  -0.037  0.00  0.00    +0.023 A 
ATOM     17  C   UNL     1       4.823   2.251  -0.032  0.00  0.00    +0.048 A 
ATOM     18  C   UNL     1       3.493   2.659  -0.017  0.00  0.00    +0.140 A 
ATOM     19  O   UNL     1       2.499   1.752  -0.012  0.00  0.00    -0.450 OA
ATOM     20  C   UNL     1       1.191   2.076   0.002  0.00  0.00    +0.199 A 
ATOM     21  C   UNL     1      -0.014   1.211   0.009  0.00  0.00    +0.288 C 
ATOM     22  O   UNL     1       0.002  -0.004   0.002  0.00  0.00    -0.266 OA
ATOM     23 CL   UNL     1       6.830   5.710  -0.035  0.00  0.00    -0.084 Cl
ENDROOT
BRANCH   9  24
ATOM     24  C   UNL     1      -1.248   4.073  -1.199  0.00  0.00    -0.019 A 
ATOM     25  C   UNL     1      -1.299   3.403  -2.408  0.00  0.00    +0.006 A 
ATOM     26  C   UNL     1      -1.788   4.039  -3.534  0.00  0.00    +0.004 A 
ATOM     27  C   UNL     1      -2.217   5.350  -3.456  0.00  0.00    +0.045 A 
ATOM     28  C   UNL     1      -2.163   6.026  -2.246  0.00  0.00    +0.121 A 
ATOM     29  C   UNL     1      -1.676   5.383  -1.116  0.00  0.00    +0.051 A 
BRANCH  28  30
ATOM     30  O   UNL     1      -2.585   7.315  -2.167  0.00  0.00    -0.492 OA
BRANCH  30  31
ATOM     31  C   UNL     1      -3.073   7.913  -3.369  0.00  0.00    +0.229 C 
BRANCH  31  32
ATOM     32  C   UNL     1      -3.499   9.355  -3.086  0.00  0.00    +0.044 C 
BRANCH  32  33
ATOM     33  C   UNL     1      -4.022   9.995  -4.373  0.00  0.00    -0.014 C 
ATOM     34  C   UNL     1      -5.297   9.276  -4.819  0.00  0.00    +0.007 C 
ATOM     35  C   UNL     1      -4.331  11.472  -4.120  0.00  0.00    +0.007 C 
ENDBRANCH  32  33
ENDBRANCH  31  32
ENDBRANCH  30  31
ENDBRANCH  28  30
ENDBRANCH   9  24
TORSDOF 5
