REMARK  Name = ZINC20347843
REMARK  14 active torsions:
REMARK  status: ('A' for Active; 'I' for Inactive)
REMARK    1  A    between atoms: C_1  and  C_2
REMARK    2  A    between atoms: C_2  and  O_3
REMARK    3  A    between atoms: O_3  and  C_4
REMARK    4  A    between atoms: C_4  and  C_6
REMARK    5  A    between atoms: C_7  and  C_31
REMARK    6  A    between atoms: C_9  and  S_22
REMARK    7  A    between atoms: C_10  and  C_20
REMARK    8  A    between atoms: C_11  and  C_13
REMARK    9  A    between atoms: S_22  and  C_23
REMARK   10  A    between atoms: C_23  and  C_24
REMARK   11  A    between atoms: N_26  and  C_27
REMARK   12  A    between atoms: C_27  and  C_28
REMARK   13  A    between atoms: C_27  and  C_29
REMARK   14  A    between atoms: C_27  and  C_30
REMARK                            x       y       z     vdW  Elec       q    Type
REMARK                         _______ _______ _______ _____ _____    ______ ____
ROOT
ATOM      1  C   UNL     1       1.256   1.962   0.426  0.00  0.00    +0.071 C 
ATOM      2  C   UNL     1       2.370   1.258   0.095  0.00  0.00    +0.050 C 
ATOM      3  N   UNL     1       3.507   1.904  -0.336  0.00  0.00    -0.308 N 
ATOM      4  C   UNL     1       3.669   3.248  -0.092  0.00  0.00    +0.080 C 
ATOM      5  C   UNL     1       2.605   4.027   0.237  0.00  0.00    +0.069 C 
ATOM      6  C   UNL     1       1.218   3.461   0.338  0.00  0.00    +0.102 C 
ATOM      7  H   UNL     1       4.286   1.345  -0.875  0.00  0.00    +0.153 HD
ENDROOT
BRANCH   6   8
ATOM      8  C   UNL     1       0.427   3.866  -0.879  0.00  0.00    -0.016 A 
ATOM      9  C   UNL     1       0.839   3.464  -2.136  0.00  0.00    +0.006 A 
ATOM     10  C   UNL     1       0.114   3.836  -3.252  0.00  0.00    +0.000 A 
ATOM     11  C   UNL     1      -1.024   4.609  -3.113  0.00  0.00    +0.001 A 
ATOM     12  C   UNL     1      -1.436   5.011  -1.857  0.00  0.00    +0.020 A 
ATOM     13  C   UNL     1      -0.714   4.635  -0.738  0.00  0.00    +0.045 A 
ATOM     14 CL   UNL     1      -1.236   5.133   0.841  0.00  0.00    -0.083 Cl
ENDBRANCH   6   8
BRANCH   2  15
ATOM     15  C   UNL     1       2.360  -0.215   0.194  0.00  0.00    -0.003 A 
ATOM     16  C   UNL     1       3.177  -0.862   1.123  0.00  0.00    +0.010 A 
ATOM     17  C   UNL     1       3.159  -2.238   1.213  0.00  0.00    +0.001 A 
ATOM     18  C   UNL     1       2.341  -2.978   0.378  0.00  0.00    +0.000 A 
ATOM     19  C   UNL     1       1.533  -2.345  -0.549  0.00  0.00    +0.001 A 
ATOM     20  C   UNL     1       1.537  -0.969  -0.646  0.00  0.00    +0.010 A 
ENDBRANCH   2  15
BRANCH   1  21
ATOM     21  C   UNL     1       0.112   1.270   0.867  0.00  0.00    +0.338 C 
ATOM     22  O   UNL     1       0.164   0.069   1.060  0.00  0.00    -0.245 OA
BRANCH  21  23
ATOM     23  O   UNL     1      -1.044   1.937   1.070  0.00  0.00    -0.462 OA
BRANCH  23  25
ATOM     24  C   UNL     1      -3.376   2.092   1.686  0.00  0.00    +0.048 C 
ATOM     25  C   UNL     1      -2.167   1.171   1.512  0.00  0.00    +0.229 C 
ENDBRANCH  23  25
ENDBRANCH  21  23
ENDBRANCH   1  21
BRANCH   5  26
ATOM     26  C   UNL     1       2.811   5.421   0.494  0.00  0.00    +0.098 C 
ATOM     27  N   UNL     1       2.975   6.527   0.698  0.00  0.00    -0.191 NA
ENDBRANCH   5  26
BRANCH   4  28
ATOM     28  S   UNL     1       5.273   3.968  -0.209  0.00  0.00    -0.100 S 
BRANCH  28  29
ATOM     29  C   UNL     1       6.242   2.507  -0.660  0.00  0.00    +0.171 C 
BRANCH  29  30
ATOM     30  C   UNL     1       7.690   2.893  -0.818  0.00  0.00    +0.224 C 
ATOM     31  O   UNL     1       8.033   4.043  -0.642  0.00  0.00    -0.275 OA
ATOM     32  N   UNL     1       8.603   1.960  -1.153  0.00  0.00    -0.310 N 
ATOM     33  H   UNL     1       8.291   0.917  -1.312  0.00  0.00    +0.149 HD
BRANCH  32  34
ATOM     34  C   UNL     1      10.011   2.335  -1.307  0.00  0.00    +0.026 C 
ATOM     35  C   UNL     1      10.533   2.906   0.013  0.00  0.00    +0.031 C 
ATOM     36  C   UNL     1      10.829   1.100  -1.688  0.00  0.00    +0.031 C 
ATOM     37  C   UNL     1      10.140   3.392  -2.406  0.00  0.00    +0.031 C 
ENDBRANCH  32  34
ENDBRANCH  29  30
ENDBRANCH  28  29
ENDBRANCH   4  28
TORSDOF 10
