REMARK  Name = ZINC06088986
REMARK  4 active torsions:
REMARK  status: ('A' for Active; 'I' for Inactive)
REMARK    1  A    between atoms: C_3  and  S_18
REMARK    2  A    between atoms: C_5  and  S_7
REMARK    3  A    between atoms: S_7  and  N_10
REMARK    4  A    between atoms: S_18  and  C_21
REMARK                            x       y       z     vdW  Elec       q    Type
REMARK                         _______ _______ _______ _____ _____    ______ ____
ROOT
ATOM      1  C   UNL     1       4.583  -1.685  -2.865  0.00  0.00    +0.004 A 
ATOM      2  C   UNL     1       5.166  -1.096  -3.972  0.00  0.00    +0.027 A 
ATOM      3  C   UNL     1       5.700   0.175  -3.878  0.00  0.00    +0.095 A 
ATOM      4  C   UNL     1       5.652   0.858  -2.677  0.00  0.00    +0.056 A 
ATOM      5  C   UNL     1       5.070   0.269  -1.571  0.00  0.00    +0.110 A 
ATOM      6  C   UNL     1       4.540  -1.004  -1.663  0.00  0.00    +0.029 A 
ENDROOT
BRANCH   5   7
ATOM      7  S   UNL     1       5.009   1.140  -0.040  0.00  0.00    +0.074 S 
ATOM      8  O   UNL     1       6.063   2.092  -0.072  0.00  0.00    -0.150 OA
ATOM      9  O   UNL     1       4.900   0.158   0.982  0.00  0.00    -0.150 OA
BRANCH   7  10
ATOM     10  N   UNL     1       3.594   2.000  -0.021  0.00  0.00    -0.199 N 
ATOM     11  C   UNL     1       2.374   1.333  -0.013  0.00  0.00    +0.138 A 
ATOM     12  C   UNL     1       1.190   2.062   0.002  0.00  0.00    +0.046 A 
ATOM     13  C   UNL     1      -0.017   1.385   0.010  0.00  0.00    +0.025 A 
ATOM     14  C   UNL     1       0.002  -0.004   0.002  0.00  0.00    +0.059 A 
ATOM     15  C   UNL     1       1.216  -0.664  -0.013  0.00  0.00    +0.133 A 
ATOM     16  N   UNL     1       2.351   0.009  -0.020  0.00  0.00    -0.238 NA
ATOM     17 CL   UNL     1      -1.484  -0.901   0.012  0.00  0.00    -0.082 Cl
ATOM     18  H   UNL     1       3.616   2.970  -0.017  0.00  0.00    +0.175 HD
ENDBRANCH   7  10
ENDBRANCH   5   7
BRANCH   3  19
ATOM     19  S   UNL     1       6.442   0.925  -5.290  0.00  0.00    +0.025 S 
ATOM     20  O   UNL     1       5.873   0.297  -6.430  0.00  0.00    -0.164 OA
ATOM     21  O   UNL     1       6.379   2.330  -5.083  0.00  0.00    -0.164 OA
BRANCH  19  22
ATOM     22  C   UNL     1       8.149   0.490  -5.274  0.00  0.00    +0.094 A 
ATOM     23  C   UNL     1       9.063   1.299  -4.625  0.00  0.00    +0.029 A 
ATOM     24  C   UNL     1      10.402   0.955  -4.608  0.00  0.00    +0.022 A 
ATOM     25  C   UNL     1      10.829  -0.194  -5.250  0.00  0.00    +0.041 A 
ATOM     26  C   UNL     1       9.915  -1.000  -5.904  0.00  0.00    +0.022 A 
ATOM     27  C   UNL     1       8.575  -0.658  -5.915  0.00  0.00    +0.029 A 
ATOM     28 CL   UNL     1      12.511  -0.623  -5.234  0.00  0.00    -0.084 Cl
ENDBRANCH  19  22
ENDBRANCH   3  19
TORSDOF 4
