REMARK  Name = ZINC12467663
REMARK  10 active torsions:
REMARK  status: ('A' for Active; 'I' for Inactive)
REMARK    1  A    between atoms: C_1  and  C_2
REMARK    2  A    between atoms: C_5  and  C_8
REMARK    3  A    between atoms: C_8  and  S_9
REMARK    4  A    between atoms: S_9  and  C_10
REMARK    5  A    between atoms: C_13  and  S_15
REMARK    6  A    between atoms: S_15  and  C_16
REMARK    7  A    between atoms: C_16  and  C_17
REMARK    8  A    between atoms: N_19  and  N_20
REMARK    9  A    between atoms: C_21  and  C_22
REMARK   10  A    between atoms: C_21  and  C_23
REMARK                            x       y       z     vdW  Elec       q    Type
REMARK                         _______ _______ _______ _____ _____    ______ ____
ROOT
ATOM      1  C   UNL     1      -0.046   0.153  -4.806  0.00  0.00    +0.173 C 
ENDROOT
BRANCH   1   2
ATOM      2  C   UNL     1      -0.023  -0.607  -3.506  0.00  0.00    +0.242 C 
ATOM      3  O   UNL     1      -0.006  -1.820  -3.512  0.00  0.00    -0.273 OA
ATOM      4  N   UNL     1      -0.021   0.060  -2.335  0.00  0.00    -0.206 N 
ATOM      5  H   UNL     1      -0.034   1.030  -2.329  0.00  0.00    +0.177 HD
BRANCH   4   6
ATOM      6  N   UNL     1       0.000  -0.647  -1.125  0.00  0.00    -0.184 NA
ATOM      7  C   UNL     1       0.002  -0.004   0.002  0.00  0.00    +0.065 C 
ATOM      8  C   UNL     1      -0.018   1.503   0.010  0.00  0.00    +0.068 C 
BRANCH   7   9
ATOM      9  C   UNL     1       0.024  -0.748   1.275  0.00  0.00    +0.016 A 
ATOM     10  C   UNL     1       0.032  -0.059   2.490  0.00  0.00    +0.012 A 
ATOM     11  C   UNL     1       0.048  -0.761   3.677  0.00  0.00    +0.021 A 
ATOM     12  C   UNL     1       0.066  -2.146   3.667  0.00  0.00    +0.042 A 
ATOM     13  C   UNL     1       0.064  -2.836   2.466  0.00  0.00    +0.040 A 
ATOM     14  C   UNL     1       0.043  -2.146   1.271  0.00  0.00    +0.051 A 
ATOM     15 CL   UNL     1       0.041  -3.012  -0.234  0.00  0.00    -0.083 Cl
ATOM     16 CL   UNL     1       0.093  -3.021   5.166  0.00  0.00    -0.083 Cl
ENDBRANCH   7   9
ENDBRANCH   4   6
ENDBRANCH   1   2
BRANCH   1  17
ATOM     17  S   UNL     1      -0.043  -1.018  -6.192  0.00  0.00    -0.088 S 
BRANCH  17  21
ATOM     18  C   UNL     1      -0.109   1.202 -10.031  0.00  0.00    +0.160 A 
ATOM     19  N   UNL     1      -0.108   1.938  -8.935  0.00  0.00    -0.134 NA
ATOM     20  N   UNL     1      -0.089   1.328  -7.702  0.00  0.00    -0.134 NA
ATOM     21  C   UNL     1      -0.070   0.012  -7.621  0.00  0.00    +0.160 A 
ATOM     22  S   UNL     1      -0.073  -0.447  -9.347  0.00  0.00    -0.033 S 
BRANCH  18  23
ATOM     23  S   UNL     1      -0.131   1.712 -11.717  0.00  0.00    -0.092 S 
BRANCH  23  24
ATOM     24  C   UNL     1      -0.154   3.524 -11.628  0.00  0.00    +0.111 C 
BRANCH  24  29
ATOM     25  C   UNL     1      -0.232   5.715 -16.975  0.00  0.00    +0.044 C 
ATOM     26  C   UNL     1      -0.212   5.144 -15.581  0.00  0.00    -0.050 A 
ATOM     27  C   UNL     1      -1.399   4.865 -14.931  0.00  0.00    +0.003 A 
ATOM     28  C   UNL     1      -1.381   4.341 -13.652  0.00  0.00    +0.005 A 
ATOM     29  C   UNL     1      -0.174   4.095 -13.023  0.00  0.00    -0.037 A 
ATOM     30  C   UNL     1       1.013   4.378 -13.671  0.00  0.00    +0.005 A 
ATOM     31  C   UNL     1       0.995   4.898 -14.952  0.00  0.00    +0.003 A 
ENDBRANCH  24  29
ENDBRANCH  23  24
ENDBRANCH  18  23
ENDBRANCH  17  21
ENDBRANCH   1  17
TORSDOF 8
