REMARK  Name = ZINC63580850
REMARK  7 active torsions:
REMARK  status: ('A' for Active; 'I' for Inactive)
REMARK    1  A    between atoms: C_1  and  C_2
REMARK    2  A    between atoms: C_2  and  O_3
REMARK    3  A    between atoms: O_3  and  C_4
REMARK    4  A    between atoms: C_6  and  C_12
REMARK    5  A    between atoms: C_9  and  O_10
REMARK    6  A    between atoms: C_19  and  O_24
REMARK    7  A    between atoms: O_24  and  C_25
REMARK                            x       y       z     vdW  Elec       q    Type
REMARK                         _______ _______ _______ _____ _____    ______ ____
ROOT
ATOM      1  C   UNL     1      -0.201  -4.959  -0.507  0.00  0.00    +0.142 A 
ATOM      2  N   UNL     1      -0.076  -6.309  -0.322  0.00  0.00    -0.306 N 
ATOM      3  H   UNL     1       0.384  -6.648   0.462  0.00  0.00    +0.170 HD
ATOM      4  C   UNL     1      -0.590  -7.175  -1.227  0.00  0.00    +0.260 A 
ATOM      5  O   UNL     1      -0.487  -8.379  -1.078  0.00  0.00    -0.267 OA
ATOM      6  C   UNL     1      -1.277  -6.607  -2.396  0.00  0.00    +0.068 A 
ATOM      7  C   UNL     1      -1.839  -7.415  -3.381  0.00  0.00    +0.061 A 
ATOM      8  C   UNL     1      -2.475  -6.827  -4.460  0.00  0.00    +0.121 A 
ATOM      9  C   UNL     1      -2.553  -5.439  -4.563  0.00  0.00    +0.048 A 
ATOM     10  C   UNL     1      -2.006  -4.633  -3.606  0.00  0.00    +0.032 A 
ATOM     11  C   UNL     1      -1.359  -5.200  -2.504  0.00  0.00    +0.079 A 
ATOM     12  N   UNL     1      -0.813  -4.433  -1.538  0.00  0.00    -0.229 NA
ENDROOT
BRANCH   1  15
ATOM     13  C   UNL     1       0.802  -1.825   1.306  0.00  0.00    +0.163 A 
ATOM     14  C   UNL     1       0.261  -2.669   0.354  0.00  0.00    +0.061 A 
ATOM     15  C   UNL     1       0.375  -4.053   0.507  0.00  0.00    +0.022 A 
ATOM     16  C   UNL     1       1.035  -4.578   1.620  0.00  0.00    +0.030 A 
ATOM     17  C   UNL     1       1.572  -3.731   2.566  0.00  0.00    +0.064 A 
ATOM     18  C   UNL     1       1.464  -2.355   2.412  0.00  0.00    +0.173 A 
ATOM     19 BR   UNL     1       2.465  -4.443   4.073  0.00  0.00    -0.046 Br
BRANCH  18  20
ATOM     20  O   UNL     1       1.999  -1.523   3.343  0.00  0.00    -0.503 OA
ATOM     21  H   UNL     1       1.394  -1.296   4.062  0.00  0.00    +0.292 HD
ENDBRANCH  18  20
BRANCH  13  22
ATOM     22  O   UNL     1       0.693  -0.477   1.160  0.00  0.00    -0.489 OA
BRANCH  22  24
ATOM     23  C   UNL     1      -0.019   1.526   0.010  0.00  0.00    +0.048 C 
ATOM     24  C   UNL     1       0.002  -0.004   0.002  0.00  0.00    +0.226 C 
ENDBRANCH  22  24
ENDBRANCH  13  22
ENDBRANCH   1  15
BRANCH   8  25
ATOM     25  O   UNL     1      -3.026  -7.607  -5.426  0.00  0.00    -0.495 OA
ATOM     26  C   UNL     1      -3.667  -6.938  -6.514  0.00  0.00    +0.277 C 
ENDBRANCH   8  25
TORSDOF 5
