REMARK  Name = ZINC08883191
REMARK  11 active torsions:
REMARK  status: ('A' for Active; 'I' for Inactive)
REMARK    1  A    between atoms: C_1  and  C_2
REMARK    2  A    between atoms: C_3  and  N_15
REMARK    3  A    between atoms: N_6  and  C_9
REMARK    4  A    between atoms: N_7  and  C_8
REMARK    5  A    between atoms: C_16  and  C_18
REMARK    6  A    between atoms: C_18  and  S_19
REMARK    7  A    between atoms: S_19  and  C_20
REMARK    8  A    between atoms: C_25  and  C_26
REMARK    9  A    between atoms: C_26  and  O_28
REMARK   10  A    between atoms: O_28  and  C_29
REMARK   11  A    between atoms: C_32  and  C_37
REMARK                            x       y       z     vdW  Elec       q    Type
REMARK                         _______ _______ _______ _____ _____    ______ ____
ROOT
ATOM      1  N   UNL     1       8.653   8.152   0.879  0.00  0.00    -0.279 N 
ATOM      2  C   UNL     1       8.127   7.056   0.297  0.00  0.00    +0.228 C 
ATOM      3  O   UNL     1       8.236   5.974   0.834  0.00  0.00    -0.275 OA
ATOM      4  H   UNL     1       8.633   9.005   0.415  0.00  0.00    +0.155 HD
ENDROOT
BRANCH   1   7
ATOM      5  C   UNL     1       7.955   9.973   3.248  0.00  0.00    +0.067 C 
ATOM      6  C   UNL     1       8.952   8.844   3.225  0.00  0.00    +0.059 A 
ATOM      7  C   UNL     1       9.234   8.061   2.159  0.00  0.00    +0.121 A 
ATOM      8  C   UNL     1      10.258   7.105   2.582  0.00  0.00    +0.293 A 
ATOM      9  O   UNL     1      10.769   6.239   1.895  0.00  0.00    -0.264 OA
ATOM     10  N   UNL     1      10.528   7.366   3.877  0.00  0.00    -0.216 N 
ATOM     11  N   UNL     1       9.723   8.437   4.282  0.00  0.00    -0.282 N 
ATOM     12  C   UNL     1       9.710   9.031   5.621  0.00  0.00    +0.171 C 
BRANCH  10  13
ATOM     13  C   UNL     1      11.452   6.686   4.677  0.00  0.00    +0.067 A 
ATOM     14  C   UNL     1      12.379   7.396   5.428  0.00  0.00    +0.028 A 
ATOM     15  C   UNL     1      13.287   6.721   6.221  0.00  0.00    +0.002 A 
ATOM     16  C   UNL     1      13.280   5.339   6.258  0.00  0.00    +0.000 A 
ATOM     17  C   UNL     1      12.362   4.628   5.507  0.00  0.00    +0.002 A 
ATOM     18  C   UNL     1      11.448   5.297   4.717  0.00  0.00    +0.028 A 
ENDBRANCH  10  13
ENDBRANCH   1   7
BRANCH   2  19
ATOM     19  C   UNL     1       7.402   7.176  -1.018  0.00  0.00    +0.170 C 
BRANCH  19  20
ATOM     20  S   UNL     1       6.816   5.543  -1.534  0.00  0.00    -0.115 S 
BRANCH  20  21
ATOM     21  C   UNL     1       6.030   5.966  -3.054  0.00  0.00    +0.022 A 
ATOM     22  C   UNL     1       6.023   7.285  -3.494  0.00  0.00    +0.015 A 
ATOM     23  C   UNL     1       5.403   7.615  -4.681  0.00  0.00    +0.001 A 
ATOM     24  C   UNL     1       4.786   6.636  -5.446  0.00  0.00    +0.001 A 
ATOM     25  C   UNL     1       4.786   5.324  -5.030  0.00  0.00    +0.016 A 
ATOM     26  C   UNL     1       5.411   4.972  -3.830  0.00  0.00    +0.072 A 
BRANCH  26  27
ATOM     27  C   UNL     1       5.414   3.571  -3.379  0.00  0.00    +0.341 C 
ATOM     28  O   UNL     1       5.958   3.270  -2.334  0.00  0.00    -0.245 OA
BRANCH  27  29
ATOM     29  O   UNL     1       4.814   2.621  -4.124  0.00  0.00    -0.446 OA
BRANCH  29  30
ATOM     30  C   UNL     1       4.857   1.261  -3.618  0.00  0.00    +0.288 C 
ATOM     31  C   UNL     1       3.607   0.477  -4.076  0.00  0.00    +0.100 C 
ATOM     32  C   UNL     1       4.218  -0.858  -4.559  0.00  0.00    +0.178 C 
ATOM     33  O   UNL     1       5.576  -0.511  -4.962  0.00  0.00    -0.459 OA
ATOM     34  C   UNL     1       6.026   0.512  -4.220  0.00  0.00    +0.349 C 
ATOM     35  O   UNL     1       7.189   0.793  -4.057  0.00  0.00    -0.247 OA
ATOM     36  C   UNL     1       3.431  -1.406  -5.750  0.00  0.00    +0.052 C 
ENDBRANCH  29  30
ENDBRANCH  27  29
ENDBRANCH  26  27
ENDBRANCH  20  21
ENDBRANCH  19  20
ENDBRANCH   2  19
TORSDOF 8
