REMARK  Name = ZINC21076220
REMARK  12 active torsions:
REMARK  status: ('A' for Active; 'I' for Inactive)
REMARK    1  A    between atoms: C_1  and  C_2
REMARK    2  A    between atoms: C_2  and  N_3
REMARK    3  A    between atoms: N_3  and  C_4
REMARK    4  A    between atoms: N_3  and  C_6
REMARK    5  A    between atoms: C_4  and  C_5
REMARK    6  A    between atoms: C_9  and  C_12
REMARK    7  A    between atoms: N_13  and  N_14
REMARK    8  A    between atoms: C_19  and  S_21
REMARK    9  A    between atoms: S_21  and  C_22
REMARK   10  A    between atoms: C_22  and  C_23
REMARK   11  A    between atoms: N_25  and  C_26
REMARK   12  A    between atoms: N_25  and  C_32
REMARK                            x       y       z     vdW  Elec       q    Type
REMARK                         _______ _______ _______ _____ _____    ______ ____
ROOT
ATOM      1  N   UNL     1      -3.103  -2.241  -8.690  0.00  0.00    -0.205 N 
ATOM      2  C   UNL     1      -2.334  -2.678  -9.753  0.00  0.00    +0.232 A 
ATOM      3  N   UNL     1      -2.791  -3.014 -10.978  0.00  0.00    -0.245 N 
ATOM      4  H   UNL     1      -3.713  -2.995 -11.279  0.00  0.00    +0.192 HD
ATOM      5  N   UNL     1      -1.669  -3.395 -11.730  0.00  0.00    -0.144 NA
ATOM      6  C   UNL     1      -0.624  -3.274 -10.947  0.00  0.00    +0.211 A 
ATOM      7  N   UNL     1      -1.026  -2.834  -9.750  0.00  0.00    -0.186 NA
ATOM      8  H   UNL     1      -4.064  -2.158  -8.788  0.00  0.00    +0.177 HD
ENDROOT
BRANCH   1  10
ATOM      9  C   UNL     1      -3.215  -1.510  -6.471  0.00  0.00    +0.138 C 
ATOM     10  N   UNL     1      -2.493  -1.920  -7.470  0.00  0.00    -0.188 NA
BRANCH   9  14
ATOM     11  C   UNL     1      -1.367  -0.537  -2.775  0.00  0.00    +0.030 A 
ATOM     12  C   UNL     1      -2.746  -0.416  -2.914  0.00  0.00    +0.024 A 
ATOM     13  C   UNL     1      -3.349  -0.731  -4.112  0.00  0.00    +0.011 A 
ATOM     14  C   UNL     1      -2.573  -1.172  -5.188  0.00  0.00    -0.005 A 
ATOM     15  C   UNL     1      -1.188  -1.292  -5.044  0.00  0.00    +0.011 A 
ATOM     16  C   UNL     1      -0.592  -0.971  -3.844  0.00  0.00    +0.024 A 
BRANCH  11  17
ATOM     17  N   UNL     1      -0.760  -0.217  -1.560  0.00  0.00    -0.330 N 
BRANCH  17  19
ATOM     18  C   UNL     1      -1.701   1.765  -0.477  0.00  0.00    +0.024 C 
ATOM     19  C   UNL     1      -1.575   0.240  -0.431  0.00  0.00    +0.102 C 
ENDBRANCH  17  19
BRANCH  17  20
ATOM     20  C   UNL     1       0.692  -0.338  -1.412  0.00  0.00    +0.102 C 
ATOM     21  C   UNL     1       1.039  -1.745  -0.922  0.00  0.00    +0.024 C 
ENDBRANCH  17  20
ENDBRANCH  11  17
ENDBRANCH   9  14
ENDBRANCH   1  10
BRANCH   6  22
ATOM     22  S   UNL     1       1.042  -3.627 -11.400  0.00  0.00    -0.075 S 
BRANCH  22  23
ATOM     23  C   UNL     1       0.922  -4.165 -13.128  0.00  0.00    +0.174 C 
BRANCH  23  24
ATOM     24  C   UNL     1       2.296  -4.502 -13.646  0.00  0.00    +0.234 C 
ATOM     25  O   UNL     1       3.272  -4.301 -12.954  0.00  0.00    -0.274 OA
ATOM     26  N   UNL     1       2.442  -5.027 -14.879  0.00  0.00    -0.240 N 
BRANCH  26  27
ATOM     27  C   UNL     1       1.332  -5.148 -15.724  0.00  0.00    +0.041 A 
ATOM     28  C   UNL     1       0.697  -4.011 -16.206  0.00  0.00    +0.024 A 
ATOM     29  C   UNL     1      -0.397  -4.133 -17.039  0.00  0.00    +0.002 A 
ATOM     30  C   UNL     1      -0.862  -5.387 -17.393  0.00  0.00    +0.000 A 
ATOM     31  C   UNL     1      -0.232  -6.521 -16.915  0.00  0.00    +0.002 A 
ATOM     32  C   UNL     1       0.867  -6.405 -16.087  0.00  0.00    +0.024 A 
ENDBRANCH  26  27
BRANCH  26  33
ATOM     33  C   UNL     1       3.703  -5.452 -15.315  0.00  0.00    +0.041 A 
ATOM     34  C   UNL     1       4.409  -6.399 -14.585  0.00  0.00    +0.024 A 
ATOM     35  C   UNL     1       5.653  -6.815 -15.017  0.00  0.00    +0.002 A 
ATOM     36  C   UNL     1       6.196  -6.290 -16.176  0.00  0.00    +0.000 A 
ATOM     37  C   UNL     1       5.495  -5.347 -16.905  0.00  0.00    +0.002 A 
ATOM     38  C   UNL     1       4.248  -4.931 -16.481  0.00  0.00    +0.024 A 
ENDBRANCH  26  33
ENDBRANCH  23  24
ENDBRANCH  22  23
ENDBRANCH   6  22
TORSDOF 10
