REMARK  Name = ZINC25671499
REMARK  13 active torsions:
REMARK  status: ('A' for Active; 'I' for Inactive)
REMARK    1  A    between atoms: C_1  and  C_2
REMARK    2  A    between atoms: C_2  and  C_3
REMARK    3  A    between atoms: C_6  and  C_9
REMARK    4  A    between atoms: C_11  and  C_14
REMARK    5  A    between atoms: C_14  and  O_16
REMARK    6  A    between atoms: O_16  and  C_17
REMARK    7  A    between atoms: C_17  and  C_18
REMARK    8  A    between atoms: C_19  and  C_32
REMARK    9  A    between atoms: C_20  and  C_26
REMARK   10  A    between atoms: C_29  and  C_31
REMARK   11  A    between atoms: C_32  and  O_34
REMARK   12  A    between atoms: O_34  and  C_35
REMARK   13  A    between atoms: C_35  and  C_36
REMARK                            x       y       z     vdW  Elec       q    Type
REMARK                         _______ _______ _______ _____ _____    ______ ____
ROOT
ATOM      1  C   UNL     1      -0.930  -7.203  -0.077  0.00  0.00    +0.061 C 
ATOM      2  C   UNL     1      -0.483  -7.752   1.073  0.00  0.00    +0.084 C 
ATOM      3  C   UNL     1       0.901  -8.370   1.068  0.00  0.00    +0.179 C 
ATOM      4  N   UNL     1       1.653  -8.310  -0.197  0.00  0.00    -0.285 N 
ATOM      5  C   UNL     1       1.073  -7.723  -1.262  0.00  0.00    +0.305 C 
ATOM      6  O   UNL     1       1.686  -7.669  -2.310  0.00  0.00    -0.252 OA
ATOM      7  N   UNL     1      -0.157  -7.197  -1.202  0.00  0.00    -0.269 N 
ATOM      8  H   UNL     1       2.665  -8.740  -0.256  0.00  0.00    +0.151 HD
ATOM      9  H   UNL     1      -0.537  -6.741  -2.128  0.00  0.00    +0.156 HD
ENDROOT
BRANCH   3  10
ATOM     10  C   UNL     1       1.718  -7.677   2.128  0.00  0.00    +0.130 A 
ATOM     11  C   UNL     1       1.861  -8.084   3.402  0.00  0.00    +0.047 A 
ATOM     12  C   UNL     1       2.705  -7.146   4.039  0.00  0.00    +0.045 A 
ATOM     13  C   UNL     1       3.027  -6.222   3.116  0.00  0.00    +0.102 A 
ATOM     14  O   UNL     1       2.432  -6.552   1.959  0.00  0.00    -0.463 OA
ATOM     15  C   UNL     1       3.913  -5.023   3.341  0.00  0.00    +0.086 C 
ENDBRANCH   3  10
BRANCH   2  16
ATOM     16  C   UNL     1      -1.280  -7.755   2.241  0.00  0.00    +0.339 C 
ATOM     17  O   UNL     1      -2.366  -7.205   2.238  0.00  0.00    -0.245 OA
BRANCH  16  18
ATOM     18  O   UNL     1      -0.837  -8.367   3.359  0.00  0.00    -0.462 OA
BRANCH  18  19
ATOM     19  C   UNL     1      -1.695  -8.331   4.502  0.00  0.00    +0.229 C 
ATOM     20  C   UNL     1      -1.028  -9.070   5.663  0.00  0.00    +0.048 C 
ENDBRANCH  18  19
ENDBRANCH  16  18
ENDBRANCH   2  16
BRANCH   1  21
ATOM     21  C   UNL     1      -2.303  -6.583  -0.117  0.00  0.00    +0.284 C 
BRANCH  21  22
ATOM     22  O   UNL     1      -2.615  -6.186  -1.478  0.00  0.00    -0.454 OA
BRANCH  22  23
ATOM     23  C   UNL     1      -3.816  -5.610  -1.688  0.00  0.00    +0.359 C 
ATOM     24  O   UNL     1      -4.581  -5.444  -0.758  0.00  0.00    -0.243 OA
BRANCH  23  27
ATOM     25  C   UNL     1      -3.731  -4.968  -5.274  0.00  0.00    +0.109 A 
ATOM     26  N   UNL     1      -3.375  -5.356  -4.064  0.00  0.00    -0.232 NA
ATOM     27  C   UNL     1      -4.200  -5.182  -3.042  0.00  0.00    +0.155 A 
ATOM     28  C   UNL     1      -5.430  -4.590  -3.271  0.00  0.00    +0.082 A 
ATOM     29  S   UNL     1      -5.356  -4.290  -4.980  0.00  0.00    -0.075 S 
BRANCH  25  33
ATOM     30  C   UNL     1      -1.565  -5.244  -8.918  0.00  0.00    -0.048 A 
ATOM     31  C   UNL     1      -2.829  -4.681  -8.909  0.00  0.00    +0.004 A 
ATOM     32  C   UNL     1      -3.538  -4.589  -7.729  0.00  0.00    +0.011 A 
ATOM     33  C   UNL     1      -2.977  -5.064  -6.543  0.00  0.00    +0.007 A 
ATOM     34  C   UNL     1      -1.702  -5.630  -6.559  0.00  0.00    +0.011 A 
ATOM     35  C   UNL     1      -1.003  -5.717  -7.745  0.00  0.00    +0.004 A 
BRANCH  30  37
ATOM     36  C   UNL     1      -1.115  -6.673 -10.894  0.00  0.00    +0.009 C 
ATOM     37  C   UNL     1      -0.796  -5.341 -10.211  0.00  0.00    +0.032 C 
ENDBRANCH  30  37
ENDBRANCH  25  33
ENDBRANCH  23  27
ENDBRANCH  22  23
ENDBRANCH  21  22
ENDBRANCH   1  21
TORSDOF 10
