REMARK  Name = ZINC33888294
REMARK  11 active torsions:
REMARK  status: ('A' for Active; 'I' for Inactive)
REMARK    1  A    between atoms: C_1  and  C_2
REMARK    2  A    between atoms: C_2  and  C_3
REMARK    3  A    between atoms: C_3  and  C_4
REMARK    4  A    between atoms: C_4  and  C_5
REMARK    5  A    between atoms: C_5  and  C_6
REMARK    6  A    between atoms: C_7  and  C_23
REMARK    7  A    between atoms: C_8  and  C_20
REMARK    8  A    between atoms: C_9  and  C_19
REMARK    9  A    between atoms: N_10  and  C_11
REMARK   10  A    between atoms: C_11  and  C_12
REMARK   11  A    between atoms: C_28  and  C_29
REMARK                            x       y       z     vdW  Elec       q    Type
REMARK                         _______ _______ _______ _____ _____    ______ ____
ROOT
ATOM      1  C   UNL     1       1.476  -4.028  -2.532  0.00  0.00    +0.028 A 
ATOM      2  C   UNL     1       2.444  -4.809  -1.989  0.00  0.00    +0.015 A 
ATOM      3  C   UNL     1       2.033  -6.202  -2.243  0.00  0.00    +0.065 A 
ATOM      4  C   UNL     1       0.848  -6.129  -2.919  0.00  0.00    +0.029 A 
ATOM      5  N   UNL     1       0.523  -4.832  -3.081  0.00  0.00    -0.342 N 
ATOM      6  C   UNL     1       0.037  -7.305  -3.399  0.00  0.00    +0.064 C 
ENDROOT
BRANCH   2   7
ATOM      7  C   UNL     1       3.667  -4.354  -1.285  0.00  0.00    -0.013 A 
ATOM      8  C   UNL     1       3.647  -4.158   0.095  0.00  0.00    +0.009 A 
ATOM      9  C   UNL     1       4.788  -3.734   0.746  0.00  0.00    +0.001 A 
ATOM     10  C   UNL     1       5.950  -3.504   0.030  0.00  0.00    +0.000 A 
ATOM     11  C   UNL     1       5.975  -3.697  -1.339  0.00  0.00    +0.004 A 
ATOM     12  C   UNL     1       4.841  -4.126  -1.999  0.00  0.00    -0.043 A 
ATOM     13  C   UNL     1       4.872  -4.342  -3.490  0.00  0.00    +0.044 C 
ENDBRANCH   2   7
BRANCH   3  14
ATOM     14  C   UNL     1       2.753  -7.422  -1.848  0.00  0.00    +0.244 C 
ATOM     15  O   UNL     1       2.528  -7.939  -0.770  0.00  0.00    -0.270 OA
ATOM     16  N   UNL     1       3.662  -7.968  -2.680  0.00  0.00    -0.325 N 
ATOM     17  H   UNL     1       3.841  -7.556  -3.540  0.00  0.00    +0.145 HD
ATOM     18  H   UNL     1       4.136  -8.773  -2.420  0.00  0.00    +0.145 HD
ENDBRANCH   3  14
BRANCH   1  19
ATOM     19  C   UNL     1       1.455  -2.521  -2.524  0.00  0.00    +0.054 C 
BRANCH  19  20
ATOM     20  C   UNL     1       0.739  -2.027  -1.265  0.00  0.00    +0.006 C 
BRANCH  20  21
ATOM     21  C   UNL     1       0.718  -0.497  -1.257  0.00  0.00    +0.000 C 
BRANCH  21  23
ATOM     22  C   UNL     1      -0.019   1.526   0.010  0.00  0.00    +0.004 C 
ATOM     23  C   UNL     1       0.002  -0.004   0.002  0.00  0.00    -0.003 C 
ENDBRANCH  21  23
ENDBRANCH  20  21
ENDBRANCH  19  20
ENDBRANCH   1  19
BRANCH   5  24
ATOM     24  C   UNL     1      -0.686  -4.353  -3.757  0.00  0.00    +0.157 C 
BRANCH  24  25
ATOM     25  C   UNL     1      -0.401  -4.172  -5.226  0.00  0.00    -0.026 A 
ATOM     26  C   UNL     1       0.069  -2.959  -5.695  0.00  0.00    +0.005 A 
ATOM     27  C   UNL     1       0.330  -2.793  -7.042  0.00  0.00    +0.002 A 
ATOM     28  C   UNL     1       0.120  -3.839  -7.921  0.00  0.00    +0.020 A 
ATOM     29  C   UNL     1      -0.350  -5.052  -7.452  0.00  0.00    +0.041 A 
ATOM     30  C   UNL     1      -0.606  -5.220  -6.103  0.00  0.00    +0.025 A 
ATOM     31 CL   UNL     1      -0.614  -6.366  -8.556  0.00  0.00    -0.084 Cl
ENDBRANCH  24  25
ENDBRANCH   5  24
TORSDOF 8
