REMARK  Name = ZINC27254969
REMARK  7 active torsions:
REMARK  status: ('A' for Active; 'I' for Inactive)
REMARK    1  A    between atoms: C_1  and  C_2
REMARK    2  A    between atoms: C_7  and  N_12
REMARK    3  A    between atoms: C_9  and  C_11
REMARK    4  A    between atoms: N_12  and  C_13
REMARK    5  A    between atoms: C_13  and  N_15
REMARK    6  A    between atoms: N_15  and  N_16
REMARK    7  A    between atoms: C_17  and  C_19
REMARK                            x       y       z     vdW  Elec       q    Type
REMARK                         _______ _______ _______ _____ _____    ______ ____
ROOT
ATOM      1  N   UNL     1      -2.009   2.509  -3.387  0.00  0.00    -0.231 N 
ATOM      2  C   UNL     1      -2.661   2.955  -4.479  0.00  0.00    +0.260 C 
ATOM      3  O   UNL     1      -3.610   2.334  -4.916  0.00  0.00    -0.269 OA
ATOM      4  H   UNL     1      -1.151   3.071  -2.991  0.00  0.00    +0.173 HD
ENDROOT
BRANCH   2   5
ATOM      5  C   UNL     1      -2.223   4.197  -5.142  0.00  0.00    +0.040 A 
ATOM      6  C   UNL     1      -1.135   4.913  -4.635  0.00  0.00    +0.014 A 
ATOM      7  C   UNL     1      -0.724   6.069  -5.261  0.00  0.00    +0.017 A 
ATOM      8  C   UNL     1      -1.396   6.527  -6.386  0.00  0.00    +0.030 A 
ATOM      9  C   UNL     1      -2.492   5.825  -6.901  0.00  0.00    +0.048 A 
ATOM     10  C   UNL     1      -2.899   4.659  -6.274  0.00  0.00    +0.037 A 
ATOM     11  N   UNL     1      -3.183   6.275  -8.023  0.00  0.00    -0.284 N 
ATOM     12  C   UNL     1      -2.719   7.105  -8.953  0.00  0.00    +0.227 C 
ATOM     13  O   UNL     1      -3.448   7.393  -9.879  0.00  0.00    -0.275 OA
ATOM     14  C   UNL     1      -1.340   7.705  -8.921  0.00  0.00    +0.170 C 
ATOM     15  S   UNL     1      -0.874   8.010  -7.190  0.00  0.00    -0.114 S 
ATOM     16  H   UNL     1      -4.216   5.942  -8.203  0.00  0.00    +0.155 HD
ENDBRANCH   2   5
BRANCH   1  17
ATOM     17  N   UNL     1      -2.425   1.329  -2.756  0.00  0.00    -0.246 N 
ATOM     18  H   UNL     1      -3.284   0.767  -3.152  0.00  0.00    +0.172 HD
BRANCH  17  19
ATOM     19  C   UNL     1      -1.773   0.883  -1.664  0.00  0.00    +0.147 C 
ATOM     20  S   UNL     1      -2.282  -0.559  -0.893  0.00  0.00    -0.017 S 
BRANCH  19  21
ATOM     21  N   UNL     1      -0.721   1.571  -1.179  0.00  0.00    -0.322 N 
ATOM     22  H   UNL     1      -0.395   2.497  -1.674  0.00  0.00    +0.148 HD
BRANCH  21  28
ATOM     23  C   UNL     1       3.598   1.638   1.226  0.00  0.00    +0.008 C 
ATOM     24  C   UNL     1       2.163   1.109   1.237  0.00  0.00    -0.009 C 
ATOM     25  C   UNL     1       1.446   1.602   2.495  0.00  0.00    +0.003 C 
ATOM     26  C   UNL     1       0.011   1.072   2.506  0.00  0.00    +0.002 C 
ATOM     27  C   UNL     1      -0.729   1.579   1.267  0.00  0.00    +0.022 C 
ATOM     28  C   UNL     1      -0.013   1.086   0.008  0.00  0.00    +0.075 C 
ATOM     29  C   UNL     1       1.423   1.615  -0.003  0.00  0.00    +0.009 C 
ATOM     30  C   UNL     1       2.139   1.122  -1.262  0.00  0.00    +0.009 C 
ENDBRANCH  21  28
ENDBRANCH  19  21
ENDBRANCH  17  19
ENDBRANCH   1  17
TORSDOF 5
