REMARK  Name = ZINC63886873
REMARK  4 active torsions:
REMARK  status: ('A' for Active; 'I' for Inactive)
REMARK    1  A    between atoms: N_8  and  O_11
REMARK    2  A    between atoms: O_11  and  C_12
REMARK    3  A    between atoms: C_12  and  C_13
REMARK    4  A    between atoms: C_16  and  C_18
REMARK                            x       y       z     vdW  Elec       q    Type
REMARK                         _______ _______ _______ _____ _____    ______ ____
ROOT
ATOM      1  O   UNL     1       4.238  -1.657  -0.046  0.00  0.00    -0.387 OA
ENDROOT
BRANCH   1   9
ATOM      2  C   UNL     1      -0.017   1.386   0.010  0.00  0.00    +0.022 A 
ATOM      3  C   UNL     1       1.146   2.099   0.002  0.00  0.00    +0.033 A 
ATOM      4  C   UNL     1       2.377   1.430  -0.013  0.00  0.00    +0.116 A 
ATOM      5  C   UNL     1       2.396   0.024  -0.021  0.00  0.00    +0.132 A 
ATOM      6  C   UNL     1       1.200  -0.685  -0.013  0.00  0.00    +0.053 A 
ATOM      7  C   UNL     1       0.002  -0.004   0.002  0.00  0.00    +0.043 A 
ATOM      8 CL   UNL     1      -1.492  -0.887   0.012  0.00  0.00    -0.083 Cl
ATOM      9  N   UNL     1       3.721  -0.339  -0.035  0.00  0.00    -0.077 N 
ATOM     10  N   UNL     1       4.461   0.853  -0.035  0.00  0.00    -0.029 NA
ATOM     11  N   UNL     1       3.656   1.856  -0.022  0.00  0.00    -0.127 NA
ENDBRANCH   1   9
BRANCH   1  12
ATOM     12  C   UNL     1       5.666  -1.722  -0.059  0.00  0.00    +0.318 C 
BRANCH  12  13
ATOM     13  C   UNL     1       6.104  -3.164  -0.070  0.00  0.00    +0.089 A 
ATOM     14  C   UNL     1       5.203  -4.179  -0.073  0.00  0.00    +0.073 A 
ATOM     15  S   UNL     1       6.297  -5.590  -0.088  0.00  0.00    -0.080 S 
ATOM     16  C   UNL     1       7.756  -4.751  -0.089  0.00  0.00    +0.082 A 
ATOM     17  N   UNL     1       7.379  -3.497  -0.084  0.00  0.00    -0.245 NA
BRANCH  16  18
ATOM     18  C   UNL     1       9.156  -5.308  -0.099  0.00  0.00    +0.045 C 
ATOM     19  C   UNL     1       9.351  -6.224  -1.324  0.00  0.00    +0.010 C 
ATOM     20  C   UNL     1      10.250  -7.372  -0.800  0.00  0.00    +0.001 C 
ATOM     21  C   UNL     1       9.711  -7.601   0.633  0.00  0.00    +0.001 C 
ATOM     22  C   UNL     1       9.385  -6.183   1.146  0.00  0.00    +0.010 C 
ENDBRANCH  16  18
ENDBRANCH  12  13
ENDBRANCH   1  12
TORSDOF 4
