REMARK  Name = ZINC38600364
REMARK  13 active torsions:
REMARK  status: ('A' for Active; 'I' for Inactive)
REMARK    1  A    between atoms: C_1  and  C_2
REMARK    2  A    between atoms: C_2  and  O_3
REMARK    3  A    between atoms: O_3  and  C_4
REMARK    4  A    between atoms: C_4  and  C_6
REMARK    5  A    between atoms: C_8  and  N_18
REMARK    6  A    between atoms: C_11  and  O_16
REMARK    7  A    between atoms: O_16  and  C_17
REMARK    8  A    between atoms: C_19  and  C_21
REMARK    9  A    between atoms: C_21  and  C_23
REMARK   10  A    between atoms: C_21  and  N_24
REMARK   11  A    between atoms: N_27  and  C_30
REMARK   12  A    between atoms: C_34  and  C_37
REMARK   13  A    between atoms: C_35  and  C_36
REMARK                            x       y       z     vdW  Elec       q    Type
REMARK                         _______ _______ _______ _____ _____    ______ ____
ROOT
ATOM      1  N   UNL     1      -3.482  -1.566  -2.532  0.00  0.00    -0.285 N 
ATOM      2  C   UNL     1      -4.412  -1.579  -3.507  0.00  0.00    +0.234 C 
ATOM      3  O   UNL     1      -5.260  -2.446  -3.524  0.00  0.00    -0.274 OA
ATOM      4  H   UNL     1      -2.820  -0.857  -2.502  0.00  0.00    +0.155 HD
ENDROOT
BRANCH   1   6
ATOM      5  C   UNL     1      -4.459  -3.684  -1.439  0.00  0.00    +0.234 C 
ATOM      6  C   UNL     1      -3.471  -2.549  -1.586  0.00  0.00    +0.053 C 
ATOM      7  C   UNL     1      -2.554  -2.713  -0.564  0.00  0.00    +0.021 A 
ATOM      8  C   UNL     1      -1.407  -1.975  -0.182  0.00  0.00    +0.057 A 
ATOM      9  C   UNL     1      -0.674  -2.376   0.890  0.00  0.00    +0.121 A 
ATOM     10  C   UNL     1      -1.027  -3.510   1.635  0.00  0.00    +0.047 A 
ATOM     11  C   UNL     1      -2.111  -4.260   1.325  0.00  0.00    +0.029 A 
ATOM     12  C   UNL     1      -2.925  -3.904   0.218  0.00  0.00    +0.045 A 
ATOM     13  N   UNL     1      -4.012  -4.463  -0.279  0.00  0.00    -0.367 N 
ATOM     14  H   UNL     1      -4.447  -5.258   0.066  0.00  0.00    +0.161 HD
BRANCH   5  15
ATOM     15  C   UNL     1      -5.843  -3.141  -1.198  0.00  0.00    +0.336 C 
ATOM     16  O   UNL     1      -6.126  -2.663  -0.125  0.00  0.00    -0.248 OA
BRANCH  15  17
ATOM     17  O   UNL     1      -6.763  -3.187  -2.175  0.00  0.00    -0.463 OA
BRANCH  17  19
ATOM     18  C   UNL     1      -8.959  -2.793  -3.102  0.00  0.00    +0.048 C 
ATOM     19  C   UNL     1      -8.054  -2.653  -1.877  0.00  0.00    +0.229 C 
ENDBRANCH  17  19
ENDBRANCH  15  17
ENDBRANCH   5  15
BRANCH   9  20
ATOM     20  O   UNL     1       0.426  -1.661   1.248  0.00  0.00    -0.495 OA
ATOM     21  C   UNL     1       1.160  -2.126   2.383  0.00  0.00    +0.277 C 
ENDBRANCH   9  20
ENDBRANCH   1   6
BRANCH   2  22
ATOM     22  C   UNL     1      -4.398  -0.518  -4.577  0.00  0.00    +0.140 C 
ATOM     23  C   UNL     1      -5.221   0.685  -4.112  0.00  0.00    +0.034 C 
BRANCH  22  24
ATOM     24  N   UNL     1      -4.978  -1.060  -5.813  0.00  0.00    -0.289 NA
ATOM     25  C   UNL     1      -4.250  -2.257  -6.255  0.00  0.00    +0.104 C 
ATOM     26  C   UNL     1      -4.990  -2.894  -7.436  0.00  0.00    +0.120 C 
ATOM     27  N   UNL     1      -5.188  -1.868  -8.472  0.00  0.00    -0.327 N 
ATOM     28  C   UNL     1      -5.788  -0.585  -8.075  0.00  0.00    +0.120 C 
ATOM     29  C   UNL     1      -5.016  -0.039  -6.869  0.00  0.00    +0.104 C 
BRANCH  27  30
ATOM     30  C   UNL     1      -4.816  -2.106  -9.797  0.00  0.00    +0.033 A 
ATOM     31  C   UNL     1      -5.726  -2.661 -10.687  0.00  0.00    +0.023 A 
ATOM     32  C   UNL     1      -5.355  -2.894 -11.996  0.00  0.00    +0.002 A 
ATOM     33  C   UNL     1      -4.078  -2.576 -12.422  0.00  0.00    +0.004 A 
ATOM     34  C   UNL     1      -3.169  -2.024 -11.538  0.00  0.00    -0.046 A 
ATOM     35  C   UNL     1      -3.536  -1.782 -10.228  0.00  0.00    -0.027 A 
ATOM     36  C   UNL     1      -2.546  -1.175  -9.268  0.00  0.00    +0.046 C 
ATOM     37  C   UNL     1      -1.778  -1.680 -12.006  0.00  0.00    +0.044 C 
ENDBRANCH  27  30
ENDBRANCH  22  24
ENDBRANCH   2  22
TORSDOF 8
