REMARK  Name = ZINC12243834
REMARK  13 active torsions:
REMARK  status: ('A' for Active; 'I' for Inactive)
REMARK    1  A    between atoms: C_1  and  C_2
REMARK    2  A    between atoms: C_7  and  C_8
REMARK    3  A    between atoms: C_8  and  S_9
REMARK    4  A    between atoms: S_9  and  C_10
REMARK    5  A    between atoms: C_13  and  C_22
REMARK    6  A    between atoms: N_14  and  C_15
REMARK    7  A    between atoms: C_22  and  N_61
REMARK    8  A    between atoms: C_23  and  N_61
REMARK    9  A    between atoms: C_24  and  C_25
REMARK   10  A    between atoms: C_24  and  N_61
REMARK   11  A    between atoms: C_28  and  O_32
REMARK   12  A    between atoms: C_30  and  O_31
REMARK   13  A    between atoms: O_32  and  C_33
REMARK                            x       y       z     vdW  Elec       q    Type
REMARK                         _______ _______ _______ _____ _____    ______ ____
ROOT
ATOM      1  C   UNL     1       0.002  -0.004   0.002  0.00  0.00    +0.196 A 
ATOM      2  N   UNL     1       1.263  -0.371  -0.012  0.00  0.00    -0.122 NA
ATOM      3  N   UNL     1       2.021   0.667  -0.014  0.00  0.00    -0.135 NA
ATOM      4  C   UNL     1       1.297   1.751  -0.001  0.00  0.00    +0.122 A 
ATOM      5  N   UNL     1      -0.017   1.364   0.009  0.00  0.00    -0.276 N 
ENDROOT
BRANCH   5   6
ATOM      6  C   UNL     1      -1.145   2.196   0.020  0.00  0.00    +0.052 A 
ATOM      7  C   UNL     1      -2.001   2.194   1.113  0.00  0.00    +0.026 A 
ATOM      8  C   UNL     1      -3.111   3.015   1.121  0.00  0.00    +0.003 A 
ATOM      9  C   UNL     1      -3.373   3.838   0.042  0.00  0.00    +0.020 A 
ATOM     10  C   UNL     1      -2.522   3.843  -1.050  0.00  0.00    +0.043 A 
ATOM     11  C   UNL     1      -1.406   3.027  -1.061  0.00  0.00    +0.046 A 
ATOM     12 CL   UNL     1      -2.854   4.878  -2.404  0.00  0.00    -0.083 Cl
ENDBRANCH   5   6
BRANCH   1  13
ATOM     13  S   UNL     1      -1.400  -1.071   0.010  0.00  0.00    -0.081 S 
BRANCH  13  14
ATOM     14  C   UNL     1      -0.570  -2.680  -0.007  0.00  0.00    +0.112 C 
BRANCH  14  21
ATOM     15  C   UNL     1      -1.585  -3.719  -2.504  0.00  0.00    +0.044 C 
ATOM     16  C   UNL     1      -2.088  -4.275  -1.197  0.00  0.00    -0.046 A 
ATOM     17  C   UNL     1      -3.035  -5.282  -1.193  0.00  0.00    +0.003 A 
ATOM     18  C   UNL     1      -3.497  -5.792   0.006  0.00  0.00    +0.000 A 
ATOM     19  C   UNL     1      -3.011  -5.295   1.201  0.00  0.00    +0.000 A 
ATOM     20  C   UNL     1      -2.061  -4.292   1.197  0.00  0.00    +0.005 A 
ATOM     21  C   UNL     1      -1.603  -3.778  -0.002  0.00  0.00    -0.034 A 
ENDBRANCH  14  21
ENDBRANCH  13  14
ENDBRANCH   1  13
BRANCH   4  22
ATOM     22  C   UNL     1       1.811   3.168   0.001  0.00  0.00    -0.001 C 
BRANCH  22  24
ATOM     23  C   UNL     1       0.700   3.717   2.081  0.00  0.00    -0.095 C 
ATOM     24  N   UNL     1       2.007   3.602   1.400  0.00  0.00    +0.385 N 
ATOM     25  H   UNL     1       2.578   2.903   1.889  0.00  0.00    -0.081 HD
BRANCH  24  26
ATOM     26  C   UNL     1       2.709   4.902   1.432  0.00  0.00    -0.039 C 
BRANCH  26  27
ATOM     27  C   UNL     1       3.091   5.214   2.856  0.00  0.00    -0.022 A 
ATOM     28  C   UNL     1       2.332   6.102   3.595  0.00  0.00    +0.009 A 
ATOM     29  C   UNL     1       2.679   6.390   4.901  0.00  0.00    +0.046 A 
ATOM     30  C   UNL     1       3.790   5.788   5.474  0.00  0.00    +0.124 A 
ATOM     31  C   UNL     1       4.553   4.897   4.735  0.00  0.00    +0.091 A 
ATOM     32  C   UNL     1       4.199   4.605   3.426  0.00  0.00    +0.122 A 
BRANCH  32  33
ATOM     33  O   UNL     1       4.941   3.728   2.700  0.00  0.00    -0.506 OA
ATOM     34  H   UNL     1       5.666   4.138   2.208  0.00  0.00    +0.292 HD
ENDBRANCH  32  33
BRANCH  30  35
ATOM     35  O   UNL     1       4.131   6.071   6.759  0.00  0.00    -0.495 OA
ATOM     36  C   UNL     1       3.300   6.998   7.461  0.00  0.00    +0.277 C 
ENDBRANCH  30  35
ENDBRANCH  26  27
ENDBRANCH  24  26
ENDBRANCH  22  24
ENDBRANCH   4  22
TORSDOF 10
