REMARK  Name = ZINC01099838
REMARK  7 active torsions:
REMARK  status: ('A' for Active; 'I' for Inactive)
REMARK    1  A    between atoms: C_1  and  C_2
REMARK    2  A    between atoms: C_2  and  C_4
REMARK    3  A    between atoms: C_2  and  S_17
REMARK    4  A    between atoms: N_6  and  N_7
REMARK    5  A    between atoms: C_8  and  C_9
REMARK    6  A    between atoms: C_14  and  O_15
REMARK    7  A    between atoms: S_17  and  C_18
REMARK                            x       y       z     vdW  Elec       q    Type
REMARK                         _______ _______ _______ _____ _____    ______ ____
ROOT
ATOM      1  C   UNL     1      -4.776  -0.199   0.048  0.00  0.00    +0.245 C 
ATOM      2  O   UNL     1      -4.796   1.014   0.055  0.00  0.00    -0.273 OA
ATOM      3  N   UNL     1      -3.598  -0.853   0.033  0.00  0.00    -0.206 N 
ATOM      4  H   UNL     1      -3.582  -1.823   0.028  0.00  0.00    +0.177 HD
ENDROOT
BRANCH   1   6
ATOM      5  C   UNL     1      -6.391  -1.444  -1.363  0.00  0.00    +0.029 C 
ATOM      6  C   UNL     1      -6.068  -0.974   0.057  0.00  0.00    +0.137 C 
BRANCH   6   7
ATOM      7  S   UNL     1      -7.408   0.090   0.661  0.00  0.00    -0.093 S 
BRANCH   7   8
ATOM      8  C   UNL     1      -8.799  -0.987   0.752  0.00  0.00    +0.098 A 
ATOM      9  C   UNL     1     -10.026  -0.494   1.187  0.00  0.00    +0.035 A 
ATOM     10  C   UNL     1     -11.110  -1.350   1.254  0.00  0.00    +0.004 A 
ATOM     11  C   UNL     1     -10.930  -2.677   0.882  0.00  0.00    +0.020 A 
ATOM     12  C   UNL     1      -9.686  -3.099   0.461  0.00  0.00    +0.112 A 
ATOM     13  N   UNL     1      -8.670  -2.258   0.401  0.00  0.00    -0.249 NA
ENDBRANCH   7   8
ENDBRANCH   6   7
ENDBRANCH   1   6
BRANCH   3  14
ATOM     14  N   UNL     1      -2.396  -0.132   0.025  0.00  0.00    -0.188 NA
ATOM     15  C   UNL     1      -1.262  -0.762   0.011  0.00  0.00    +0.142 C 
BRANCH  15  16
ATOM     16  C   UNL     1       0.002  -0.004   0.002  0.00  0.00    +0.037 A 
ATOM     17  C   UNL     1       1.225  -0.678  -0.013  0.00  0.00    +0.028 A 
ATOM     18  C   UNL     1       2.405   0.038  -0.021  0.00  0.00    +0.019 A 
ATOM     19  C   UNL     1       2.381   1.423  -0.013  0.00  0.00    +0.019 A 
ATOM     20  C   UNL     1       1.176   2.101   0.002  0.00  0.00    +0.047 A 
ATOM     21  C   UNL     1      -0.017   1.397   0.010  0.00  0.00    +0.126 A 
ATOM     22 BR   UNL     1       4.061  -0.875  -0.041  0.00  0.00    -0.050 Br
BRANCH  21  23
ATOM     23  O   UNL     1      -1.201   2.063   0.019  0.00  0.00    -0.506 OA
ATOM     24  H   UNL     1      -1.539   2.251   0.905  0.00  0.00    +0.292 HD
ENDBRANCH  21  23
ENDBRANCH  15  16
ENDBRANCH   3  14
TORSDOF 6
