REMARK  Name = ZINC17150321
REMARK  17 active torsions:
REMARK  status: ('A' for Active; 'I' for Inactive)
REMARK    1  A    between atoms: C_1  and  C_2
REMARK    2  A    between atoms: C_5  and  C_28
REMARK    3  A    between atoms: C_6  and  O_8
REMARK    4  A    between atoms: O_8  and  C_9
REMARK    5  A    between atoms: C_9  and  C_10
REMARK    6  A    between atoms: C_13  and  S_16
REMARK    7  A    between atoms: N_14  and  N_15
REMARK    8  A    between atoms: S_16  and  C_17
REMARK    9  A    between atoms: C_17  and  C_18
REMARK   10  A    between atoms: N_20  and  C_21
REMARK   11  A    between atoms: C_21  and  C_22
REMARK   12  A    between atoms: C_21  and  C_23
REMARK   13  A    between atoms: C_21  and  C_25
REMARK   14  A    between atoms: C_25  and  C_26
REMARK   15  A    between atoms: C_25  and  C_27
REMARK   16  A    between atoms: C_28  and  C_29
REMARK   17  A    between atoms: C_28  and  C_30
REMARK                            x       y       z     vdW  Elec       q    Type
REMARK                         _______ _______ _______ _____ _____    ______ ____
ROOT
ATOM      1  C   UNL     1       0.063  -2.932   4.751  0.00  0.00    +0.189 A 
ATOM      2  N   UNL     1      -0.977  -3.425   5.361  0.00  0.00    -0.128 NA
ATOM      3  N   UNL     1      -0.603  -4.177   6.334  0.00  0.00    -0.121 NA
ATOM      4  C   UNL     1       0.708  -4.205   6.397  0.00  0.00    +0.209 A 
ATOM      5  N   UNL     1       1.174  -3.415   5.385  0.00  0.00    -0.225 N 
ENDROOT
BRANCH   5   6
ATOM      6  N   UNL     1       2.479  -3.158   5.074  0.00  0.00    -0.295 N 
ATOM      7  H   UNL     1       2.817  -2.348   5.570  0.00  0.00    +0.163 HD
ATOM      8  H   UNL     1       3.059  -3.963   5.257  0.00  0.00    +0.163 HD
ENDBRANCH   5   6
BRANCH   1   9
ATOM      9  C   UNL     1       0.045  -2.006   3.562  0.00  0.00    +0.306 C 
BRANCH   9  10
ATOM     10  O   UNL     1       0.050  -2.776   2.358  0.00  0.00    -0.484 OA
BRANCH  10  16
ATOM     11  C   UNL     1      -0.018   1.503   0.010  0.00  0.00    +0.044 C 
ATOM     12  C   UNL     1       0.002  -0.004   0.002  0.00  0.00    -0.047 A 
ATOM     13  C   UNL     1       0.006  -0.688  -1.200  0.00  0.00    +0.004 A 
ATOM     14  C   UNL     1       0.024  -2.071  -1.211  0.00  0.00    +0.008 A 
ATOM     15  C   UNL     1       0.039  -2.772  -0.020  0.00  0.00    -0.003 A 
ATOM     16  C   UNL     1       0.035  -2.088   1.186  0.00  0.00    +0.125 A 
ATOM     17  C   UNL     1       0.023  -0.700   1.195  0.00  0.00    +0.049 A 
BRANCH  15  18
ATOM     18  C   UNL     1       0.059  -4.279  -0.033  0.00  0.00    +0.016 C 
ATOM     19  C   UNL     1      -1.188  -4.799  -0.753  0.00  0.00    +0.012 C 
ATOM     20  C   UNL     1       1.311  -4.766  -0.764  0.00  0.00    +0.012 C 
ENDBRANCH  15  18
ENDBRANCH  10  16
ENDBRANCH   9  10
ENDBRANCH   1   9
BRANCH   4  21
ATOM     21  S   UNL     1       1.682  -5.098   7.562  0.00  0.00    -0.075 S 
BRANCH  21  22
ATOM     22  C   UNL     1       0.458  -5.935   8.607  0.00  0.00    +0.173 C 
BRANCH  22  23
ATOM     23  C   UNL     1       1.168  -6.746   9.661  0.00  0.00    +0.224 C 
ATOM     24  O   UNL     1       2.380  -6.758   9.703  0.00  0.00    -0.275 OA
ATOM     25  N   UNL     1       0.456  -7.457  10.557  0.00  0.00    -0.297 N 
ATOM     26  H   UNL     1      -0.514  -7.447  10.524  0.00  0.00    +0.150 HD
BRANCH  25  27
ATOM     27  C   UNL     1       1.145  -8.245  11.582  0.00  0.00    +0.121 C 
ATOM     28  C   UNL     1       2.038  -9.289  10.907  0.00  0.00    +0.048 C 
BRANCH  27  29
ATOM     29  C   UNL     1       0.113  -8.951  12.463  0.00  0.00    +0.020 C 
ATOM     30  C   UNL     1       0.831  -9.870  13.453  0.00  0.00    +0.010 C 
ATOM     31  C   UNL     1      -0.698  -7.907  13.234  0.00  0.00    +0.010 C 
ENDBRANCH  27  29
BRANCH  27  32
ATOM     32  C   UNL     1       1.973  -7.354  12.412  0.00  0.00    +0.088 C 
ATOM     33  N   UNL     1       2.611  -6.667  13.052  0.00  0.00    -0.194 NA
ENDBRANCH  27  32
ENDBRANCH  25  27
ENDBRANCH  22  23
ENDBRANCH  21  22
ENDBRANCH   4  21
TORSDOF 11
