REMARK  Name = ZINC16450175
REMARK  10 active torsions:
REMARK  status: ('A' for Active; 'I' for Inactive)
REMARK    1  A    between atoms: C_5  and  C_7
REMARK    2  A    between atoms: C_7  and  C_8
REMARK    3  A    between atoms: C_11  and  O_29
REMARK    4  A    between atoms: C_12  and  C_14
REMARK    5  A    between atoms: N_15  and  C_16
REMARK    6  A    between atoms: C_16  and  C_17
REMARK    7  A    between atoms: C_17  and  C_18
REMARK    8  A    between atoms: C_18  and  N_19
REMARK    9  A    between atoms: N_19  and  C_20
REMARK   10  A    between atoms: C_23  and  N_26
REMARK                            x       y       z     vdW  Elec       q    Type
REMARK                         _______ _______ _______ _____ _____    ______ ____
ROOT
ATOM      1  C   UNL     1       3.705  -7.197  -1.086  0.00  0.00    +0.089 C 
ATOM      2  N   UNL     1       3.356  -6.485  -0.063  0.00  0.00    -0.390 N 
ATOM      3  H   UNL     1       2.876  -6.965   0.802  0.00  0.00    +0.159 HD
ENDROOT
BRANCH   1   8
ATOM      4  C   UNL     1       3.601 -10.781  -2.192  0.00  0.00    -0.042 A 
ATOM      5  C   UNL     1       2.996 -11.385  -1.102  0.00  0.00    +0.007 A 
ATOM      6  C   UNL     1       2.621 -10.633  -0.006  0.00  0.00    +0.046 A 
ATOM      7  C   UNL     1       2.848  -9.266   0.010  0.00  0.00    +0.125 A 
ATOM      8  C   UNL     1       3.459  -8.650  -1.091  0.00  0.00    +0.032 A 
ATOM      9  C   UNL     1       3.829  -9.422  -2.196  0.00  0.00    +0.017 A 
BRANCH   7  10
ATOM     10  O   UNL     1       2.479  -8.526   1.086  0.00  0.00    -0.506 OA
ATOM     11  H   UNL     1       2.660  -7.441   1.096  0.00  0.00    +0.292 HD
ENDBRANCH   7  10
BRANCH   4  12
ATOM     12  C   UNL     1       4.006 -11.613  -3.381  0.00  0.00    +0.071 C 
BRANCH  12  17
ATOM     13  C   UNL     1       0.939 -12.791  -5.240  0.00  0.00    +0.000 A 
ATOM     14  C   UNL     1       0.774 -11.781  -6.170  0.00  0.00    +0.001 A 
ATOM     15  C   UNL     1       1.655 -10.717  -6.198  0.00  0.00    +0.020 A 
ATOM     16  C   UNL     1       2.702 -10.662  -5.295  0.00  0.00    +0.044 A 
ATOM     17  C   UNL     1       2.866 -11.672  -4.365  0.00  0.00    -0.025 A 
ATOM     18  C   UNL     1       1.988 -12.739  -4.341  0.00  0.00    +0.005 A 
ATOM     19 CL   UNL     1       3.809  -9.325  -5.329  0.00  0.00    -0.083 Cl
ENDBRANCH  12  17
ENDBRANCH   4  12
ENDBRANCH   1   8
BRANCH   2  20
ATOM     20  C   UNL     1       3.600  -5.041  -0.059  0.00  0.00    +0.114 C 
BRANCH  20  21
ATOM     21  C   UNL     1       2.263  -4.298  -0.042  0.00  0.00    +0.039 C 
BRANCH  21  22
ATOM     22  C   UNL     1       2.518  -2.789  -0.037  0.00  0.00    +0.103 C 
BRANCH  22  23
ATOM     23  N   UNL     1       1.238  -2.077  -0.021  0.00  0.00    -0.344 N 
ATOM     24  H   UNL     1       0.294  -2.643  -0.014  0.00  0.00    +0.146 HD
BRANCH  23  25
ATOM     25  C   UNL     1       1.215  -0.681  -0.013  0.00  0.00    +0.027 A 
ATOM     26  C   UNL     1       0.002  -0.004   0.002  0.00  0.00    +0.025 A 
ATOM     27  C   UNL     1      -0.017   1.377   0.010  0.00  0.00    +0.034 A 
ATOM     28  C   UNL     1       1.171   2.086   0.002  0.00  0.00    +0.126 A 
ATOM     29  C   UNL     1       2.380   1.416  -0.013  0.00  0.00    +0.034 A 
ATOM     30  C   UNL     1       2.406   0.035  -0.021  0.00  0.00    +0.025 A 
BRANCH  28  31
ATOM     31  N   UNL     1       1.147   3.566   0.010  0.00  0.00    +0.056 N 
ATOM     32  O   UNL     1       0.082   4.158   0.023  0.00  0.00    -0.126 OA
ATOM     33  O   UNL     1       2.191   4.192   0.003  0.00  0.00    -0.126 OA
ENDBRANCH  28  31
ENDBRANCH  23  25
ENDBRANCH  22  23
ENDBRANCH  21  22
ENDBRANCH  20  21
ENDBRANCH   2  20
TORSDOF 10
