REMARK  Name = ZINC20694407
REMARK  7 active torsions:
REMARK  status: ('A' for Active; 'I' for Inactive)
REMARK    1  A    between atoms: C_1  and  O_2
REMARK    2  A    between atoms: O_2  and  C_3
REMARK    3  A    between atoms: C_7  and  C_10
REMARK    4  A    between atoms: C_8  and  O_9
REMARK    5  A    between atoms: C_21  and  O_26
REMARK    6  A    between atoms: O_26  and  C_27
REMARK    7  A    between atoms: C_27  and  C_28
REMARK                            x       y       z     vdW  Elec       q    Type
REMARK                         _______ _______ _______ _____ _____    ______ ____
ROOT
ATOM      1  C   UNL     1       8.214  -2.198  -3.449  0.00  0.00    +0.109 C 
ATOM      2  C   UNL     1       6.956  -2.388  -4.277  0.00  0.00    +0.029 C 
ATOM      3  C   UNL     1       7.131  -2.514  -5.796  0.00  0.00    +0.033 C 
ATOM      4  C   UNL     1       5.805  -1.945  -6.306  0.00  0.00    -0.030 C 
ATOM      5  C   UNL     1       5.301  -1.101  -5.415  0.00  0.00    -0.023 C 
ATOM      6  C   UNL     1       6.239  -1.005  -4.268  0.00  0.00    +0.049 C 
ATOM      7  C   UNL     1       5.765  -0.749  -2.890  0.00  0.00    -0.016 A 
ATOM      8  C   UNL     1       4.593  -0.074  -2.625  0.00  0.00    +0.051 A 
ATOM      9  C   UNL     1       4.199   0.157  -1.316  0.00  0.00    +0.121 A 
ATOM     10  C   UNL     1       4.993  -0.286  -0.268  0.00  0.00    +0.047 A 
ATOM     11  C   UNL     1       6.164  -0.969  -0.527  0.00  0.00    +0.027 A 
ATOM     12  C   UNL     1       6.561  -1.211  -1.837  0.00  0.00    +0.032 A 
ATOM     13  N   UNL     1       7.747  -1.924  -2.072  0.00  0.00    -0.336 N 
ATOM     14  H   UNL     1       8.331  -2.281  -1.212  0.00  0.00    +0.147 HD
ENDROOT
BRANCH   1  19
ATOM     15  C   UNL     1      10.662  -0.136  -5.470  0.00  0.00    +0.162 A 
ATOM     16  C   UNL     1      10.468   1.124  -4.927  0.00  0.00    +0.049 A 
ATOM     17  C   UNL     1       9.549   1.305  -3.910  0.00  0.00    +0.004 A 
ATOM     18  C   UNL     1       8.817   0.231  -3.437  0.00  0.00    +0.009 A 
ATOM     19  C   UNL     1       9.009  -1.029  -3.971  0.00  0.00    +0.018 A 
ATOM     20  C   UNL     1       9.929  -1.217  -4.990  0.00  0.00    +0.163 A 
BRANCH  15  22
ATOM     21  C   UNL     1      12.281   0.840  -6.913  0.00  0.00    +0.277 C 
ATOM     22  O   UNL     1      11.565  -0.315  -6.471  0.00  0.00    -0.491 OA
ENDBRANCH  15  22
BRANCH  20  23
ATOM     23  O   UNL     1      10.116  -2.455  -5.519  0.00  0.00    -0.503 OA
ATOM     24  H   UNL     1       9.537  -3.309  -5.139  0.00  0.00    +0.292 HD
ENDBRANCH  20  23
ENDBRANCH   1  19
BRANCH   9  25
ATOM     25  O   UNL     1       3.041   0.821  -1.059  0.00  0.00    -0.487 OA
BRANCH  25  26
ATOM     26  C   UNL     1       2.698   1.022   0.313  0.00  0.00    +0.264 C 
BRANCH  26  27
ATOM     27  C   UNL     1       1.393   1.769   0.401  0.00  0.00    -0.010 A 
ATOM     28  C   UNL     1       0.199   1.073   0.446  0.00  0.00    +0.007 A 
ATOM     29  C   UNL     1      -0.999   1.758   0.521  0.00  0.00    +0.000 A 
ATOM     30  C   UNL     1      -1.003   3.140   0.561  0.00  0.00    +0.000 A 
ATOM     31  C   UNL     1       0.190   3.836   0.518  0.00  0.00    +0.000 A 
ATOM     32  C   UNL     1       1.388   3.151   0.438  0.00  0.00    +0.007 A 
ENDBRANCH  26  27
ENDBRANCH  25  26
ENDBRANCH   9  25
TORSDOF 6
