REMARK  Name = ZINC08607806
REMARK  6 active torsions:
REMARK  status: ('A' for Active; 'I' for Inactive)
REMARK    1  A    between atoms: C_4  and  N_25
REMARK    2  A    between atoms: C_5  and  C_7
REMARK    3  A    between atoms: C_7  and  O_9
REMARK    4  A    between atoms: O_9  and  C_10
REMARK    5  A    between atoms: C_10  and  C_11
REMARK    6  A    between atoms: C_26  and  C_28
REMARK                            x       y       z     vdW  Elec       q    Type
REMARK                         _______ _______ _______ _____ _____    ______ ____
ROOT
ATOM      1  C   UNL     1       1.179  -2.150   0.026  0.00  0.00    +0.341 C 
ATOM      2  O   UNL     1       2.259  -2.696   0.135  0.00  0.00    -0.245 OA
ENDROOT
BRANCH   1   7
ATOM      3  C   UNL     1      -0.216   1.331  -0.088  0.00  0.00    +0.001 A 
ATOM      4  C   UNL     1       0.944   2.089  -0.122  0.00  0.00    +0.002 A 
ATOM      5  C   UNL     1       2.180   1.476  -0.108  0.00  0.00    +0.024 A 
ATOM      6  C   UNL     1       2.270   0.091  -0.060  0.00  0.00    +0.048 A 
ATOM      7  C   UNL     1       1.098  -0.680  -0.025  0.00  0.00    +0.080 A 
ATOM      8  C   UNL     1      -0.147  -0.044  -0.039  0.00  0.00    +0.017 A 
BRANCH   6   9
ATOM      9  N   UNL     1       3.515  -0.529  -0.046  0.00  0.00    -0.281 N 
ATOM     10  C   UNL     1       4.593   0.133   0.421  0.00  0.00    +0.248 C 
ATOM     11  O   UNL     1       4.460   1.232   0.923  0.00  0.00    -0.270 OA
ATOM     12  H   UNL     1       3.608  -1.438  -0.373  0.00  0.00    +0.155 HD
BRANCH  10  13
ATOM     13  C   UNL     1       5.935  -0.477   0.322  0.00  0.00    +0.037 A 
ATOM     14  C   UNL     1       6.091  -1.736  -0.260  0.00  0.00    +0.014 A 
ATOM     15  C   UNL     1       7.346  -2.300  -0.350  0.00  0.00    +0.021 A 
ATOM     16  C   UNL     1       8.450  -1.620   0.135  0.00  0.00    +0.041 A 
ATOM     17  C   UNL     1       8.302  -0.370   0.714  0.00  0.00    +0.021 A 
ATOM     18  C   UNL     1       7.053   0.206   0.804  0.00  0.00    +0.014 A 
ATOM     19 CL   UNL     1      10.027  -2.337   0.019  0.00  0.00    -0.084 Cl
ENDBRANCH  10  13
ENDBRANCH   6   9
ENDBRANCH   1   7
BRANCH   1  20
ATOM     20  O   UNL     1       0.055  -2.890  -0.047  0.00  0.00    -0.455 OA
BRANCH  20  21
ATOM     21  C   UNL     1       0.208  -4.310   0.009  0.00  0.00    +0.288 C 
BRANCH  21  22
ATOM     22  C   UNL     1      -1.146  -4.965  -0.087  0.00  0.00    +0.087 A 
ATOM     23  C   UNL     1      -1.466  -5.758  -1.168  0.00  0.00    +0.097 A 
ATOM     24  C   UNL     1      -2.725  -6.357  -1.240  0.00  0.00    +0.259 A 
ATOM     25  O   UNL     1      -3.014  -7.060  -2.195  0.00  0.00    -0.267 OA
ATOM     26  N   UNL     1      -3.633  -6.154  -0.239  0.00  0.00    -0.259 N 
ATOM     27  C   UNL     1      -4.913  -6.689  -0.189  0.00  0.00    +0.039 A 
ATOM     28  C   UNL     1      -5.684  -6.395   0.865  0.00  0.00    +0.013 A 
ATOM     29  S   UNL     1      -4.659  -5.343   1.860  0.00  0.00    -0.054 S 
ATOM     30  C   UNL     1      -3.232  -5.354   0.795  0.00  0.00    +0.181 A 
ATOM     31  N   UNL     1      -2.051  -4.793   0.873  0.00  0.00    -0.224 NA
ATOM     32  C   UNL     1      -7.083  -6.848   1.136  0.00  0.00    +0.044 C 
ATOM     33  C   UNL     1      -7.665  -7.428  -0.162  0.00  0.00    +0.006 C 
ATOM     34  C   UNL     1      -6.635  -8.384  -0.773  0.00  0.00    +0.006 C 
ATOM     35  C   UNL     1      -5.440  -7.592  -1.303  0.00  0.00    +0.055 C 
ENDBRANCH  21  22
ENDBRANCH  20  21
ENDBRANCH   1  20
TORSDOF 6
