REMARK  Name = ZINC21775598
REMARK  9 active torsions:
REMARK  status: ('A' for Active; 'I' for Inactive)
REMARK    1  A    between atoms: C_1  and  C_2
REMARK    2  A    between atoms: C_7  and  S_8
REMARK    3  A    between atoms: S_8  and  N_11
REMARK    4  A    between atoms: N_11  and  C_12
REMARK    5  A    between atoms: C_12  and  C_13
REMARK    6  A    between atoms: C_13  and  C_15
REMARK    7  A    between atoms: C_13  and  N_26
REMARK    8  A    between atoms: N_24  and  C_25
REMARK    9  A    between atoms: N_29  and  C_32
REMARK                            x       y       z     vdW  Elec       q    Type
REMARK                         _______ _______ _______ _____ _____    ______ ____
ROOT
ATOM      1  C   UNL     1       3.612  -1.770   4.532  0.00  0.00    +0.102 C 
ENDROOT
BRANCH   1   2
ATOM      2  C   UNL     1       2.744  -1.263   3.410  0.00  0.00    -0.029 A 
ATOM      3  C   UNL     1       2.065  -2.156   2.601  0.00  0.00    +0.007 A 
ATOM      4  C   UNL     1       1.274  -1.690   1.573  0.00  0.00    +0.024 A 
ATOM      5  C   UNL     1       1.152  -0.318   1.342  0.00  0.00    +0.033 A 
ATOM      6  C   UNL     1       1.829   0.571   2.158  0.00  0.00    -0.026 A 
ATOM      7  C   UNL     1       2.624   0.095   3.188  0.00  0.00    +0.010 A 
ATOM      8  C   UNL     1       1.726   2.064   1.972  0.00  0.00    +0.038 C 
ATOM      9  C   UNL     1       1.138   2.372   0.592  0.00  0.00    +0.024 C 
ATOM     10  C   UNL     1      -0.096   1.482   0.396  0.00  0.00    +0.105 C 
ATOM     11  N   UNL     1       0.344   0.090   0.282  0.00  0.00    -0.333 N 
ATOM     12  C   UNL     1      -0.804  -0.813   0.118  0.00  0.00    +0.129 C 
ENDBRANCH   1   2
BRANCH   1  13
ATOM     13  N   UNL     1       4.343  -2.963   4.085  0.00  0.00    -0.298 NA
ATOM     14  C   UNL     1       5.130  -3.541   5.183  0.00  0.00    +0.066 C 
ATOM     15  C   UNL     1       5.812  -4.823   4.698  0.00  0.00    -0.064 C 
ATOM     16  N   UNL     1       6.670  -4.513   3.546  0.00  0.00    +0.379 N 
ATOM     17  C   UNL     1       5.883  -3.934   2.448  0.00  0.00    -0.064 C 
ATOM     18  C   UNL     1       5.201  -2.653   2.932  0.00  0.00    +0.066 C 
ATOM     19  C   UNL     1       7.402  -5.705   3.098  0.00  0.00    -0.096 C 
ATOM     20  H   UNL     1       7.410  -3.764   3.865  0.00  0.00    -0.082 HD
ENDBRANCH   1  13
BRANCH   1  21
ATOM     21  C   UNL     1       2.735  -2.131   5.733  0.00  0.00    +0.129 C 
BRANCH  21  22
ATOM     22  N   UNL     1       2.050  -0.929   6.216  0.00  0.00    -0.188 NA
ATOM     23  H   UNL     1       2.478   0.065   6.020  0.00  0.00    +0.148 HD
BRANCH  22  24
ATOM     24  S   UNL     1       0.773  -1.068   7.261  0.00  0.00    +0.059 S 
ATOM     25  O   UNL     1       0.364   0.255   7.580  0.00  0.00    -0.153 OA
ATOM     26  O   UNL     1      -0.114  -2.024   6.695  0.00  0.00    -0.153 OA
BRANCH  24  33
ATOM     27  C   UNL     1       2.767   0.289   9.085  0.00  0.00    +0.046 C 
ATOM     28  C   UNL     1       2.304  -1.078   9.520  0.00  0.00    -0.024 A 
ATOM     29  C   UNL     1       2.791  -1.633  10.689  0.00  0.00    +0.007 A 
ATOM     30  C   UNL     1       2.367  -2.886  11.089  0.00  0.00    +0.020 A 
ATOM     31  C   UNL     1       1.455  -3.586  10.318  0.00  0.00    +0.043 A 
ATOM     32  C   UNL     1       0.965  -3.028   9.151  0.00  0.00    +0.048 A 
ATOM     33  C   UNL     1       1.393  -1.776   8.750  0.00  0.00    +0.110 A 
ATOM     34 CL   UNL     1       0.922  -5.160  10.819  0.00  0.00    -0.083 Cl
ENDBRANCH  24  33
ENDBRANCH  22  24
ENDBRANCH  21  22
ENDBRANCH   1  21
TORSDOF 6
