REMARK  Name = ZINC01594786
REMARK  7 active torsions:
REMARK  status: ('A' for Active; 'I' for Inactive)
REMARK    1  A    between atoms: C_1  and  N_2
REMARK    2  A    between atoms: N_2  and  C_3
REMARK    3  A    between atoms: N_2  and  C_4
REMARK    4  A    between atoms: C_7  and  N_11
REMARK    5  A    between atoms: N_11  and  S_12
REMARK    6  A    between atoms: S_12  and  C_15
REMARK    7  A    between atoms: C_18  and  N_21
REMARK                            x       y       z     vdW  Elec       q    Type
REMARK                         _______ _______ _______ _____ _____    ______ ____
ROOT
ATOM      1  N   UNL     1      -1.812   1.734  -0.453  0.00  0.00    -0.216 N 
ATOM      2  H   UNL     1      -2.206   1.446   0.385  0.00  0.00    +0.174 HD
ENDROOT
BRANCH   1   6
ATOM      3  C   UNL     1       2.062   3.278  -0.520  0.00  0.00    +0.058 A 
ATOM      4  C   UNL     1       1.860   1.915  -0.342  0.00  0.00    +0.042 A 
ATOM      5  C   UNL     1       0.576   1.405  -0.316  0.00  0.00    +0.041 A 
ATOM      6  C   UNL     1      -0.512   2.253  -0.473  0.00  0.00    +0.050 A 
ATOM      7  C   UNL     1      -0.310   3.616  -0.646  0.00  0.00    +0.041 A 
ATOM      8  C   UNL     1       0.973   4.127  -0.672  0.00  0.00    +0.042 A 
ATOM      9 BR   UNL     1       1.248   5.982  -0.914  0.00  0.00    -0.048 Br
ATOM     10 BR   UNL     1       3.342   0.759  -0.134  0.00  0.00    -0.048 Br
BRANCH   3  12
ATOM     11  C   UNL     1       4.050   3.558   0.731  0.00  0.00    +0.129 C 
ATOM     12  N   UNL     1       3.363   3.796  -0.546  0.00  0.00    -0.334 N 
ATOM     13  C   UNL     1       4.130   3.237  -1.667  0.00  0.00    +0.129 C 
ENDBRANCH   3  12
ENDBRANCH   1   6
BRANCH   1  14
ATOM     14  S   UNL     1      -2.677   1.613  -1.860  0.00  0.00    +0.072 S 
ATOM     15  O   UNL     1      -3.929   1.034  -1.518  0.00  0.00    -0.150 OA
ATOM     16  O   UNL     1      -2.573   2.872  -2.510  0.00  0.00    -0.150 OA
BRANCH  14  17
ATOM     17  C   UNL     1      -1.845   0.446  -2.884  0.00  0.00    +0.109 A 
ATOM     18  C   UNL     1      -0.948   0.884  -3.841  0.00  0.00    +0.030 A 
ATOM     19  C   UNL     1      -0.289  -0.028  -4.642  0.00  0.00    +0.024 A 
ATOM     20  C   UNL     1      -0.539  -1.387  -4.494  0.00  0.00    +0.025 A 
ATOM     21  C   UNL     1      -1.445  -1.823  -3.536  0.00  0.00    +0.024 A 
ATOM     22  C   UNL     1      -2.095  -0.905  -2.734  0.00  0.00    +0.030 A 
BRANCH  20  23
ATOM     23  N   UNL     1       0.121  -2.312  -5.305  0.00  0.00    -0.358 N 
ATOM     24  H   UNL     1      -0.053  -3.261  -5.201  0.00  0.00    +0.142 HD
ATOM     25  H   UNL     1       0.754  -2.006  -5.974  0.00  0.00    +0.142 HD
ENDBRANCH  20  23
ENDBRANCH  14  17
ENDBRANCH   1  14
TORSDOF 5
