REMARK  Name = ZINC37308877
REMARK  7 active torsions:
REMARK  status: ('A' for Active; 'I' for Inactive)
REMARK    1  A    between atoms: C_1  and  O_2
REMARK    2  A    between atoms: O_2  and  C_3
REMARK    3  A    between atoms: C_6  and  C_10
REMARK    4  A    between atoms: C_10  and  C_12
REMARK    5  A    between atoms: C_10  and  N_22
REMARK    6  A    between atoms: C_17  and  O_18
REMARK    7  A    between atoms: O_18  and  C_19
REMARK                            x       y       z     vdW  Elec       q    Type
REMARK                         _______ _______ _______ _____ _____    ______ ____
ROOT
ATOM      1  C   UNL     1      -4.982  -2.629   0.036  0.00  0.00    -0.010 C 
ENDROOT
BRANCH   1   5
ATOM      2  C   UNL     1      -1.200  -0.637   0.010  0.00  0.00    +0.134 A 
ATOM      3  C   UNL     1      -2.375   0.101   0.019  0.00  0.00    +0.047 A 
ATOM      4  C   UNL     1      -3.596  -0.545   0.028  0.00  0.00    +0.006 A 
ATOM      5  C   UNL     1      -3.648  -1.927   0.027  0.00  0.00    -0.056 A 
ATOM      6  C   UNL     1      -2.480  -2.666   0.017  0.00  0.00    +0.021 A 
ATOM      7  C   UNL     1      -1.256  -2.024   0.003  0.00  0.00    +0.060 A 
ATOM      8 BR   UNL     1       0.342  -3.035  -0.018  0.00  0.00    -0.047 Br
BRANCH   2  10
ATOM      9  C   UNL     1      -0.017   1.425   0.010  0.00  0.00    +0.277 C 
ATOM     10  O   UNL     1       0.002  -0.004   0.002  0.00  0.00    -0.494 OA
ENDBRANCH   2  10
ENDBRANCH   1   5
BRANCH   1  11
ATOM     11  C   UNL     1      -5.323  -3.079  -1.361  0.00  0.00    -0.016 A 
ATOM     12  C   UNL     1      -5.121  -4.395  -1.732  0.00  0.00    +0.006 A 
ATOM     13  C   UNL     1      -5.432  -4.809  -3.013  0.00  0.00    +0.000 A 
ATOM     14  C   UNL     1      -5.947  -3.908  -3.927  0.00  0.00    +0.004 A 
ATOM     15  C   UNL     1      -6.151  -2.592  -3.562  0.00  0.00    +0.046 A 
ATOM     16  C   UNL     1      -5.844  -2.175  -2.274  0.00  0.00    +0.129 A 
BRANCH  16  17
ATOM     17  O   UNL     1      -6.050  -0.882  -1.910  0.00  0.00    -0.434 OA
BRANCH  17  18
ATOM     18  C   UNL     1      -6.589  -0.007  -2.902  0.00  0.00    +0.541 C 
ATOM     19  F   UNL     1      -5.724   0.045  -4.000  0.00  0.00    -0.166 F 
ATOM     20  F   UNL     1      -7.838  -0.484  -3.315  0.00  0.00    -0.166 F 
ENDBRANCH  17  18
ENDBRANCH  16  17
ENDBRANCH   1  11
BRANCH   1  21
ATOM     21  N   UNL     1      -4.915  -3.797   0.925  0.00  0.00    +0.385 N 
ATOM     22  H   UNL     1      -5.808  -4.266   0.931  0.00  0.00    -0.089 HD
ATOM     23  H   UNL     1      -4.203  -4.431   0.593  0.00  0.00    -0.089 HD
ATOM     24  H   UNL     1      -4.687  -3.495   1.860  0.00  0.00    -0.089 HD
ENDBRANCH   1  21
TORSDOF 6
