REMARK  Name = ZINC39492626
REMARK  11 active torsions:
REMARK  status: ('A' for Active; 'I' for Inactive)
REMARK    1  A    between atoms: C_1  and  C_2
REMARK    2  A    between atoms: C_2  and  C_3
REMARK    3  A    between atoms: C_3  and  C_4
REMARK    4  A    between atoms: C_4  and  C_6
REMARK    5  A    between atoms: C_4  and  C_19
REMARK    6  A    between atoms: C_6  and  C_8
REMARK    7  A    between atoms: C_6  and  N_14
REMARK    8  A    between atoms: C_15  and  C_17
REMARK    9  A    between atoms: C_17  and  C_18
REMARK   10  A    between atoms: C_19  and  C_21
REMARK   11  A    between atoms: C_26  and  O_27
REMARK                            x       y       z     vdW  Elec       q    Type
REMARK                         _______ _______ _______ _____ _____    ______ ____
ROOT
ATOM      1  C   UNL     1       0.776  -2.020  -1.563  0.00  0.00    +0.085 C 
ENDROOT
BRANCH   1   2
ATOM      2  C   UNL     1       1.572  -2.579  -2.714  0.00  0.00    +0.172 C 
ATOM      3  O   UNL     1       1.019  -2.846  -3.760  0.00  0.00    -0.292 OA
BRANCH   2   4
ATOM      4  C   UNL     1       3.015  -2.802  -2.569  0.00  0.00    +0.059 A 
ATOM      5  C   UNL     1       3.657  -2.501  -1.361  0.00  0.00    +0.015 A 
ATOM      6  C   UNL     1       5.011  -2.713  -1.233  0.00  0.00    +0.001 A 
ATOM      7  C   UNL     1       5.744  -3.222  -2.294  0.00  0.00    +0.004 A 
ATOM      8  C   UNL     1       5.126  -3.523  -3.491  0.00  0.00    +0.046 A 
ATOM      9  C   UNL     1       3.761  -3.323  -3.639  0.00  0.00    +0.127 A 
BRANCH   9  10
ATOM     10  O   UNL     1       3.152  -3.623  -4.812  0.00  0.00    -0.506 OA
ATOM     11  H   UNL     1       3.130  -2.891  -5.443  0.00  0.00    +0.292 HD
ENDBRANCH   9  10
ENDBRANCH   2   4
ENDBRANCH   1   2
BRANCH   1  12
ATOM     12  C   UNL     1       0.760  -0.492  -1.648  0.00  0.00    +0.013 C 
BRANCH  12  14
ATOM     13  C   UNL     1       2.152   1.574  -1.463  0.00  0.00    +0.004 C 
ATOM     14  C   UNL     1       2.178   0.044  -1.440  0.00  0.00    -0.003 C 
ENDBRANCH  12  14
ENDBRANCH   1  12
BRANCH   1  15
ATOM     15  C   UNL     1      -0.658  -2.549  -1.629  0.00  0.00    +0.114 C 
BRANCH  15  16
ATOM     16  C   UNL     1      -1.429  -2.064  -0.429  0.00  0.00    -0.027 A 
ATOM     17  C   UNL     1      -1.282  -2.699   0.790  0.00  0.00    +0.005 A 
ATOM     18  C   UNL     1      -1.989  -2.254   1.891  0.00  0.00    +0.000 A 
ATOM     19  C   UNL     1      -2.842  -1.173   1.774  0.00  0.00    +0.000 A 
ATOM     20  C   UNL     1      -2.989  -0.537   0.556  0.00  0.00    +0.000 A 
ATOM     21  C   UNL     1      -2.278  -0.980  -0.545  0.00  0.00    +0.005 A 
ENDBRANCH  15  16
BRANCH  15  22
ATOM     22  N   UNL     1      -0.638  -4.014  -1.637  0.00  0.00    -0.308 N 
ATOM     23  C   UNL     1      -1.645  -4.698  -2.215  0.00  0.00    +0.213 C 
ATOM     24  O   UNL     1      -2.568  -4.102  -2.728  0.00  0.00    -0.276 OA
ATOM     25  H   UNL     1       0.100  -4.491  -1.227  0.00  0.00    +0.149 HD
BRANCH  23  26
ATOM     26  C   UNL     1      -1.625  -6.205  -2.223  0.00  0.00    +0.092 C 
ATOM     27  C   UNL     1      -2.874  -6.728  -2.936  0.00  0.00    +0.013 C 
ENDBRANCH  23  26
ENDBRANCH  15  22
ENDBRANCH   1  15
TORSDOF 9
