REMARK  Name = ZINC09043201
REMARK  6 active torsions:
REMARK  status: ('A' for Active; 'I' for Inactive)
REMARK    1  A    between atoms: C_1  and  N_55
REMARK    2  A    between atoms: C_3  and  C_29
REMARK    3  A    between atoms: C_5  and  C_21
REMARK    4  A    between atoms: C_12  and  C_17
REMARK    5  A    between atoms: C_21  and  C_23
REMARK    6  A    between atoms: C_33  and  N_35
REMARK                            x       y       z     vdW  Elec       q    Type
REMARK                         _______ _______ _______ _____ _____    ______ ____
ROOT
ATOM      1  C   UNL     1      -0.231  -3.020   1.266  0.00  0.00    -0.094 C 
ATOM      2  C   UNL     1      -0.710  -2.027  -0.907  0.00  0.00    -0.068 C 
ATOM      3  C   UNL     1      -1.775  -1.034  -1.438  0.00  0.00    +0.013 C 
ATOM      4  C   UNL     1      -2.258  -0.323  -0.150  0.00  0.00    +0.068 C 
ATOM      5  C   UNL     1      -1.902  -1.287   0.988  0.00  0.00    +0.050 C 
ATOM      6  C   UNL     1      -3.122  -1.654   1.788  0.00  0.00    -0.027 A 
ATOM      7  C   UNL     1      -4.312  -2.268   1.469  0.00  0.00    +0.004 A 
ATOM      8  C   UNL     1      -5.268  -2.476   2.448  0.00  0.00    +0.001 A 
ATOM      9  C   UNL     1      -5.025  -2.064   3.745  0.00  0.00    +0.014 A 
ATOM     10  C   UNL     1      -3.835  -1.447   4.069  0.00  0.00    +0.076 A 
ATOM     11  C   UNL     1      -2.867  -1.234   3.090  0.00  0.00    +0.047 A 
ATOM     12  N   UNL     1      -1.605  -0.642   3.167  0.00  0.00    -0.286 N 
ATOM     13  C   UNL     1      -0.974  -0.631   1.978  0.00  0.00    +0.212 C 
ATOM     14  O   UNL     1       0.128  -0.181   1.748  0.00  0.00    -0.277 OA
ATOM     15  H   UNL     1      -1.227  -0.279   3.984  0.00  0.00    +0.155 HD
ATOM     16  N   UNL     1      -1.289  -2.459   0.371  0.00  0.00    +0.391 N 
ATOM     17  H   UNL     1      -2.003  -3.177   0.203  0.00  0.00    -0.080 HD
ENDROOT
BRANCH   3  18
ATOM     18  C   UNL     1      -1.153  -0.046  -2.391  0.00  0.00    -0.043 A 
ATOM     19  C   UNL     1       0.214  -0.049  -2.596  0.00  0.00    +0.004 A 
ATOM     20  C   UNL     1       0.783   0.854  -3.474  0.00  0.00    +0.002 A 
ATOM     21  C   UNL     1      -0.013   1.768  -4.139  0.00  0.00    +0.033 A 
ATOM     22  C   UNL     1      -1.380   1.774  -3.930  0.00  0.00    +0.126 A 
ATOM     23  C   UNL     1      -1.950   0.868  -3.056  0.00  0.00    +0.036 A 
BRANCH  22  24
ATOM     24  N   UNL     1      -2.232   2.753  -4.642  0.00  0.00    +0.056 N 
ATOM     25  O   UNL     1      -3.437   2.759  -4.458  0.00  0.00    -0.126 OA
ATOM     26  O   UNL     1      -1.730   3.551  -5.412  0.00  0.00    -0.126 OA
ENDBRANCH  22  24
ENDBRANCH   3  18
BRANCH  10  27
ATOM     27  C   UNL     1      -3.580  -1.003   5.487  0.00  0.00    +0.419 C 
ATOM     28  F   UNL     1      -4.686  -1.321   6.281  0.00  0.00    -0.166 F 
ATOM     29  F   UNL     1      -2.446  -1.655   5.983  0.00  0.00    -0.166 F 
ATOM     30  F   UNL     1      -3.370   0.380   5.511  0.00  0.00    -0.166 F 
ENDBRANCH  10  27
BRANCH   4  31
ATOM     31  C   UNL     1      -1.536   0.988   0.027  0.00  0.00    +0.166 C 
ATOM     32  O   UNL     1      -0.388   1.099  -0.332  0.00  0.00    -0.292 OA
BRANCH  31  33
ATOM     33  C   UNL     1      -2.232   2.136   0.640  0.00  0.00    +0.021 A 
ATOM     34  C   UNL     1      -3.564   2.031   1.059  0.00  0.00    +0.031 A 
ATOM     35  C   UNL     1      -4.174   3.129   1.633  0.00  0.00    +0.111 A 
ATOM     36  N   UNL     1      -3.522   4.266   1.779  0.00  0.00    -0.263 NA
ATOM     37  C   UNL     1      -2.270   4.410   1.394  0.00  0.00    +0.111 A 
ATOM     38  C   UNL     1      -1.580   3.363   0.815  0.00  0.00    +0.031 A 
ENDBRANCH  31  33
ENDBRANCH   4  31
TORSDOF 5
