REMARK  Name = ZINC38975464
REMARK  5 active torsions:
REMARK  status: ('A' for Active; 'I' for Inactive)
REMARK    1  A    between atoms: C_1  and  C_2
REMARK    2  A    between atoms: C_6  and  C_8
REMARK    3  A    between atoms: N_14  and  N_15
REMARK    4  A    between atoms: C_16  and  C_17
REMARK    5  A    between atoms: C_22  and  O_23
REMARK                            x       y       z     vdW  Elec       q    Type
REMARK                         _______ _______ _______ _____ _____    ______ ____
ROOT
ATOM      1  C   UNL     1      -0.020  -2.916   2.610  0.00  0.00    +0.264 C 
ATOM      2  N   UNL     1       0.815  -2.097   3.501  0.00  0.00    -0.189 NA
ATOM      3  N   UNL     1       1.892  -2.678   3.658  0.00  0.00    -0.219 N 
ATOM      4  C   UNL     1       1.974  -3.855   2.982  0.00  0.00    +0.174 C 
ATOM      5  S   UNL     1       3.332  -4.898   2.990  0.00  0.00    -0.015 S 
ATOM      6  N   UNL     1       0.826  -4.084   2.302  0.00  0.00    -0.172 N 
ATOM      7  H   UNL     1       2.611  -2.329   4.208  0.00  0.00    +0.176 HD
ENDROOT
BRANCH   1  13
ATOM      8  C   UNL     1      -1.016   1.405   0.289  0.00  0.00    +0.044 C 
ATOM      9  C   UNL     1      -0.829  -0.090   0.240  0.00  0.00    -0.050 A 
ATOM     10  C   UNL     1      -0.962  -0.765  -0.959  0.00  0.00    +0.003 A 
ATOM     11  C   UNL     1      -0.790  -2.136  -1.003  0.00  0.00    +0.001 A 
ATOM     12  C   UNL     1      -0.485  -2.832   0.152  0.00  0.00    +0.007 A 
ATOM     13  C   UNL     1      -0.352  -2.157   1.351  0.00  0.00    -0.002 A 
ATOM     14  C   UNL     1      -0.519  -0.785   1.394  0.00  0.00    +0.010 A 
ENDBRANCH   1  13
BRANCH   6  15
ATOM     15  N   UNL     1       0.510  -5.182   1.490  0.00  0.00    -0.183 NA
ATOM     16  C   UNL     1       1.329  -6.187   1.410  0.00  0.00    +0.142 C 
BRANCH  16  17
ATOM     17  C   UNL     1       1.080  -7.264   0.436  0.00  0.00    +0.038 A 
ATOM     18  C   UNL     1       1.954  -8.350   0.350  0.00  0.00    +0.028 A 
ATOM     19  C   UNL     1       1.715  -9.355  -0.563  0.00  0.00    +0.020 A 
ATOM     20  C   UNL     1       0.611  -9.293  -1.397  0.00  0.00    +0.034 A 
ATOM     21  C   UNL     1      -0.262  -8.223  -1.323  0.00  0.00    +0.061 A 
ATOM     22  C   UNL     1      -0.039  -7.207  -0.406  0.00  0.00    +0.139 A 
ATOM     23 BR   UNL     1      -1.765  -8.149  -2.467  0.00  0.00    -0.046 Br
ATOM     24 BR   UNL     1       2.900 -10.825  -0.678  0.00  0.00    -0.050 Br
BRANCH  22  25
ATOM     25  O   UNL     1      -0.899  -6.159  -0.328  0.00  0.00    -0.505 OA
ATOM     26  H   UNL     1      -0.672  -5.420  -0.909  0.00  0.00    +0.292 HD
ENDBRANCH  22  25
ENDBRANCH  16  17
ENDBRANCH   6  15
TORSDOF 4
