REMARK  Name = ZINC13729741
REMARK  6 active torsions:
REMARK  status: ('A' for Active; 'I' for Inactive)
REMARK    1  A    between atoms: C_1  and  C_2
REMARK    2  A    between atoms: C_3  and  C_26
REMARK    3  A    between atoms: C_9  and  O_13
REMARK    4  A    between atoms: O_13  and  C_14
REMARK    5  A    between atoms: C_14  and  C_15
REMARK    6  A    between atoms: N_17  and  C_18
REMARK                            x       y       z     vdW  Elec       q    Type
REMARK                         _______ _______ _______ _____ _____    ______ ____
ROOT
ATOM      1  C   UNL     1      -0.018   1.503   0.010  0.00  0.00    +0.087 C 
ATOM      2  C   UNL     1       0.002  -0.004   0.002  0.00  0.00    +0.114 A 
ATOM      3  C   UNL     1       0.022  -0.663   1.189  0.00  0.00    +0.067 A 
ATOM      4  C   UNL     1       0.042  -2.136   1.181  0.00  0.00    +0.200 A 
ATOM      5  O   UNL     1       0.061  -2.781   2.215  0.00  0.00    -0.286 OA
ATOM      6  C   UNL     1       0.039  -2.792  -0.139  0.00  0.00    +0.065 A 
ATOM      7  C   UNL     1       0.056  -4.183  -0.256  0.00  0.00    +0.019 A 
ATOM      8  C   UNL     1       0.052  -4.759  -1.494  0.00  0.00    +0.046 A 
ATOM      9  C   UNL     1       0.030  -3.965  -2.639  0.00  0.00    +0.125 A 
ATOM     10  C   UNL     1       0.013  -2.584  -2.539  0.00  0.00    +0.092 A 
ATOM     11  C   UNL     1       0.017  -1.982  -1.287  0.00  0.00    +0.142 A 
ATOM     12  O   UNL     1      -0.006  -0.639  -1.172  0.00  0.00    -0.459 OA
ENDROOT
BRANCH   3  13
ATOM     13  C   UNL     1       0.024   0.086   2.470  0.00  0.00    -0.011 A 
ATOM     14  C   UNL     1       1.111   0.889   2.808  0.00  0.00    +0.010 A 
ATOM     15  C   UNL     1       1.105   1.588   3.998  0.00  0.00    +0.020 A 
ATOM     16  C   UNL     1       0.027   1.483   4.860  0.00  0.00    +0.041 A 
ATOM     17  C   UNL     1      -1.053   0.682   4.530  0.00  0.00    +0.020 A 
ATOM     18  C   UNL     1      -1.060  -0.016   3.341  0.00  0.00    +0.010 A 
ATOM     19 CL   UNL     1       0.029   2.360   6.359  0.00  0.00    -0.084 Cl
ENDBRANCH   3  13
BRANCH   9  20
ATOM     20  O   UNL     1       0.026  -4.550  -3.864  0.00  0.00    -0.483 OA
BRANCH  20  21
ATOM     21  C   UNL     1       0.045  -5.979  -3.900  0.00  0.00    +0.324 C 
BRANCH  21  22
ATOM     22  C   UNL     1       0.038  -6.445  -5.333  0.00  0.00    +0.251 C 
ATOM     23  O   UNL     1       0.019  -5.634  -6.234  0.00  0.00    -0.272 OA
ATOM     24  N   UNL     1       0.054  -7.763  -5.612  0.00  0.00    -0.305 N 
ATOM     25  H   UNL     1       0.069  -8.412  -4.891  0.00  0.00    +0.149 HD
BRANCH  24  26
ATOM     26  C   UNL     1       0.047  -8.217  -7.005  0.00  0.00    +0.119 C 
ATOM     27  C   UNL     1       0.713  -9.616  -7.091  0.00  0.00    +0.197 C 
ATOM     28  S   UNL     1      -0.809 -10.654  -7.052  0.00  0.00    -0.008 S 
ATOM     29  O   UNL     1      -0.784 -11.637  -8.077  0.00  0.00    -0.170 OA
ATOM     30  O   UNL     1      -1.170 -10.982  -5.717  0.00  0.00    -0.170 OA
ATOM     31  C   UNL     1      -1.982  -9.421  -7.587  0.00  0.00    +0.132 C 
ATOM     32  C   UNL     1      -1.364  -8.275  -7.498  0.00  0.00    +0.015 C 
ENDBRANCH  24  26
ENDBRANCH  21  22
ENDBRANCH  20  21
ENDBRANCH   9  20
TORSDOF 5
