REMARK  Name = ZINC19799849
REMARK  5 active torsions:
REMARK  status: ('A' for Active; 'I' for Inactive)
REMARK    1  A    between atoms: C_4  and  C_7
REMARK    2  A    between atoms: C_13  and  C_14
REMARK    3  A    between atoms: C_17  and  O_20
REMARK    4  A    between atoms: O_20  and  C_21
REMARK    5  A    between atoms: C_21  and  C_22
REMARK                            x       y       z     vdW  Elec       q    Type
REMARK                         _______ _______ _______ _____ _____    ______ ____
ROOT
ATOM      1  C   UNL     1       5.021  -3.915  -8.519  0.00  0.00    +0.130 C 
ATOM      2  N   UNL     1       4.276  -2.841  -8.615  0.00  0.00    -0.164 NA
ATOM      3  N   UNL     1       3.933  -2.112  -7.496  0.00  0.00    -0.152 N 
ATOM      4  C   UNL     1       3.227  -0.893  -7.497  0.00  0.00    +0.153 C 
ATOM      5  N   UNL     1       3.151  -0.113  -8.542  0.00  0.00    -0.283 NA
ATOM      6  C   UNL     1       2.579  -0.577  -6.192  0.00  0.00    +0.081 C 
ATOM      7  C   UNL     1       1.391   0.114  -6.120  0.00  0.00    +0.024 C 
ATOM      8  C   UNL     1       3.282  -1.052  -4.974  0.00  0.00    +0.273 C 
ATOM      9  O   UNL     1       3.129  -0.493  -3.901  0.00  0.00    -0.268 OA
ATOM     10  N   UNL     1       4.095  -2.121  -5.090  0.00  0.00    -0.152 NA
ATOM     11  C   UNL     1       4.346  -2.610  -6.278  0.00  0.00    +0.181 C 
ATOM     12  S   UNL     1       5.298  -4.028  -6.756  0.00  0.00    -0.033 S 
ATOM     13  H   UNL     1       2.585   0.829  -8.486  0.00  0.00    +0.188 HD
ENDROOT
BRANCH   1  17
ATOM     14  C   UNL     1       6.416  -6.478 -11.607  0.00  0.00    +0.000 A 
ATOM     15  C   UNL     1       6.748  -6.742 -10.290  0.00  0.00    +0.001 A 
ATOM     16  C   UNL     1       6.297  -5.914  -9.283  0.00  0.00    +0.010 A 
ATOM     17  C   UNL     1       5.507  -4.808  -9.594  0.00  0.00    +0.009 A 
ATOM     18  C   UNL     1       5.171  -4.550 -10.924  0.00  0.00    +0.010 A 
ATOM     19  C   UNL     1       5.632  -5.383 -11.922  0.00  0.00    +0.001 A 
ENDBRANCH   1  17
BRANCH   7  20
ATOM     20  C   UNL     1       0.690   0.235  -4.840  0.00  0.00    -0.024 A 
ATOM     21  C   UNL     1       0.697  -0.832  -3.930  0.00  0.00    +0.011 A 
ATOM     22  C   UNL     1       0.042  -0.713  -2.737  0.00  0.00    +0.046 A 
ATOM     23  C   UNL     1      -0.631   0.463  -2.424  0.00  0.00    +0.121 A 
ATOM     24  C   UNL     1      -0.646   1.523  -3.325  0.00  0.00    +0.046 A 
ATOM     25  C   UNL     1       0.010   1.418  -4.519  0.00  0.00    +0.011 A 
BRANCH  23  26
ATOM     26  O   UNL     1      -1.280   0.576  -1.238  0.00  0.00    -0.487 OA
BRANCH  26  27
ATOM     27  C   UNL     1      -1.950   1.811  -0.979  0.00  0.00    +0.267 C 
BRANCH  27  28
ATOM     28  C   UNL     1      -2.609   1.751   0.375  0.00  0.00    +0.025 A 
ATOM     29  C   UNL     1      -2.500   0.610   1.147  0.00  0.00    +0.010 A 
ATOM     30  C   UNL     1      -3.103   0.555   2.389  0.00  0.00    +0.001 A 
ATOM     31  C   UNL     1      -3.816   1.641   2.861  0.00  0.00    +0.003 A 
ATOM     32  C   UNL     1      -3.926   2.784   2.091  0.00  0.00    +0.039 A 
ATOM     33  C   UNL     1      -3.318   2.841   0.849  0.00  0.00    +0.130 A 
ATOM     34  F   UNL     1      -3.421   3.959   0.097  0.00  0.00    -0.205 F 
ENDBRANCH  27  28
ENDBRANCH  26  27
ENDBRANCH  23  26
ENDBRANCH   7  20
TORSDOF 5
