REMARK  Name = ZINC23153609
REMARK  6 active torsions:
REMARK  status: ('A' for Active; 'I' for Inactive)
REMARK    1  A    between atoms: C_1  and  N_2
REMARK    2  A    between atoms: N_2  and  C_3
REMARK    3  A    between atoms: C_3  and  C_4
REMARK    4  A    between atoms: N_6  and  C_9
REMARK    5  A    between atoms: C_9  and  C_10
REMARK    6  A    between atoms: C_16  and  C_18
REMARK                            x       y       z     vdW  Elec       q    Type
REMARK                         _______ _______ _______ _____ _____    ______ ____
ROOT
ATOM      1  C   UNL     1       4.894   5.660  -0.404  0.00  0.00    +0.013 C 
ATOM      2  C   UNL     1       3.517   6.322  -0.314  0.00  0.00    +0.024 C 
ATOM      3  C   UNL     1       2.667   5.584   0.725  0.00  0.00    +0.108 C 
ATOM      4  N   UNL     1       2.629   4.157   0.377  0.00  0.00    -0.301 N 
ATOM      5  C   UNL     1       3.898   3.443   0.184  0.00  0.00    +0.108 C 
ATOM      6  C   UNL     1       4.735   4.206  -0.854  0.00  0.00    +0.024 C 
ATOM      7  C   UNL     1       1.452   3.513   0.244  0.00  0.00    +0.219 C 
ATOM      8  O   UNL     1       0.411   4.132   0.314  0.00  0.00    -0.275 OA
ENDROOT
BRANCH   7   9
ATOM      9  C   UNL     1       1.429   2.025   0.009  0.00  0.00    +0.080 C 
ATOM     10  C   UNL     1       0.213   1.410   0.711  0.00  0.00    +0.018 C 
ATOM     11  C   UNL     1       0.346  -0.111   0.661  0.00  0.00    +0.036 C 
ATOM     12  C   UNL     1       0.617  -0.573  -0.747  0.00  0.00    -0.044 A 
ATOM     13  C   UNL     1       0.400  -1.913  -1.041  0.00  0.00    +0.004 A 
ATOM     14  C   UNL     1       0.634  -2.399  -2.311  0.00  0.00    +0.000 A 
ATOM     15  C   UNL     1       1.089  -1.546  -3.300  0.00  0.00    +0.000 A 
ATOM     16  C   UNL     1       1.304  -0.215  -3.010  0.00  0.00    +0.004 A 
ATOM     17  C   UNL     1       1.067   0.277  -1.732  0.00  0.00    -0.043 A 
ATOM     18  C   UNL     1       1.315   1.742  -1.488  0.00  0.00    +0.048 C 
ENDBRANCH   7   9
BRANCH   1  19
ATOM     19  C   UNL     1       5.758   6.415  -1.415  0.00  0.00    +0.148 C 
BRANCH  19  22
ATOM     20  C   UNL     1       8.983   4.970  -2.043  0.00  0.00    +0.066 A 
ATOM     21  C   UNL     1       7.775   5.381  -2.494  0.00  0.00    +0.131 A 
ATOM     22  N   UNL     1       7.112   5.857  -1.414  0.00  0.00    -0.251 N 
ATOM     23  N   UNL     1       7.875   5.730  -0.385  0.00  0.00    -0.066 NA
ATOM     24  N   UNL     1       8.998   5.204  -0.727  0.00  0.00    -0.136 NA
BRANCH  20  25
ATOM     25  C   UNL     1      10.092   4.362  -2.864  0.00  0.00    -0.023 C 
BRANCH  25  27
ATOM     26  C   UNL     1      12.136   4.856  -4.064  0.00  0.00    -0.100 C 
ATOM     27  N   UNL     1      11.039   5.413  -3.260  0.00  0.00    +0.381 N 
ATOM     28  H   UNL     1      11.449   5.879  -2.353  0.00  0.00    -0.086 HD
ATOM     29  H   UNL     1      10.501   6.169  -3.850  0.00  0.00    -0.086 HD
ENDBRANCH  25  27
ENDBRANCH  20  25
ENDBRANCH  19  22
ENDBRANCH   1  19
TORSDOF 5
