REMARK  Name = ZINC50996327
REMARK  5 active torsions:
REMARK  status: ('A' for Active; 'I' for Inactive)
REMARK    1  A    between atoms: C_1  and  C_2
REMARK    2  A    between atoms: C_2  and  C_3
REMARK    3  A    between atoms: C_3  and  C_4
REMARK    4  A    between atoms: C_6  and  C_11
REMARK    5  A    between atoms: N_8  and  C_9
REMARK                            x       y       z     vdW  Elec       q    Type
REMARK                         _______ _______ _______ _____ _____    ______ ____
ROOT
ATOM      1  C   UNL     1      -1.413  -2.041   0.005  0.00  0.00    +0.076 C 
ATOM      2  N   UNL     1      -1.413  -2.741  -1.074  0.00  0.00    -0.363 N 
ATOM      3  C   UNL     1      -1.390  -4.163  -0.697  0.00  0.00    +0.174 C 
ATOM      4  C   UNL     1      -1.377  -4.137   0.819  0.00  0.00    +0.100 C 
ATOM      5  N   UNL     1      -1.386  -2.797   1.142  0.00  0.00    -0.282 N 
ATOM      6  C   UNL     1      -1.374  -2.262   2.506  0.00  0.00    +0.138 C 
ATOM      7  N   UNL     1      -1.357  -5.145   1.627  0.00  0.00    -0.388 N 
ATOM      8  H   UNL     1      -1.348  -6.049   1.275  0.00  0.00    +0.157 HD
ATOM      9  H   UNL     1      -1.350  -4.998   2.586  0.00  0.00    +0.157 HD
ATOM     10  H   UNL     1      -1.426  -2.392  -1.979  0.00  0.00    +0.162 HD
ENDROOT
BRANCH   3  11
ATOM     11  C   UNL     1      -2.625  -4.864  -1.204  0.00  0.00    +0.000 A 
ATOM     12  C   UNL     1      -3.736  -4.128  -1.569  0.00  0.00    +0.009 A 
ATOM     13  C   UNL     1      -4.869  -4.771  -2.034  0.00  0.00    +0.020 A 
ATOM     14  C   UNL     1      -4.890  -6.151  -2.133  0.00  0.00    +0.042 A 
ATOM     15  C   UNL     1      -3.778  -6.887  -1.768  0.00  0.00    +0.040 A 
ATOM     16  C   UNL     1      -2.643  -6.244  -1.307  0.00  0.00    +0.048 A 
ATOM     17 CL   UNL     1      -1.244  -7.167  -0.854  0.00  0.00    -0.083 Cl
ATOM     18 CL   UNL     1      -6.312  -6.957  -2.716  0.00  0.00    -0.083 Cl
ENDBRANCH   3  11
BRANCH   1  19
ATOM     19  C   UNL     1      -1.433  -0.534   0.013  0.00  0.00    +0.069 C 
BRANCH  19  21
ATOM     20  C   UNL     1      -0.019   1.526   0.010  0.00  0.00    +0.004 C 
ATOM     21  C   UNL     1       0.002  -0.004   0.002  0.00  0.00    +0.004 C 
ENDBRANCH  19  21
ENDBRANCH   1  19
TORSDOF 3
