REMARK  Name = ZINC63503304
REMARK  5 active torsions:
REMARK  status: ('A' for Active; 'I' for Inactive)
REMARK    1  A    between atoms: C_1  and  C_2
REMARK    2  A    between atoms: C_2  and  O_3
REMARK    3  A    between atoms: O_3  and  C_4
REMARK    4  A    between atoms: C_7  and  C_10
REMARK    5  A    between atoms: C_25  and  C_27
REMARK                            x       y       z     vdW  Elec       q    Type
REMARK                         _______ _______ _______ _____ _____    ______ ____
ROOT
ATOM      1  C   UNL     1      -2.013  -6.101   0.002  0.00  0.00    +0.133 C 
ATOM      2  C   UNL     1      -2.137  -6.672   1.419  0.00  0.00    +0.131 C 
ATOM      3  C   UNL     1      -3.528  -6.300   1.917  0.00  0.00    -0.035 C 
ATOM      4  C   UNL     1      -3.354  -5.636   3.053  0.00  0.00    -0.001 A 
ATOM      5  C   UNL     1      -4.315  -5.086   4.023  0.00  0.00    +0.010 A 
ATOM      6  C   UNL     1      -3.783  -4.441   5.095  0.00  0.00    +0.001 A 
ATOM      7  C   UNL     1      -2.407  -4.289   5.296  0.00  0.00    +0.002 A 
ATOM      8  C   UNL     1      -1.452  -4.766   4.458  0.00  0.00    +0.026 A 
ATOM      9  C   UNL     1      -1.889  -5.468   3.297  0.00  0.00    +0.043 A 
ATOM     10  N   UNL     1      -1.185  -6.049   2.341  0.00  0.00    -0.375 N 
ATOM     11  C   UNL     1      -4.779  -6.613   1.134  0.00  0.00    +0.052 C 
ATOM     12  C   UNL     1      -4.548  -6.094  -0.297  0.00  0.00    +0.113 C 
ATOM     13  N   UNL     1      -3.212  -6.498  -0.752  0.00  0.00    -0.285 N 
ATOM     14  C   UNL     1      -3.083  -7.241  -1.870  0.00  0.00    +0.283 C 
ATOM     15  O   UNL     1      -1.994  -7.686  -2.181  0.00  0.00    -0.267 OA
ATOM     16  H   UNL     1      -0.220  -6.063   2.255  0.00  0.00    +0.160 HD
ENDROOT
BRANCH  14  17
ATOM     17  C   UNL     1      -4.256  -7.512  -2.712  0.00  0.00    +0.191 A 
ATOM     18  C   UNL     1      -4.282  -8.370  -3.764  0.00  0.00    +0.063 A 
ATOM     19  C   UNL     1      -5.643  -8.318  -4.296  0.00  0.00    +0.022 A 
ATOM     20  C   UNL     1      -6.300  -8.953  -5.354  0.00  0.00    +0.027 A 
ATOM     21  C   UNL     1      -7.616  -8.677  -5.596  0.00  0.00    +0.019 A 
ATOM     22  C   UNL     1      -8.304  -7.770  -4.799  0.00  0.00    +0.019 A 
ATOM     23  C   UNL     1      -7.673  -7.134  -3.752  0.00  0.00    +0.048 A 
ATOM     24  C   UNL     1      -6.335  -7.399  -3.486  0.00  0.00    +0.136 A 
ATOM     25  O   UNL     1      -5.473  -6.949  -2.553  0.00  0.00    -0.450 OA
ATOM     26 BR   UNL     1      -8.508  -9.534  -7.027  0.00  0.00    -0.050 Br
ENDBRANCH  14  17
BRANCH   1  30
ATOM     27  C   UNL     1      -1.758  -1.839   0.174  0.00  0.00    +0.121 A 
ATOM     28  C   UNL     1      -0.715  -2.576  -0.368  0.00  0.00    +0.046 A 
ATOM     29  C   UNL     1      -0.800  -3.954  -0.422  0.00  0.00    +0.009 A 
ATOM     30  C   UNL     1      -1.923  -4.598   0.063  0.00  0.00    -0.025 A 
ATOM     31  C   UNL     1      -2.964  -3.866   0.603  0.00  0.00    +0.009 A 
ATOM     32  C   UNL     1      -2.881  -2.489   0.665  0.00  0.00    +0.046 A 
BRANCH  27  33
ATOM     33  O   UNL     1      -1.677  -0.484   0.229  0.00  0.00    -0.492 OA
BRANCH  33  35
ATOM     34  C   UNL     1      -0.581   1.637  -0.147  0.00  0.00    +0.048 C 
ATOM     35  C   UNL     1      -0.491   0.117  -0.295  0.00  0.00    +0.225 C 
ENDBRANCH  33  35
ENDBRANCH  27  33
ENDBRANCH   1  30
TORSDOF 4
