REMARK  Name = ZINC60372408
REMARK  8 active torsions:
REMARK  status: ('A' for Active; 'I' for Inactive)
REMARK    1  A    between atoms: C_4  and  C_7
REMARK    2  A    between atoms: C_7  and  N_8
REMARK    3  A    between atoms: C_9  and  N_34
REMARK    4  A    between atoms: C_10  and  N_17
REMARK    5  A    between atoms: N_17  and  C_18
REMARK    6  A    between atoms: N_17  and  C_25
REMARK    7  A    between atoms: C_18  and  C_19
REMARK    8  A    between atoms: C_25  and  C_26
REMARK                            x       y       z     vdW  Elec       q    Type
REMARK                         _______ _______ _______ _____ _____    ______ ____
ROOT
ATOM      1  N   UNL     1       3.345  -1.530   3.077  0.00  0.00    -0.276 N 
ATOM      2  C   UNL     1       4.105  -0.608   3.760  0.00  0.00    +0.127 A 
ATOM      3  C   UNL     1       5.338  -0.263   3.274  0.00  0.00    +0.134 A 
ATOM      4  C   UNL     1       5.795  -0.862   2.087  0.00  0.00    +0.277 A 
ATOM      5  O   UNL     1       6.890  -0.571   1.635  0.00  0.00    -0.266 OA
ATOM      6  N   UNL     1       5.016  -1.760   1.452  0.00  0.00    -0.273 N 
ATOM      7  H   UNL     1       5.330  -2.175   0.633  0.00  0.00    +0.173 HD
ATOM      8  C   UNL     1       3.810  -2.091   1.946  0.00  0.00    +0.331 A 
ATOM      9  O   UNL     1       3.126  -2.908   1.359  0.00  0.00    -0.246 OA
ENDROOT
BRANCH   2  10
ATOM     10  N   UNL     1       3.631  -0.037   4.919  0.00  0.00    -0.343 N 
ATOM     11  H   UNL     1       2.729  -0.229   5.220  0.00  0.00    +0.144 HD
ATOM     12  H   UNL     1       4.199   0.556   5.435  0.00  0.00    +0.144 HD
ENDBRANCH   2  10
BRANCH   1  13
ATOM     13  C   UNL     1       2.025  -1.906   3.589  0.00  0.00    +0.163 C 
BRANCH  13  17
ATOM     14  C   UNL     1       2.418  -5.229   6.244  0.00  0.00    +0.000 A 
ATOM     15  C   UNL     1       2.497  -3.939   6.735  0.00  0.00    +0.000 A 
ATOM     16  C   UNL     1       2.370  -2.864   5.875  0.00  0.00    +0.005 A 
ATOM     17  C   UNL     1       2.164  -3.079   4.525  0.00  0.00    -0.028 A 
ATOM     18  C   UNL     1       2.086  -4.369   4.035  0.00  0.00    +0.005 A 
ATOM     19  C   UNL     1       2.212  -5.444   4.894  0.00  0.00    +0.000 A 
ENDBRANCH  13  17
ENDBRANCH   1  13
BRANCH   3  20
ATOM     20  N   UNL     1       6.139   0.682   3.956  0.00  0.00    -0.313 N 
BRANCH  20  21
ATOM     21  C   UNL     1       6.658   0.375   5.291  0.00  0.00    +0.140 C 
BRANCH  21  22
ATOM     22  C   UNL     1       8.054  -0.180   5.171  0.00  0.00    -0.030 A 
ATOM     23  C   UNL     1       8.244  -1.527   4.928  0.00  0.00    +0.005 A 
ATOM     24  C   UNL     1       9.524  -2.036   4.819  0.00  0.00    +0.000 A 
ATOM     25  C   UNL     1      10.615  -1.198   4.952  0.00  0.00    +0.000 A 
ATOM     26  C   UNL     1      10.426   0.150   5.194  0.00  0.00    +0.000 A 
ATOM     27  C   UNL     1       9.145   0.660   5.299  0.00  0.00    +0.005 A 
ENDBRANCH  21  22
ENDBRANCH  20  21
BRANCH  20  28
ATOM     28  C   UNL     1       6.449   1.968   3.327  0.00  0.00    +0.162 C 
BRANCH  28  29
ATOM     29  C   UNL     1       5.331   2.942   3.596  0.00  0.00    +0.078 A 
ATOM     30  C   UNL     1       5.297   3.844   4.592  0.00  0.00    +0.118 A 
ATOM     31  N   UNL     1       4.097   4.543   4.489  0.00  0.00    -0.300 N 
ATOM     32  C   UNL     1       3.439   5.558   5.147  0.00  0.00    +0.100 A 
ATOM     33  C   UNL     1       2.245   5.979   4.733  0.00  0.00    +0.067 A 
ATOM     34  S   UNL     1       1.953   4.926   3.321  0.00  0.00    -0.058 S 
ATOM     35  C   UNL     1       3.467   3.998   3.401  0.00  0.00    +0.178 A 
ATOM     36  N   UNL     1       4.203   3.060   2.879  0.00  0.00    -0.225 NA
ENDBRANCH  28  29
ENDBRANCH  20  28
ENDBRANCH   3  20
TORSDOF 8
