REMARK  Name = ZINC21230734
REMARK  5 active torsions:
REMARK  status: ('A' for Active; 'I' for Inactive)
REMARK    1  A    between atoms: C_4  and  C_7
REMARK    2  A    between atoms: C_7  and  O_8
REMARK    3  A    between atoms: O_8  and  C_9
REMARK    4  A    between atoms: C_14  and  C_15
REMARK    5  A    between atoms: C_26  and  C_29
REMARK                            x       y       z     vdW  Elec       q    Type
REMARK                         _______ _______ _______ _____ _____    ______ ____
ROOT
ATOM      1  C   UNL     1      -0.013   1.086   0.008  0.00  0.00    +0.066 C 
ATOM      2  C   UNL     1       1.422   1.616  -0.003  0.00  0.00    +0.109 C 
ATOM      3  C   UNL     1       1.405   3.093   0.295  0.00  0.00    +0.218 C 
ATOM      4  O   UNL     1       2.225   3.823  -0.220  0.00  0.00    -0.275 OA
ATOM      5  N   UNL     1       0.484   3.603   1.130  0.00  0.00    -0.289 N 
ATOM      6  C   UNL     1      -0.441   2.798   1.746  0.00  0.00    +0.018 C 
ATOM      7  C   UNL     1      -0.718   1.573   1.252  0.00  0.00    +0.020 C 
ATOM      8  C   UNL     1      -1.654   0.729   1.872  0.00  0.00    +0.162 C 
ATOM      9  O   UNL     1      -1.883  -0.363   1.393  0.00  0.00    -0.292 OA
ATOM     10  C   UNL     1      -2.376   1.157   3.122  0.00  0.00    +0.088 C 
ATOM     11  C   UNL     1      -1.491   2.138   3.897  0.00  0.00    +0.032 C 
ATOM     12  C   UNL     1      -1.141   3.312   2.979  0.00  0.00    +0.059 C 
ATOM     13  H   UNL     1       0.462   4.685   1.330  0.00  0.00    +0.155 HD
ENDROOT
BRANCH   1  19
ATOM     14  C   UNL     1      -1.267   0.683  -2.126  0.00  0.00    +0.125 A 
ATOM     15  C   UNL     1      -1.938   1.146  -3.248  0.00  0.00    +0.046 A 
ATOM     16  C   UNL     1      -2.083   2.504  -3.453  0.00  0.00    +0.004 A 
ATOM     17  C   UNL     1      -1.560   3.402  -2.541  0.00  0.00    +0.001 A 
ATOM     18  C   UNL     1      -0.894   2.943  -1.419  0.00  0.00    +0.008 A 
ATOM     19  C   UNL     1      -0.742   1.585  -1.212  0.00  0.00    +0.002 A 
BRANCH  14  20
ATOM     20  O   UNL     1      -1.123  -0.653  -1.921  0.00  0.00    -0.487 OA
BRANCH  20  21
ATOM     21  C   UNL     1      -1.688  -1.524  -2.903  0.00  0.00    +0.264 C 
BRANCH  21  25
ATOM     22  C   UNL     1      -0.961  -5.585  -1.794  0.00  0.00    +0.000 A 
ATOM     23  C   UNL     1      -2.109  -4.946  -1.364  0.00  0.00    +0.000 A 
ATOM     24  C   UNL     1      -2.344  -3.632  -1.722  0.00  0.00    +0.007 A 
ATOM     25  C   UNL     1      -1.431  -2.957  -2.512  0.00  0.00    -0.010 A 
ATOM     26  C   UNL     1      -0.286  -3.597  -2.946  0.00  0.00    +0.007 A 
ATOM     27  C   UNL     1      -0.048  -4.910  -2.583  0.00  0.00    +0.000 A 
ENDBRANCH  21  25
ENDBRANCH  20  21
ENDBRANCH  14  20
ENDBRANCH   1  19
BRANCH  11  28
ATOM     28  C   UNL     1      -2.236   2.646   5.105  0.00  0.00    -0.044 A 
ATOM     29  C   UNL     1      -3.433   3.318   4.947  0.00  0.00    +0.004 A 
ATOM     30  C   UNL     1      -4.119   3.779   6.055  0.00  0.00    +0.000 A 
ATOM     31  C   UNL     1      -3.602   3.577   7.321  0.00  0.00    +0.000 A 
ATOM     32  C   UNL     1      -2.401   2.909   7.479  0.00  0.00    +0.000 A 
ATOM     33  C   UNL     1      -1.718   2.444   6.371  0.00  0.00    +0.004 A 
ENDBRANCH  11  28
TORSDOF 5
