REMARK  Name = ZINC16099508
REMARK  8 active torsions:
REMARK  status: ('A' for Active; 'I' for Inactive)
REMARK    1  A    between atoms: C_1  and  C_2
REMARK    2  A    between atoms: C_4  and  C_22
REMARK    3  A    between atoms: C_5  and  S_9
REMARK    4  A    between atoms: C_6  and  C_8
REMARK    5  A    between atoms: S_9  and  N_12
REMARK    6  A    between atoms: N_12  and  N_13
REMARK    7  A    between atoms: C_16  and  C_21
REMARK    8  A    between atoms: C_18  and  C_20
REMARK                            x       y       z     vdW  Elec       q    Type
REMARK                         _______ _______ _______ _____ _____    ______ ____
ROOT
ATOM      1  S   UNL     1      -2.787   3.845  -0.595  0.00  0.00    +0.074 S 
ATOM      2  O   UNL     1      -3.798   2.949  -0.155  0.00  0.00    -0.152 OA
ATOM      3  O   UNL     1      -2.686   5.178  -0.112  0.00  0.00    -0.152 OA
ENDROOT
BRANCH   1   8
ATOM      4  C   UNL     1       2.501   1.183   0.574  0.00  0.00    +0.044 C 
ATOM      5  C   UNL     1       1.180   1.848   0.282  0.00  0.00    -0.050 A 
ATOM      6  C   UNL     1       0.019   1.098   0.256  0.00  0.00    +0.008 A 
ATOM      7  C   UNL     1      -1.191   1.707  -0.017  0.00  0.00    -0.024 A 
ATOM      8  C   UNL     1      -1.243   3.068  -0.253  0.00  0.00    +0.113 A 
ATOM      9  C   UNL     1      -0.082   3.818  -0.226  0.00  0.00    -0.024 A 
ATOM     10  C   UNL     1       1.129   3.208   0.042  0.00  0.00    +0.008 A 
ATOM     11  C   UNL     1      -0.137   5.301  -0.488  0.00  0.00    +0.046 C 
ATOM     12  C   UNL     1      -2.456   0.888  -0.052  0.00  0.00    +0.046 C 
ENDBRANCH   1   8
BRANCH   1  13
ATOM     13  N   UNL     1      -2.929   3.948  -2.241  0.00  0.00    -0.108 NA
ATOM     14  H   UNL     1      -3.020   4.815  -2.667  0.00  0.00    +0.172 HD
BRANCH  13  15
ATOM     15  N   UNL     1      -2.918   2.783  -3.020  0.00  0.00    -0.230 N 
ATOM     16  C   UNL     1      -3.960   2.525  -3.893  0.00  0.00    +0.231 A 
ATOM     17  N   UNL     1      -4.963   3.386  -3.976  0.00  0.00    -0.219 NA
ATOM     18  C   UNL     1      -5.972   3.171  -4.804  0.00  0.00    +0.044 A 
ATOM     19  C   UNL     1      -5.977   2.024  -5.581  0.00  0.00    +0.046 A 
ATOM     20  C   UNL     1      -4.915   1.141  -5.465  0.00  0.00    +0.044 A 
ATOM     21  N   UNL     1      -3.934   1.418  -4.621  0.00  0.00    -0.219 NA
ATOM     22  C   UNL     1      -4.877  -0.119  -6.291  0.00  0.00    +0.066 C 
ATOM     23  C   UNL     1      -7.106   4.160  -4.897  0.00  0.00    +0.066 C 
ATOM     24  H   UNL     1      -2.180   2.158  -2.947  0.00  0.00    +0.171 HD
ENDBRANCH  13  15
ENDBRANCH   1  13
TORSDOF 3
