REMARK  Name = ZINC15225996
REMARK  5 active torsions:
REMARK  status: ('A' for Active; 'I' for Inactive)
REMARK    1  A    between atoms: C_6  and  C_11
REMARK    2  A    between atoms: C_11  and  C_13
REMARK    3  A    between atoms: C_15  and  C_27
REMARK    4  A    between atoms: C_21  and  C_22
REMARK    5  A    between atoms: C_21  and  O_26
REMARK                            x       y       z     vdW  Elec       q    Type
REMARK                         _______ _______ _______ _____ _____    ______ ____
ROOT
ATOM      1  C   UNL     1       2.443  -0.476   0.011  0.00  0.00    +0.144 C 
ATOM      2  C   UNL     1       3.758  -1.098  -0.472  0.00  0.00    +0.120 C 
ATOM      3  N   UNL     1       4.847  -0.658   0.400  0.00  0.00    -0.292 N 
ATOM      4  C   UNL     1       4.630  -0.353   1.688  0.00  0.00    +0.302 C 
ATOM      5  O   UNL     1       5.572  -0.003   2.372  0.00  0.00    -0.253 OA
ATOM      6  N   UNL     1       3.414  -0.419   2.251  0.00  0.00    -0.264 N 
ATOM      7  C   UNL     1       2.242  -0.845   1.485  0.00  0.00    +0.243 C 
ATOM      8  H   UNL     1       5.745  -0.586   0.040  0.00  0.00    +0.151 HD
ATOM      9  H   UNL     1       3.310  -0.179   3.185  0.00  0.00    +0.153 HD
ENDROOT
BRANCH   2  10
ATOM     10  C   UNL     1       4.034  -0.656  -1.886  0.00  0.00    -0.024 A 
ATOM     11  C   UNL     1       4.672   0.548  -2.121  0.00  0.00    +0.005 A 
ATOM     12  C   UNL     1       4.931   0.953  -3.417  0.00  0.00    +0.003 A 
ATOM     13  C   UNL     1       4.543   0.159  -4.480  0.00  0.00    +0.038 A 
ATOM     14  C   UNL     1       3.900  -1.044  -4.246  0.00  0.00    +0.124 A 
ATOM     15  C   UNL     1       3.646  -1.451  -2.947  0.00  0.00    +0.043 A 
ATOM     16  F   UNL     1       3.521  -1.821  -5.285  0.00  0.00    -0.205 F 
ENDBRANCH   2  10
BRANCH   7  17
ATOM     17  C   UNL     1       0.995  -0.140   2.022  0.00  0.00    +0.436 C 
ATOM     18  F   UNL     1      -0.098  -0.435   1.201  0.00  0.00    -0.166 F 
ATOM     19  F   UNL     1       0.734  -0.582   3.324  0.00  0.00    -0.166 F 
ATOM     20  F   UNL     1       1.209   1.243   2.034  0.00  0.00    -0.166 F 
ENDBRANCH   7  17
BRANCH   1  21
ATOM     21  C   UNL     1       2.511   1.023  -0.131  0.00  0.00    +0.173 C 
ATOM     22  O   UNL     1       3.412   1.642   0.394  0.00  0.00    -0.292 OA
BRANCH  21  28
ATOM     23  C   UNL     1      -1.455   5.086  -3.163  0.00  0.00    +0.001 A 
ATOM     24  C   UNL     1      -0.493   5.821  -2.474  0.00  0.00    +0.001 A 
ATOM     25  C   UNL     1       0.475   5.200  -1.746  0.00  0.00    +0.008 A 
ATOM     26  C   UNL     1       0.505   3.794  -1.685  0.00  0.00    -0.017 A 
ATOM     27  C   UNL     1       1.488   3.123  -0.943  0.00  0.00    +0.020 A 
ATOM     28  C   UNL     1       1.484   1.735  -0.906  0.00  0.00    +0.019 A 
ATOM     29  C   UNL     1       0.505   1.005  -1.608  0.00  0.00    +0.012 A 
ATOM     30  C   UNL     1      -0.449   1.640  -2.334  0.00  0.00    +0.009 A 
ATOM     31  C   UNL     1      -0.475   3.046  -2.386  0.00  0.00    -0.018 A 
ATOM     32  C   UNL     1      -1.457   3.724  -3.127  0.00  0.00    +0.008 A 
ENDBRANCH  21  28
ENDBRANCH   1  21
BRANCH   7  33
ATOM     33  O   UNL     1       2.082  -2.260   1.605  0.00  0.00    -0.364 OA
ATOM     34  H   UNL     1       1.950  -2.564   2.513  0.00  0.00    +0.212 HD
ENDBRANCH   7  33
TORSDOF 5
