REMARK  Name = ZINC08720986
REMARK  8 active torsions:
REMARK  status: ('A' for Active; 'I' for Inactive)
REMARK    1  A    between atoms: C_3  and  C_8
REMARK    2  A    between atoms: N_10  and  C_11
REMARK    3  A    between atoms: C_11  and  C_22
REMARK    4  A    between atoms: C_12  and  C_13
REMARK    5  A    between atoms: N_24  and  C_25
REMARK    6  A    between atoms: C_25  and  C_26
REMARK    7  A    between atoms: C_26  and  C_27
REMARK    8  A    between atoms: C_27  and  C_28
REMARK                            x       y       z     vdW  Elec       q    Type
REMARK                         _______ _______ _______ _____ _____    ______ ____
ROOT
ATOM      1  C   UNL     1      -1.198   1.646  -0.421  0.00  0.00    +0.097 C 
ATOM      2  C   UNL     1      -1.260   2.987  -0.244  0.00  0.00    +0.036 C 
ENDROOT
BRANCH   2   3
ATOM      3  C   UNL     1      -0.024   3.780  -0.195  0.00  0.00    -0.019 A 
ATOM      4  C   UNL     1      -0.033   5.058   0.375  0.00  0.00    +0.012 A 
ATOM      5  C   UNL     1       1.129   5.797   0.425  0.00  0.00    +0.050 A 
ATOM      6  C   UNL     1       2.308   5.284  -0.099  0.00  0.00    +0.166 A 
ATOM      7  C   UNL     1       2.323   4.012  -0.673  0.00  0.00    +0.167 A 
ATOM      8  C   UNL     1       1.164   3.262  -0.722  0.00  0.00    +0.057 A 
ATOM      9  O   UNL     1       3.590   3.745  -1.107  0.00  0.00    -0.453 OA
ATOM     10  C   UNL     1       4.436   4.692  -0.428  0.00  0.00    +0.466 C 
ATOM     11  O   UNL     1       3.565   5.810  -0.175  0.00  0.00    -0.453 OA
ENDBRANCH   2   3
BRANCH   1  14
ATOM     12  C   UNL     1       0.425   0.264  -1.478  0.00  0.00    +0.248 C 
ATOM     13  O   UNL     1      -0.347   0.077  -2.398  0.00  0.00    -0.270 OA
ATOM     14  N   UNL     1       0.042   0.996  -0.413  0.00  0.00    -0.277 N 
ATOM     15  H   UNL     1       0.623   1.070   0.360  0.00  0.00    +0.155 HD
BRANCH  12  18
ATOM     16  C   UNL     1       3.907  -0.731  -0.480  0.00  0.00    +0.002 A 
ATOM     17  C   UNL     1       2.639  -0.189  -0.429  0.00  0.00    +0.013 A 
ATOM     18  C   UNL     1       1.786  -0.312  -1.527  0.00  0.00    +0.038 A 
ATOM     19  C   UNL     1       2.225  -0.976  -2.674  0.00  0.00    +0.028 A 
ATOM     20  C   UNL     1       3.497  -1.511  -2.713  0.00  0.00    +0.019 A 
ATOM     21  C   UNL     1       4.336  -1.389  -1.619  0.00  0.00    +0.015 A 
ATOM     22 BR   UNL     1       4.094  -2.411  -4.265  0.00  0.00    -0.050 Br
ENDBRANCH  12  18
ENDBRANCH   1  14
BRANCH   1  23
ATOM     23  C   UNL     1      -2.430   0.873  -0.622  0.00  0.00    +0.258 C 
ATOM     24  O   UNL     1      -2.374  -0.332  -0.781  0.00  0.00    -0.269 OA
ATOM     25  N   UNL     1      -3.624   1.499  -0.629  0.00  0.00    -0.310 N 
ATOM     26  H   UNL     1      -3.669   2.459  -0.502  0.00  0.00    +0.149 HD
BRANCH  25  27
ATOM     27  C   UNL     1      -4.854   0.728  -0.829  0.00  0.00    +0.105 C 
BRANCH  27  28
ATOM     28  C   UNL     1      -6.058   1.671  -0.794  0.00  0.00    +0.030 C 
BRANCH  28  29
ATOM     29  C   UNL     1      -7.342   0.866  -1.003  0.00  0.00    +0.126 C 
BRANCH  29  30
ATOM     30  C   UNL     1      -8.529   1.794  -0.969  0.00  0.00    +0.356 C 
ATOM     31  O   UNL     1      -8.364   2.979  -0.795  0.00  0.00    -0.246 OA
ATOM     32  O   UNL     1      -9.768   1.306  -1.131  0.00  0.00    -0.246 OA
ENDBRANCH  29  30
ENDBRANCH  28  29
ENDBRANCH  27  28
ENDBRANCH  25  27
ENDBRANCH   1  23
TORSDOF 8
