REMARK  Name = ZINC39939496
REMARK  6 active torsions:
REMARK  status: ('A' for Active; 'I' for Inactive)
REMARK    1  A    between atoms: C_4  and  N_7
REMARK    2  A    between atoms: N_7  and  C_8
REMARK    3  A    between atoms: C_16  and  C_18
REMARK    4  A    between atoms: C_18  and  S_19
REMARK    5  A    between atoms: S_19  and  C_20
REMARK    6  A    between atoms: C_24  and  C_26
REMARK                            x       y       z     vdW  Elec       q    Type
REMARK                         _______ _______ _______ _____ _____    ______ ____
ROOT
ATOM      1  C   UNL     1       6.076  -0.642  -0.319  0.00  0.00    +0.170 C 
ENDROOT
BRANCH   1   3
ATOM      2  N   UNL     1       3.619  -0.651  -0.038  0.00  0.00    -0.266 N 
ATOM      3  C   UNL     1       4.754   0.065  -0.166  0.00  0.00    +0.230 C 
ATOM      4  O   UNL     1       4.711   1.276  -0.159  0.00  0.00    -0.274 OA
BRANCH   2   5
ATOM      5  C   UNL     1       3.681  -2.110   0.074  0.00  0.00    +0.104 C 
ATOM      6  C   UNL     1       3.001  -2.754  -1.146  0.00  0.00    +0.047 C 
ATOM      7  C   UNL     1       2.776  -4.263  -0.889  0.00  0.00    +0.168 C 
ATOM      8  S   UNL     1       2.621  -4.343   0.942  0.00  0.00    -0.029 S 
ATOM      9  O   UNL     1       1.281  -4.673   1.279  0.00  0.00    -0.174 OA
ATOM     10  O   UNL     1       3.686  -5.127   1.462  0.00  0.00    -0.174 OA
ATOM     11  C   UNL     1       2.923  -2.572   1.351  0.00  0.00    +0.188 C 
ENDBRANCH   2   5
BRANCH   2  15
ATOM     12  C   UNL     1      -0.068   1.289   0.040  0.00  0.00    +0.000 A 
ATOM     13  C   UNL     1       1.101   2.028   0.045  0.00  0.00    +0.002 A 
ATOM     14  C   UNL     1       2.325   1.388   0.019  0.00  0.00    +0.023 A 
ATOM     15  C   UNL     1       2.381   0.001  -0.011  0.00  0.00    +0.037 A 
ATOM     16  C   UNL     1       1.205  -0.739  -0.016  0.00  0.00    +0.023 A 
ATOM     17  C   UNL     1      -0.015  -0.092   0.009  0.00  0.00    +0.002 A 
ENDBRANCH   2  15
ENDBRANCH   1   3
BRANCH   1  18
ATOM     18  S   UNL     1       7.384   0.580  -0.616  0.00  0.00    -0.087 S 
BRANCH  18  19
ATOM     19  C   UNL     1       8.890  -0.419  -0.775  0.00  0.00    +0.339 C 
ATOM     20  N   UNL     1       8.747  -1.394  -1.870  0.00  0.00    -0.219 N 
ATOM     21  N   UNL     1       8.866  -2.655  -1.268  0.00  0.00    -0.145 NA
ATOM     22  C   UNL     1       9.056  -2.523   0.018  0.00  0.00    +0.238 C 
ATOM     23  O   UNL     1       9.085  -1.220   0.399  0.00  0.00    -0.443 OA
ATOM     24  H   UNL     1       8.602  -1.204  -2.810  0.00  0.00    +0.173 HD
BRANCH  22  25
ATOM     25  C   UNL     1       9.213  -3.600   0.902  0.00  0.00    +0.043 C 
ATOM     26  C   UNL     1       9.202  -4.960   0.585  0.00  0.00    +0.008 A 
ATOM     27  C   UNL     1       9.042  -5.653  -0.633  0.00  0.00    +0.010 A 
ATOM     28  C   UNL     1       9.076  -7.011  -0.645  0.00  0.00    +0.001 A 
ATOM     29  C   UNL     1       9.267  -7.747   0.526  0.00  0.00    +0.002 A 
ATOM     30  C   UNL     1       9.427  -7.147   1.731  0.00  0.00    +0.026 A 
ATOM     31  C   UNL     1       9.403  -5.731   1.822  0.00  0.00    +0.043 A 
ATOM     32  N   UNL     1       9.533  -4.921   2.855  0.00  0.00    -0.380 N 
ATOM     33  C   UNL     1       9.436  -3.532   2.396  0.00  0.00    +0.154 C 
ATOM     34  H   UNL     1       9.675  -5.201   3.773  0.00  0.00    +0.160 HD
ENDBRANCH  22  25
ENDBRANCH  18  19
ENDBRANCH   1  18
TORSDOF 6
