REMARK  Name = ZINC37738122
REMARK  5 active torsions:
REMARK  status: ('A' for Active; 'I' for Inactive)
REMARK    1  A    between atoms: C_1  and  C_2
REMARK    2  A    between atoms: C_2  and  C_4
REMARK    3  A    between atoms: C_2  and  N_14
REMARK    4  A    between atoms: N_14  and  C_15
REMARK    5  A    between atoms: C_15  and  C_16
REMARK                            x       y       z     vdW  Elec       q    Type
REMARK                         _______ _______ _______ _____ _____    ______ ____
ROOT
ATOM      1  C   UNL     1      -0.019   1.526   0.010  0.00  0.00    -0.006 C 
ATOM      2  C   UNL     1       0.002  -0.004   0.002  0.00  0.00    -0.007 C 
ENDROOT
BRANCH   2   3
ATOM      3  C   UNL     1       0.731  -0.503   1.223  0.00  0.00    +0.092 A 
ATOM      4  C   UNL     1       0.140  -0.958   2.336  0.00  0.00    +0.051 A 
ATOM      5  C   UNL     1       1.225  -1.333   3.251  0.00  0.00    +0.021 A 
ATOM      6  C   UNL     1       1.274  -1.860   4.541  0.00  0.00    +0.027 A 
ATOM      7  C   UNL     1       2.495  -2.103   5.131  0.00  0.00    +0.019 A 
ATOM      8  C   UNL     1       3.671  -1.823   4.447  0.00  0.00    +0.019 A 
ATOM      9  C   UNL     1       3.635  -1.302   3.172  0.00  0.00    +0.048 A 
ATOM     10  C   UNL     1       2.415  -1.051   2.559  0.00  0.00    +0.135 A 
ATOM     11  O   UNL     1       2.068  -0.562   1.351  0.00  0.00    -0.461 OA
ATOM     12 BR   UNL     1       2.570  -2.818   6.880  0.00  0.00    -0.050 Br
ENDBRANCH   2   3
BRANCH   2  13
ATOM     13  N   UNL     1       0.690  -0.478  -1.207  0.00  0.00    +0.386 N 
ATOM     14  H   UNL     1       1.608  -0.063  -1.256  0.00  0.00    -0.085 HD
ATOM     15  H   UNL     1       0.776  -1.482  -1.172  0.00  0.00    -0.085 HD
BRANCH  13  16
ATOM     16  C   UNL     1      -0.086  -0.093  -2.394  0.00  0.00    -0.076 C 
BRANCH  16  17
ATOM     17  C   UNL     1       0.630  -0.587  -3.652  0.00  0.00    -0.000 C 
ATOM     18  C   UNL     1      -0.126  -0.125  -4.922  0.00  0.00    +0.032 C 
ATOM     19  C   UNL     1      -0.032  -1.379  -5.829  0.00  0.00    +0.160 C 
ATOM     20  O   UNL     1      -0.162  -2.477  -4.900  0.00  0.00    -0.380 OA
ATOM     21  C   UNL     1       0.594  -2.125  -3.725  0.00  0.00    +0.161 C 
ENDBRANCH  16  17
ENDBRANCH  13  16
ENDBRANCH   2  13
TORSDOF 4
