REMARK  Name = ZINC24900034
REMARK  13 active torsions:
REMARK  status: ('A' for Active; 'I' for Inactive)
REMARK    1  A    between atoms: C_1  and  C_2
REMARK    2  A    between atoms: C_2  and  C_3
REMARK    3  A    between atoms: C_2  and  C_4
REMARK    4  A    between atoms: C_7  and  O_10
REMARK    5  A    between atoms: O_10  and  C_11
REMARK    6  A    between atoms: C_11  and  C_12
REMARK    7  A    between atoms: C_15  and  S_18
REMARK    8  A    between atoms: N_16  and  N_17
REMARK    9  A    between atoms: S_18  and  C_19
REMARK   10  A    between atoms: C_19  and  C_20
REMARK   11  A    between atoms: C_20  and  C_21
REMARK   12  A    between atoms: N_23  and  C_24
REMARK   13  A    between atoms: C_29  and  C_30
REMARK                            x       y       z     vdW  Elec       q    Type
REMARK                         _______ _______ _______ _____ _____    ______ ____
ROOT
ATOM      1  C   UNL     1      10.473   4.183  -0.787  0.00  0.00    +0.189 A 
ATOM      2  N   UNL     1       9.418   4.941  -0.682  0.00  0.00    -0.128 NA
ATOM      3  N   UNL     1       8.361   4.215  -0.587  0.00  0.00    -0.121 NA
ATOM      4  C   UNL     1       8.688   2.945  -0.618  0.00  0.00    +0.208 A 
ATOM      5  N   UNL     1      10.046   2.884  -0.751  0.00  0.00    -0.225 N 
ENDROOT
BRANCH   5   6
ATOM      6  N   UNL     1      10.818   1.760  -0.830  0.00  0.00    -0.295 N 
ATOM      7  H   UNL     1      10.348   0.766  -0.787  0.00  0.00    +0.163 HD
ATOM      8  H   UNL     1      11.909   1.848  -0.935  0.00  0.00    +0.163 HD
ENDBRANCH   5   6
BRANCH   1   9
ATOM      9  C   UNL     1      11.899   4.651  -0.925  0.00  0.00    +0.306 C 
BRANCH   9  10
ATOM     10  O   UNL     1      12.219   4.803  -2.309  0.00  0.00    -0.484 OA
BRANCH  10  14
ATOM     11  C   UNL     1      16.037   6.075  -3.219  0.00  0.00    -0.045 A 
ATOM     12  C   UNL     1      15.134   5.818  -4.234  0.00  0.00    +0.007 A 
ATOM     13  C   UNL     1      13.855   5.392  -3.932  0.00  0.00    +0.046 A 
ATOM     14  C   UNL     1      13.477   5.222  -2.609  0.00  0.00    +0.121 A 
ATOM     15  C   UNL     1      14.382   5.487  -1.591  0.00  0.00    +0.046 A 
ATOM     16  C   UNL     1      15.662   5.906  -1.899  0.00  0.00    +0.007 A 
BRANCH  11  18
ATOM     17  C   UNL     1      17.676   7.911  -2.919  0.00  0.00    +0.012 C 
ATOM     18  C   UNL     1      17.431   6.540  -3.551  0.00  0.00    +0.013 C 
ATOM     19  C   UNL     1      18.447   5.536  -3.002  0.00  0.00    +0.012 C 
ENDBRANCH  11  18
ENDBRANCH  10  14
ENDBRANCH   9  10
ENDBRANCH   1   9
BRANCH   4  20
ATOM     20  S   UNL     1       7.584   1.576  -0.516  0.00  0.00    -0.084 S 
BRANCH  20  21
ATOM     21  C   UNL     1       6.009   2.454  -0.360  0.00  0.00    +0.086 C 
BRANCH  21  22
ATOM     22  C   UNL     1       4.868   1.440  -0.253  0.00  0.00    +0.107 C 
BRANCH  22  23
ATOM     23  C   UNL     1       3.557   2.171  -0.122  0.00  0.00    +0.218 C 
ATOM     24  O   UNL     1       3.537   3.383  -0.116  0.00  0.00    -0.275 OA
ATOM     25  N   UNL     1       2.406   1.477  -0.013  0.00  0.00    -0.284 N 
ATOM     26  H   UNL     1       2.431   0.381   0.072  0.00  0.00    +0.155 HD
BRANCH  25  27
ATOM     27  C   UNL     1       1.185   2.149  -0.009  0.00  0.00    +0.051 A 
ATOM     28  C   UNL     1       1.073   3.396  -0.608  0.00  0.00    +0.024 A 
ATOM     29  C   UNL     1      -0.138   4.060  -0.603  0.00  0.00    +0.002 A 
ATOM     30  C   UNL     1      -1.248   3.489  -0.001  0.00  0.00    +0.001 A 
ATOM     31  C   UNL     1      -1.157   2.249   0.594  0.00  0.00    +0.021 A 
ATOM     32  C   UNL     1       0.063   1.568   0.602  0.00  0.00    +0.073 A 
BRANCH  32  33
ATOM     33  C   UNL     1       0.166   0.282   1.223  0.00  0.00    +0.101 C 
ATOM     34  N   UNL     1       0.248  -0.738   1.716  0.00  0.00    -0.191 NA
ENDBRANCH  32  33
ENDBRANCH  25  27
ENDBRANCH  22  23
ENDBRANCH  21  22
ENDBRANCH  20  21
ENDBRANCH   4  20
TORSDOF 11
