REMARK  Name = ZINC13940499
REMARK  12 active torsions:
REMARK  status: ('A' for Active; 'I' for Inactive)
REMARK    1  A    between atoms: C_1  and  C_2
REMARK    2  A    between atoms: C_2  and  C_3
REMARK    3  A    between atoms: C_2  and  C_4
REMARK    4  A    between atoms: C_2  and  C_5
REMARK    5  A    between atoms: C_7  and  C_16
REMARK    6  A    between atoms: C_9  and  C_12
REMARK    7  A    between atoms: C_10  and  O_11
REMARK    8  A    between atoms: C_12  and  C_13
REMARK    9  A    between atoms: C_12  and  C_14
REMARK   10  A    between atoms: C_12  and  C_15
REMARK   11  A    between atoms: N_17  and  N_18
REMARK   12  A    between atoms: C_19  and  C_21
REMARK                            x       y       z     vdW  Elec       q    Type
REMARK                         _______ _______ _______ _____ _____    ______ ____
ROOT
ATOM      1  C   UNL     1      -4.792   5.282   0.386  0.00  0.00    +0.000 A 
ATOM      2  C   UNL     1      -4.860   3.908   0.305  0.00  0.00    +0.017 A 
ATOM      3  C   UNL     1      -3.687   3.160   0.169  0.00  0.00    -0.005 A 
ATOM      4  C   UNL     1      -2.450   3.809   0.121  0.00  0.00    +0.017 A 
ATOM      5  C   UNL     1      -2.393   5.184   0.197  0.00  0.00    +0.000 A 
ATOM      6  C   UNL     1      -3.562   5.923   0.333  0.00  0.00    +0.124 A 
ENDROOT
BRANCH   1   8
ATOM      7  C   UNL     1      -7.259   5.146   0.606  0.00  0.00    +0.015 C 
ATOM      8  C   UNL     1      -6.056   6.090   0.534  0.00  0.00    -0.009 C 
ATOM      9  C   UNL     1      -5.983   6.922   1.815  0.00  0.00    +0.015 C 
ATOM     10  C   UNL     1      -6.210   7.020  -0.671  0.00  0.00    +0.015 C 
ENDBRANCH   1   8
BRANCH   5  11
ATOM     11  C   UNL     1      -1.061   5.886   0.139  0.00  0.00    -0.009 C 
ATOM     12  C   UNL     1       0.048   4.857  -0.090  0.00  0.00    +0.015 C 
ATOM     13  C   UNL     1      -1.066   6.895  -1.011  0.00  0.00    +0.015 C 
ATOM     14  C   UNL     1      -0.813   6.618   1.459  0.00  0.00    +0.015 C 
ENDBRANCH   5  11
BRANCH   6  15
ATOM     15  O   UNL     1      -3.500   7.278   0.413  0.00  0.00    -0.506 OA
ATOM     16  H   UNL     1      -3.415   7.615   1.315  0.00  0.00    +0.292 HD
ENDBRANCH   6  15
BRANCH   3  17
ATOM     17  C   UNL     1      -3.754   1.690   0.083  0.00  0.00    +0.138 C 
ATOM     18  N   UNL     1      -4.858   1.110  -0.278  0.00  0.00    -0.187 NA
BRANCH  18  19
ATOM     19  N   UNL     1      -5.866   1.853  -0.907  0.00  0.00    -0.202 N 
ATOM     20  C   UNL     1      -7.069   1.293  -1.140  0.00  0.00    +0.283 C 
ATOM     21  O   UNL     1      -7.313   0.178  -0.721  0.00  0.00    -0.267 OA
ATOM     22  H   UNL     1      -5.697   2.770  -1.175  0.00  0.00    +0.178 HD
BRANCH  20  23
ATOM     23  C   UNL     1      -8.097   2.038  -1.902  0.00  0.00    +0.145 A 
ATOM     24  C   UNL     1      -9.309   1.427  -2.225  0.00  0.00    +0.143 A 
ATOM     25  N   UNL     1     -10.223   2.096  -2.904  0.00  0.00    -0.259 NA
ATOM     26  C   UNL     1      -9.990   3.342  -3.278  0.00  0.00    +0.130 A 
ATOM     27  C   UNL     1      -8.786   3.953  -2.959  0.00  0.00    +0.131 A 
ATOM     28  N   UNL     1      -7.870   3.294  -2.277  0.00  0.00    -0.247 NA
ENDBRANCH  20  23
ENDBRANCH  18  19
ENDBRANCH   3  17
TORSDOF 6
