REMARK  Name = ZINC62966113
REMARK  5 active torsions:
REMARK  status: ('A' for Active; 'I' for Inactive)
REMARK    1  A    between atoms: C_1  and  N_2
REMARK    2  A    between atoms: N_2  and  C_3
REMARK    3  A    between atoms: N_2  and  C_4
REMARK    4  A    between atoms: N_8  and  C_10
REMARK    5  A    between atoms: C_15  and  C_16
REMARK                            x       y       z     vdW  Elec       q    Type
REMARK                         _______ _______ _______ _____ _____    ______ ____
ROOT
ATOM      1  C   UNL     1       0.713  -0.491   1.192  0.00  0.00    -0.050 C 
ATOM      2  C   UNL     1      -0.043  -0.088   2.486  0.00  0.00    +0.005 C 
ATOM      3  C   UNL     1       0.413  -1.194   3.470  0.00  0.00    +0.103 C 
ATOM      4  N   UNL     1       0.493  -2.417   2.652  0.00  0.00    -0.331 N 
ATOM      5  C   UNL     1       0.698  -2.033   1.244  0.00  0.00    +0.090 C 
ENDROOT
BRANCH   4   6
ATOM      6  C   UNL     1       0.396  -3.716   3.128  0.00  0.00    +0.041 A 
ATOM      7  C   UNL     1      -0.841  -4.343   3.201  0.00  0.00    +0.039 A 
ATOM      8  C   UNL     1      -0.935  -5.636   3.676  0.00  0.00    +0.020 A 
ATOM      9  C   UNL     1       0.202  -6.321   4.083  0.00  0.00    +0.016 A 
ATOM     10  C   UNL     1       1.438  -5.719   4.018  0.00  0.00    +0.014 A 
ATOM     11  C   UNL     1       1.552  -4.409   3.535  0.00  0.00    +0.035 A 
ATOM     12 BR   UNL     1      -2.624  -6.481   3.772  0.00  0.00    -0.050 Br
BRANCH  11  13
ATOM     13  C   UNL     1       2.865  -3.762   3.458  0.00  0.00    +0.260 C 
ATOM     14  O   UNL     1       3.859  -4.363   3.809  0.00  0.00    -0.296 OA
ENDBRANCH  11  13
ENDBRANCH   4   6
BRANCH   1  16
ATOM     15  C   UNL     1      -0.018   1.465   0.010  0.00  0.00    -0.096 C 
ATOM     16  N   UNL     1       0.002  -0.004   0.002  0.00  0.00    +0.379 N 
ATOM     17  C   UNL     1       0.690  -0.478  -1.207  0.00  0.00    -0.096 C 
ATOM     18  H   UNL     1      -0.945  -0.353   0.009  0.00  0.00    -0.082 HD
ENDBRANCH   1  16
TORSDOF 3
