REMARK  Name = ZINC09961482
REMARK  7 active torsions:
REMARK  status: ('A' for Active; 'I' for Inactive)
REMARK    1  A    between atoms: C_4  and  N_29
REMARK    2  A    between atoms: C_5  and  N_7
REMARK    3  A    between atoms: N_7  and  C_8
REMARK    4  A    between atoms: C_8  and  C_9
REMARK    5  A    between atoms: C_9  and  N_10
REMARK    6  A    between atoms: C_18  and  C_20
REMARK    7  A    between atoms: C_20  and  N_58
REMARK                            x       y       z     vdW  Elec       q    Type
REMARK                         _______ _______ _______ _____ _____    ______ ____
ROOT
ATOM      1  N   UNL     1      -0.018   0.985  -0.180  0.00  0.00    -0.327 N 
ATOM      2  C   UNL     1       1.172   1.690  -0.138  0.00  0.00    +0.131 A 
ATOM      3  C   UNL     1       2.413   1.024  -0.335  0.00  0.00    +0.051 A 
ATOM      4  C   UNL     1       2.652  -0.403  -0.606  0.00  0.00    -0.025 A 
ATOM      5  C   UNL     1       3.930  -0.784  -0.764  0.00  0.00    -0.004 A 
ATOM      6  S   UNL     1       4.885   0.704  -0.571  0.00  0.00    -0.073 S 
ATOM      7  C   UNL     1       3.557   1.840  -0.278  0.00  0.00    +0.114 A 
ATOM      8  N   UNL     1       3.468   3.136  -0.044  0.00  0.00    -0.227 NA
ATOM      9  C   UNL     1       2.289   3.699   0.137  0.00  0.00    +0.116 A 
ATOM     10  N   UNL     1       1.173   2.994   0.090  0.00  0.00    -0.219 NA
ATOM     11  C   UNL     1       4.053  -2.260  -1.034  0.00  0.00    +0.043 C 
ATOM     12  C   UNL     1       2.633  -2.697  -1.456  0.00  0.00    +0.010 C 
ATOM     13  C   UNL     1       1.759  -1.638  -0.755  0.00  0.00    +0.037 C 
ATOM     14  H   UNL     1      -0.010   0.030  -0.348  0.00  0.00    +0.148 HD
ENDROOT
BRANCH   1  15
ATOM     15  C   UNL     1      -1.290   1.682   0.024  0.00  0.00    +0.121 C 
BRANCH  15  16
ATOM     16  C   UNL     1      -2.442   0.681  -0.078  0.00  0.00    +0.120 C 
BRANCH  16  17
ATOM     17  N   UNL     1      -3.715   1.378   0.126  0.00  0.00    -0.341 N 
ATOM     18  H   UNL     1      -3.723   2.334   0.294  0.00  0.00    +0.146 HD
BRANCH  17  23
ATOM     19  C   UNL     1      -6.091  -1.417  -0.081  0.00  0.00    +0.002 A 
ATOM     20  C   UNL     1      -7.296  -0.741  -0.016  0.00  0.00    +0.002 A 
ATOM     21  C   UNL     1      -7.314   0.637   0.096  0.00  0.00    +0.034 A 
ATOM     22  C   UNL     1      -6.128   1.343   0.143  0.00  0.00    +0.147 A 
ATOM     23  C   UNL     1      -4.916   0.667   0.078  0.00  0.00    +0.058 A 
ATOM     24  C   UNL     1      -4.902  -0.717  -0.040  0.00  0.00    +0.025 A 
BRANCH  22  25
ATOM     25  N   UNL     1      -6.148   2.818   0.263  0.00  0.00    +0.058 N 
ATOM     26  O   UNL     1      -6.989   3.362   0.956  0.00  0.00    -0.126 OA
ATOM     27  O   UNL     1      -5.323   3.489  -0.332  0.00  0.00    -0.126 OA
ENDBRANCH  22  25
ENDBRANCH  17  23
ENDBRANCH  16  17
ENDBRANCH  15  16
ENDBRANCH   1  15
BRANCH   9  28
ATOM     28  C   UNL     1       2.213   5.180   0.402  0.00  0.00    -0.001 C 
BRANCH  28  34
ATOM     29  C   UNL     1       1.094   4.891   2.530  0.00  0.00    -0.050 C 
ATOM     30  C   UNL     1       1.235   5.111   4.039  0.00  0.00    +0.141 C 
ATOM     31  O   UNL     1       1.429   6.505   4.296  0.00  0.00    -0.383 OA
ATOM     32  C   UNL     1       2.579   7.055   3.648  0.00  0.00    +0.141 C 
ATOM     33  C   UNL     1       2.451   6.855   2.136  0.00  0.00    -0.050 C 
ATOM     34  N   UNL     1       2.305   5.410   1.860  0.00  0.00    +0.387 N 
ATOM     35  H   UNL     1       3.127   4.915   2.225  0.00  0.00    -0.081 HD
ENDBRANCH  28  34
ENDBRANCH   9  28
TORSDOF 7
