REMARK  Name = ZINC05459359
REMARK  6 active torsions:
REMARK  status: ('A' for Active; 'I' for Inactive)
REMARK    1  A    between atoms: C_4  and  C_7
REMARK    2  A    between atoms: C_16  and  C_28
REMARK    3  A    between atoms: C_19  and  C_22
REMARK    4  A    between atoms: C_28  and  C_30
REMARK    5  A    between atoms: C_28  and  O_32
REMARK    6  A    between atoms: C_30  and  O_31
REMARK                            x       y       z     vdW  Elec       q    Type
REMARK                         _______ _______ _______ _____ _____    ______ ____
ROOT
ATOM      1  C   UNL     1      -0.707   2.989   1.289  0.00  0.00    +0.282 C 
ATOM      2  O   UNL     1       0.632   3.488   1.305  0.00  0.00    -0.345 OA
ATOM      3  C   UNL     1       1.389   3.146   0.140  0.00  0.00    +0.197 C 
ATOM      4  C   UNL     1       1.424   1.621  -0.003  0.00  0.00    +0.179 C 
ATOM      5  C   UNL     1      -0.013   1.086   0.008  0.00  0.00    +0.184 C 
ATOM      6  O   UNL     1      -0.676   1.551   1.186  0.00  0.00    -0.339 OA
ATOM      7  C   UNL     1      -0.744   1.598  -1.237  0.00  0.00    +0.184 C 
ATOM      8  O   UNL     1       0.014   1.251  -2.400  0.00  0.00    -0.339 OA
ATOM      9  C   UNL     1       1.346   1.769  -2.393  0.00  0.00    +0.283 C 
ATOM     10  O   UNL     1       2.042   1.277  -1.246  0.00  0.00    -0.339 OA
ENDROOT
BRANCH   1  14
ATOM     11  C   UNL     1      -2.686   4.101   4.907  0.00  0.00    +0.000 A 
ATOM     12  C   UNL     1      -2.192   5.077   4.062  0.00  0.00    +0.000 A 
ATOM     13  C   UNL     1      -1.551   4.717   2.891  0.00  0.00    +0.008 A 
ATOM     14  C   UNL     1      -1.405   3.381   2.566  0.00  0.00    +0.008 A 
ATOM     15  C   UNL     1      -1.905   2.406   3.408  0.00  0.00    +0.008 A 
ATOM     16  C   UNL     1      -2.541   2.766   4.582  0.00  0.00    +0.000 A 
ENDBRANCH   1  14
BRANCH   9  17
ATOM     17  C   UNL     1       2.063   1.328  -3.643  0.00  0.00    +0.008 A 
ATOM     18  C   UNL     1       1.411   0.537  -4.572  0.00  0.00    +0.008 A 
ATOM     19  C   UNL     1       2.067   0.136  -5.720  0.00  0.00    +0.000 A 
ATOM     20  C   UNL     1       3.378   0.517  -5.936  0.00  0.00    +0.000 A 
ATOM     21  C   UNL     1       4.032   1.303  -5.006  0.00  0.00    +0.000 A 
ATOM     22  C   UNL     1       3.374   1.708  -3.859  0.00  0.00    +0.008 A 
ENDBRANCH   9  17
BRANCH   7  23
ATOM     23  C   UNL     1      -2.129   0.953  -1.318  0.00  0.00    +0.171 C 
BRANCH  23  24
ATOM     24  O   UNL     1      -1.996  -0.469  -1.281  0.00  0.00    -0.387 OA
ATOM     25  H   UNL     1      -1.469  -0.833  -2.005  0.00  0.00    +0.210 HD
ENDBRANCH  23  24
BRANCH  23  26
ATOM     26  C   UNL     1      -2.809   1.368  -2.624  0.00  0.00    +0.189 C 
BRANCH  26  27
ATOM     27  O   UNL     1      -4.146   0.862  -2.647  0.00  0.00    -0.392 OA
ATOM     28  H   UNL     1      -4.638   1.088  -3.448  0.00  0.00    +0.210 HD
ENDBRANCH  26  27
ENDBRANCH  23  26
ENDBRANCH   7  23
TORSDOF 6
