REMARK  Name = ZINC12172489
REMARK  12 active torsions:
REMARK  status: ('A' for Active; 'I' for Inactive)
REMARK    1  A    between atoms: C_1  and  C_2
REMARK    2  A    between atoms: C_2  and  O_3
REMARK    3  A    between atoms: O_3  and  C_4
REMARK    4  A    between atoms: C_4  and  C_6
REMARK    5  A    between atoms: C_7  and  C_23
REMARK    6  A    between atoms: C_9  and  N_22
REMARK    7  A    between atoms: C_10  and  C_20
REMARK    8  A    between atoms: C_11  and  C_13
REMARK    9  A    between atoms: C_23  and  S_24
REMARK   10  A    between atoms: S_24  and  C_25
REMARK   11  A    between atoms: N_34  and  C_39
REMARK   12  A    between atoms: N_37  and  C_38
REMARK                            x       y       z     vdW  Elec       q    Type
REMARK                         _______ _______ _______ _____ _____    ______ ____
ROOT
ATOM      1  C   UNL     1       2.322   1.404   0.252  0.00  0.00    +0.088 C 
ATOM      2  C   UNL     1       1.164   1.984  -0.089  0.00  0.00    +0.128 C 
ATOM      3  O   UNL     1      -0.013   1.350   0.015  0.00  0.00    -0.444 OA
ATOM      4  C   UNL     1      -0.034   0.008   0.102  0.00  0.00    +0.198 C 
ATOM      5  C   UNL     1       1.063  -0.701   0.461  0.00  0.00    +0.098 C 
ATOM      6  C   UNL     1       2.360  -0.006   0.776  0.00  0.00    +0.107 C 
ENDROOT
BRANCH   6   7
ATOM      7  C   UNL     1       2.564   0.021   2.269  0.00  0.00    +0.001 A 
ATOM      8  C   UNL     1       1.643   0.656   3.081  0.00  0.00    +0.007 A 
ATOM      9  C   UNL     1       1.827   0.676   4.451  0.00  0.00    +0.000 A 
ATOM     10  C   UNL     1       2.938   0.071   5.009  0.00  0.00    +0.003 A 
ATOM     11  C   UNL     1       3.863  -0.559   4.199  0.00  0.00    +0.038 A 
ATOM     12  C   UNL     1       3.676  -0.585   2.827  0.00  0.00    +0.127 A 
ATOM     13  F   UNL     1       4.580  -1.202   2.033  0.00  0.00    -0.205 F 
ENDBRANCH   6   7
BRANCH   4  14
ATOM     14  N   UNL     1      -1.199  -0.660  -0.181  0.00  0.00    -0.328 N 
ATOM     15  H   UNL     1      -1.992  -0.165  -0.439  0.00  0.00    +0.145 HD
ATOM     16  H   UNL     1      -1.229  -1.628  -0.123  0.00  0.00    +0.145 HD
ENDBRANCH   4  14
BRANCH   1  17
ATOM     17  C   UNL     1       3.531   2.130   0.118  0.00  0.00    +0.339 C 
ATOM     18  O   UNL     1       4.251   1.938  -0.844  0.00  0.00    -0.245 OA
BRANCH  17  19
ATOM     19  O   UNL     1       3.883   3.033   1.056  0.00  0.00    -0.462 OA
BRANCH  19  21
ATOM     20  C   UNL     1       5.344   4.703   2.014  0.00  0.00    +0.048 C 
ATOM     21  C   UNL     1       5.115   3.728   0.856  0.00  0.00    +0.229 C 
ENDBRANCH  19  21
ENDBRANCH  17  19
ENDBRANCH   1  17
BRANCH   5  22
ATOM     22  C   UNL     1       0.987  -2.129   0.541  0.00  0.00    +0.101 C 
ATOM     23  N   UNL     1       0.927  -3.262   0.604  0.00  0.00    -0.191 NA
ENDBRANCH   5  22
BRANCH   2  24
ATOM     24  C   UNL     1       1.185   3.398  -0.610  0.00  0.00    +0.152 C 
BRANCH  24  25
ATOM     25  S   UNL     1       0.936   3.385  -2.402  0.00  0.00    -0.083 S 
BRANCH  25  26
ATOM     26  C   UNL     1       1.004   5.114  -2.733  0.00  0.00    +0.152 C 
ATOM     27  N   UNL     1       1.187   6.038  -1.804  0.00  0.00    -0.238 NA
ATOM     28  C   UNL     1       1.229   7.313  -2.482  0.00  0.00    +0.226 C 
ATOM     29  C   UNL     1       0.337   7.005  -3.726  0.00  0.00    +0.202 C 
ATOM     30  N   UNL     1       0.865   5.672  -4.008  0.00  0.00    -0.310 N 
ATOM     31  C   UNL     1       0.588   8.117  -4.689  0.00  0.00    +0.247 C 
ATOM     32  O   UNL     1       0.755   7.926  -5.874  0.00  0.00    -0.273 OA
ATOM     33  N   UNL     1       0.616   9.363  -4.135  0.00  0.00    -0.227 N 
ATOM     34  C   UNL     1       0.490   9.547  -2.805  0.00  0.00    +0.312 C 
ATOM     35  O   UNL     1       0.135  10.631  -2.387  0.00  0.00    -0.252 OA
ATOM     36  N   UNL     1       0.750   8.543  -1.918  0.00  0.00    -0.264 N 
ATOM     37  C   UNL     1       0.542   8.700  -0.476  0.00  0.00    +0.136 C 
ATOM     38  C   UNL     1       0.788  10.529  -5.005  0.00  0.00    +0.143 C 
ATOM     39  H   UNL     1       1.068   5.272  -4.868  0.00  0.00    +0.149 HD
ENDBRANCH  25  26
ENDBRANCH  24  25
ENDBRANCH   2  24
TORSDOF 9
