REMARK  Name = ZINC35808839
REMARK  7 active torsions:
REMARK  status: ('A' for Active; 'I' for Inactive)
REMARK    1  A    between atoms: C_1  and  C_2
REMARK    2  A    between atoms: C_2  and  C_3
REMARK    3  A    between atoms: C_3  and  C_4
REMARK    4  A    between atoms: C_4  and  N_5
REMARK    5  A    between atoms: C_25  and  C_27
REMARK    6  A    between atoms: C_27  and  C_29
REMARK    7  A    between atoms: C_27  and  O_36
REMARK                            x       y       z     vdW  Elec       q    Type
REMARK                         _______ _______ _______ _____ _____    ______ ____
ROOT
ATOM      1  N   UNL     1      -2.787  -2.571   0.015  0.00  0.00    -0.242 N 
ATOM      2  C   UNL     1      -3.487  -2.833   1.158  0.00  0.00    +0.227 C 
ATOM      3  O   UNL     1      -3.037  -2.941   2.279  0.00  0.00    -0.275 OA
ATOM      4  C   UNL     1      -4.921  -2.960   0.751  0.00  0.00    +0.110 C 
ATOM      5  C   UNL     1      -4.659  -3.576  -0.674  0.00  0.00    +0.123 C 
ATOM      6  C   UNL     1      -3.510  -2.827  -1.123  0.00  0.00    +0.228 C 
ATOM      7  O   UNL     1      -3.241  -2.498  -2.258  0.00  0.00    -0.275 OA
ATOM      8  C   UNL     1      -5.984  -4.011  -1.115  0.00  0.00    +0.136 C 
ATOM      9  C   UNL     1      -5.974  -5.186  -2.061  0.00  0.00    +0.003 A 
ATOM     10  C   UNL     1      -5.422  -6.446  -1.990  0.00  0.00    +0.008 A 
ATOM     11  C   UNL     1      -5.585  -7.331  -3.040  0.00  0.00    +0.000 A 
ATOM     12  C   UNL     1      -6.301  -6.947  -4.159  0.00  0.00    +0.002 A 
ATOM     13  C   UNL     1      -6.855  -5.686  -4.234  0.00  0.00    +0.023 A 
ATOM     14  C   UNL     1      -6.696  -4.788  -3.179  0.00  0.00    +0.039 A 
ATOM     15  N   UNL     1      -7.154  -3.480  -3.018  0.00  0.00    -0.283 N 
ATOM     16  C   UNL     1      -6.781  -2.953  -1.838  0.00  0.00    +0.243 C 
ATOM     17  O   UNL     1      -7.037  -1.839  -1.432  0.00  0.00    -0.273 OA
ATOM     18  N   UNL     1      -6.705  -4.397   0.138  0.00  0.00    -0.293 NA
ATOM     19  C   UNL     1      -5.798  -4.076   1.310  0.00  0.00    +0.101 C 
ATOM     20  H   UNL     1      -7.680  -3.005  -3.681  0.00  0.00    +0.155 HD
ATOM     21  H   UNL     1      -7.580  -3.901   0.218  0.00  0.00    +0.124 HD
ENDROOT
BRANCH   1  22
ATOM     22  C   UNL     1      -1.413  -2.063   0.004  0.00  0.00    +0.116 C 
BRANCH  22  23
ATOM     23  C   UNL     1      -1.433  -0.534   0.013  0.00  0.00    +0.019 C 
BRANCH  23  25
ATOM     24  C   UNL     1      -0.019   1.526   0.010  0.00  0.00    +0.004 C 
ATOM     25  C   UNL     1       0.002  -0.004   0.002  0.00  0.00    -0.002 C 
ENDBRANCH  23  25
ENDBRANCH  22  23
ENDBRANCH   1  22
BRANCH  19  26
ATOM     26  C   UNL     1      -6.607  -3.578   2.510  0.00  0.00    +0.162 C 
BRANCH  26  27
ATOM     27  C   UNL     1      -7.462  -4.700   3.040  0.00  0.00    -0.018 A 
ATOM     28  C   UNL     1      -6.934  -5.602   3.945  0.00  0.00    +0.007 A 
ATOM     29  C   UNL     1      -7.717  -6.631   4.432  0.00  0.00    +0.020 A 
ATOM     30  C   UNL     1      -9.030  -6.760   4.013  0.00  0.00    +0.041 A 
ATOM     31  C   UNL     1      -9.557  -5.857   3.107  0.00  0.00    +0.020 A 
ATOM     32  C   UNL     1      -8.774  -4.824   2.625  0.00  0.00    +0.007 A 
ATOM     33 CL   UNL     1     -10.014  -8.053   4.623  0.00  0.00    -0.084 Cl
ENDBRANCH  26  27
BRANCH  26  34
ATOM     34  O   UNL     1      -5.715  -3.133   3.534  0.00  0.00    -0.386 OA
ATOM     35  H   UNL     1      -5.116  -3.819   3.859  0.00  0.00    +0.210 HD
ENDBRANCH  26  34
ENDBRANCH  19  26
TORSDOF 6
