REMARK  Name = ZINC04082360
REMARK  7 active torsions:
REMARK  status: ('A' for Active; 'I' for Inactive)
REMARK    1  A    between atoms: C_1  and  C_2
REMARK    2  A    between atoms: C_2  and  C_3
REMARK    3  A    between atoms: C_3  and  C_4
REMARK    4  A    between atoms: C_4  and  O_6
REMARK    5  A    between atoms: O_6  and  C_7
REMARK    6  A    between atoms: C_11  and  C_31
REMARK    7  A    between atoms: C_23  and  C_30
REMARK                            x       y       z     vdW  Elec       q    Type
REMARK                         _______ _______ _______ _____ _____    ______ ____
ROOT
ATOM      1  C   UNL     1       4.632  -1.670   4.455  0.00  0.00    +0.177 C 
ATOM      2  C   UNL     1       3.199  -2.192   4.335  0.00  0.00    +0.045 C 
ATOM      3  C   UNL     1       2.626  -1.800   2.971  0.00  0.00    +0.011 C 
ATOM      4  C   UNL     1       2.626  -0.276   2.837  0.00  0.00    -0.026 C 
ATOM      5  C   UNL     1       4.059   0.246   2.956  0.00  0.00    -0.001 C 
ATOM      6  C   UNL     1       4.633  -0.146   4.319  0.00  0.00    +0.048 C 
ATOM      7  C   UNL     1       4.063   1.770   2.821  0.00  0.00    +0.004 C 
ATOM      8  C   UNL     1       3.480   2.165   1.463  0.00  0.00    +0.004 C 
ATOM      9  C   UNL     1       2.044   1.649   1.357  0.00  0.00    -0.003 C 
ATOM     10  C   UNL     1       2.050   0.117   1.476  0.00  0.00    -0.001 C 
ATOM     11  C   UNL     1       0.649  -0.464   1.316  0.00  0.00    +0.005 C 
ATOM     12  C   UNL     1      -0.001  -0.004   0.000  0.00  0.00    +0.015 C 
ATOM     13  C   UNL     1      -0.018   1.511   0.010  0.00  0.00    +0.029 C 
ATOM     14  C   UNL     1       1.457   1.995   0.001  0.00  0.00    +0.006 C 
ATOM     15  C   UNL     1       1.276   3.492  -0.283  0.00  0.00    +0.012 C 
ATOM     16  C   UNL     1       0.150   3.498  -1.353  0.00  0.00    +0.075 C 
ATOM     17  C   UNL     1      -0.621   2.193  -1.182  0.00  0.00    +0.139 C 
ATOM     18  O   UNL     1      -1.529   1.790  -1.868  0.00  0.00    -0.297 OA
ATOM     19  C   UNL     1      -0.714   2.009   1.279  0.00  0.00    +0.019 C 
ATOM     20  C   UNL     1       1.768   0.333   3.949  0.00  0.00    +0.012 C 
ENDROOT
BRANCH   1  21
ATOM     21  O   UNL     1       5.176  -2.041   5.749  0.00  0.00    -0.461 OA
BRANCH  21  22
ATOM     22  C   UNL     1       5.815  -3.219   5.826  0.00  0.00    +0.307 C 
ATOM     23  O   UNL     1       5.917  -3.916   4.845  0.00  0.00    -0.251 OA
BRANCH  22  24
ATOM     24  C   UNL     1       6.406  -3.671   7.136  0.00  0.00    +0.120 C 
BRANCH  24  26
ATOM     25  C   UNL     1       7.672  -5.495   8.282  0.00  0.00    +0.004 C 
ATOM     26  C   UNL     1       7.073  -5.036   6.952  0.00  0.00    +0.008 C 
ENDBRANCH  24  26
ENDBRANCH  22  24
ENDBRANCH  21  22
ENDBRANCH   1  21
TORSDOF 4
