REMARK  Name = ZINC23199803
REMARK  4 active torsions:
REMARK  status: ('A' for Active; 'I' for Inactive)
REMARK    1  A    between atoms: C_3  and  C_18
REMARK    2  A    between atoms: C_5  and  N_7
REMARK    3  A    between atoms: N_7  and  S_8
REMARK    4  A    between atoms: S_8  and  C_11
REMARK                            x       y       z     vdW  Elec       q    Type
REMARK                         _______ _______ _______ _____ _____    ______ ____
ROOT
ATOM      1  C   UNL     1      -0.013   1.076   0.008  0.00  0.00    +0.003 A 
ATOM      2  C   UNL     1      -1.219   1.747   0.017  0.00  0.00    +0.012 A 
ATOM      3  C   UNL     1      -1.240   3.143   0.030  0.00  0.00    +0.021 A 
ATOM      4  C   UNL     1      -0.042   3.854   0.022  0.00  0.00    +0.036 A 
ATOM      5  C   UNL     1       1.165   3.171   0.007  0.00  0.00    +0.049 A 
ATOM      6  C   UNL     1       1.176   1.781   0.000  0.00  0.00    +0.024 A 
ENDROOT
BRANCH   3   7
ATOM      7  C   UNL     1      -2.532   3.864   0.045  0.00  0.00    +0.164 A 
ATOM      8  N   UNL     1      -2.715   5.134   0.332  0.00  0.00    -0.129 NA
ATOM      9  N   UNL     1      -3.964   5.422   0.243  0.00  0.00    -0.134 NA
ATOM     10  C   UNL     1      -4.647   4.359  -0.095  0.00  0.00    +0.134 A 
ATOM     11  N   UNL     1      -3.764   3.336  -0.230  0.00  0.00    -0.311 N 
ATOM     12  C   UNL     1      -4.449   2.094  -0.606  0.00  0.00    +0.125 C 
ATOM     13  C   UNL     1      -5.839   2.527  -1.123  0.00  0.00    +0.029 C 
ATOM     14  C   UNL     1      -6.049   3.870  -0.387  0.00  0.00    +0.078 C 
ENDBRANCH   3   7
BRANCH   5  15
ATOM     15  N   UNL     1       2.369   3.879  -0.002  0.00  0.00    -0.216 N 
ATOM     16  H   UNL     1       2.508   4.736   0.675  0.00  0.00    +0.174 HD
BRANCH  15  17
ATOM     17  S   UNL     1       3.587   3.430  -1.030  0.00  0.00    +0.072 S 
ATOM     18  O   UNL     1       4.652   4.347  -0.823  0.00  0.00    -0.150 OA
ATOM     19  O   UNL     1       3.749   2.026  -0.878  0.00  0.00    -0.150 OA
BRANCH  17  20
ATOM     20  C   UNL     1       3.006   3.695  -2.672  0.00  0.00    +0.109 A 
ATOM     21  C   UNL     1       2.349   2.682  -3.345  0.00  0.00    +0.031 A 
ATOM     22  C   UNL     1       1.889   2.890  -4.631  0.00  0.00    +0.040 A 
ATOM     23  C   UNL     1       2.096   4.112  -5.250  0.00  0.00    +0.124 A 
ATOM     24  C   UNL     1       2.759   5.124  -4.577  0.00  0.00    +0.040 A 
ATOM     25  C   UNL     1       3.213   4.915  -3.289  0.00  0.00    +0.031 A 
ATOM     26  F   UNL     1       1.651   4.315  -6.510  0.00  0.00    -0.205 F 
ENDBRANCH  17  20
ENDBRANCH  15  17
ENDBRANCH   5  15
TORSDOF 4
