REMARK  Name = ZINC02495068
REMARK  4 active torsions:
REMARK  status: ('A' for Active; 'I' for Inactive)
REMARK    1  A    between atoms: C_4  and  C_7
REMARK    2  A    between atoms: C_7  and  S_8
REMARK    3  A    between atoms: S_8  and  C_9
REMARK    4  A    between atoms: N_21  and  C_22
REMARK                            x       y       z     vdW  Elec       q    Type
REMARK                         _______ _______ _______ _____ _____    ______ ____
ROOT
ATOM      1  C   UNL     1       6.285  -1.367   1.566  0.00  0.00    +0.178 A 
ATOM      2  N   UNL     1       6.761  -1.606   0.361  0.00  0.00    -0.215 NA
ATOM      3  C   UNL     1       7.440  -2.720   0.108  0.00  0.00    +0.117 A 
ATOM      4  C   UNL     1       7.683  -3.686   1.095  0.00  0.00    +0.076 A 
ATOM      5  C   UNL     1       8.448  -4.868   0.666  0.00  0.00    -0.023 A 
ATOM      6  C   UNL     1       8.839  -4.906  -0.618  0.00  0.00    -0.004 A 
ATOM      7  S   UNL     1       8.223  -3.399  -1.332  0.00  0.00    -0.073 S 
ATOM      8  C   UNL     1       9.617  -6.154  -0.939  0.00  0.00    +0.043 C 
ATOM      9  C   UNL     1      10.037  -6.714   0.438  0.00  0.00    +0.010 C 
ATOM     10  C   UNL     1       8.938  -6.145   1.356  0.00  0.00    +0.037 C 
ATOM     11  C   UNL     1       7.157  -3.403   2.394  0.00  0.00    +0.268 A 
ATOM     12  O   UNL     1       7.321  -4.188   3.312  0.00  0.00    -0.267 OA
ATOM     13  N   UNL     1       6.482  -2.255   2.588  0.00  0.00    -0.255 N 
ENDROOT
BRANCH  13  14
ATOM     14  C   UNL     1       5.966  -1.966   3.858  0.00  0.00    +0.052 A 
ATOM     15  C   UNL     1       6.735  -1.263   4.777  0.00  0.00    +0.026 A 
ATOM     16  C   UNL     1       6.224  -0.979   6.029  0.00  0.00    +0.002 A 
ATOM     17  C   UNL     1       4.949  -1.395   6.367  0.00  0.00    +0.000 A 
ATOM     18  C   UNL     1       4.182  -2.095   5.454  0.00  0.00    +0.002 A 
ATOM     19  C   UNL     1       4.685  -2.376   4.199  0.00  0.00    +0.026 A 
ENDBRANCH  13  14
BRANCH   1  20
ATOM     20  S   UNL     1       5.390   0.120   1.868  0.00  0.00    -0.083 S 
BRANCH  20  21
ATOM     21  C   UNL     1       5.383   0.961   0.261  0.00  0.00    +0.112 C 
BRANCH  21  25
ATOM     22  C   UNL     1       3.273   4.660   0.597  0.00  0.00    +0.000 A 
ATOM     23  C   UNL     1       4.634   4.617   0.831  0.00  0.00    +0.000 A 
ATOM     24  C   UNL     1       5.317   3.421   0.722  0.00  0.00    +0.004 A 
ATOM     25  C   UNL     1       4.638   2.266   0.380  0.00  0.00    -0.037 A 
ATOM     26  C   UNL     1       3.276   2.308   0.147  0.00  0.00    +0.004 A 
ATOM     27  C   UNL     1       2.594   3.505   0.255  0.00  0.00    +0.000 A 
ENDBRANCH  21  25
ENDBRANCH  20  21
ENDBRANCH   1  20
TORSDOF 4
