REMARK  Name = ZINC65892424
REMARK  10 active torsions:
REMARK  status: ('A' for Active; 'I' for Inactive)
REMARK    1  A    between atoms: C_1  and  C_2
REMARK    2  A    between atoms: C_2  and  C_3
REMARK    3  A    between atoms: C_2  and  C_4
REMARK    4  A    between atoms: C_4  and  C_5
REMARK    5  A    between atoms: C_4  and  N_16
REMARK    6  A    between atoms: C_7  and  C_10
REMARK    7  A    between atoms: C_17  and  C_19
REMARK    8  A    between atoms: C_19  and  N_20
REMARK    9  A    between atoms: C_23  and  C_27
REMARK   10  A    between atoms: C_23  and  C_28
REMARK                            x       y       z     vdW  Elec       q    Type
REMARK                         _______ _______ _______ _____ _____    ______ ____
ROOT
ATOM      1  C   UNL     1      -1.433  -0.534   0.013  0.00  0.00    +0.164 C 
ENDROOT
BRANCH   1   2
ATOM      2  C   UNL     1      -2.162  -0.034  -1.208  0.00  0.00    +0.248 A 
ATOM      3  N   UNL     1      -3.053   0.915  -1.227  0.00  0.00    -0.190 NA
ATOM      4  C   UNL     1      -3.498   1.104  -2.482  0.00  0.00    +0.202 A 
ATOM      5  N   UNL     1      -2.883   0.262  -3.276  0.00  0.00    -0.056 NA
ATOM      6  O   UNL     1      -1.999  -0.489  -2.457  0.00  0.00    -0.336 OA
BRANCH   4   7
ATOM      7  C   UNL     1      -4.518   2.099  -2.899  0.00  0.00    +0.022 A 
ATOM      8  C   UNL     1      -5.097   2.944  -1.955  0.00  0.00    +0.012 A 
ATOM      9  C   UNL     1      -6.045   3.868  -2.348  0.00  0.00    +0.001 A 
ATOM     10  C   UNL     1      -6.420   3.955  -3.676  0.00  0.00    +0.000 A 
ATOM     11  C   UNL     1      -5.848   3.118  -4.618  0.00  0.00    +0.001 A 
ATOM     12  C   UNL     1      -4.895   2.195  -4.237  0.00  0.00    +0.012 A 
ENDBRANCH   4   7
ENDBRANCH   1   2
BRANCH   1  13
ATOM     13  N   UNL     1      -1.413  -1.998   0.005  0.00  0.00    -0.302 N 
ATOM     14  C   UNL     1      -1.292  -2.677   1.163  0.00  0.00    +0.232 C 
ATOM     15  O   UNL     1      -1.198  -2.075   2.212  0.00  0.00    -0.274 OA
ATOM     16  H   UNL     1      -1.488  -2.480  -0.834  0.00  0.00    +0.150 HD
BRANCH  14  17
ATOM     17  C   UNL     1      -1.271  -4.184   1.155  0.00  0.00    +0.213 C 
BRANCH  17  18
ATOM     18  N   UNL     1      -1.131  -4.678   2.527  0.00  0.00    -0.215 N 
ATOM     19  C   UNL     1       0.051  -4.913   3.130  0.00  0.00    +0.246 C 
ATOM     20  O   UNL     1       1.157  -4.761   2.657  0.00  0.00    -0.273 OA
ATOM     21  C   UNL     1      -0.290  -5.405   4.522  0.00  0.00    +0.107 C 
ATOM     22  N   UNL     1      -1.763  -5.390   4.544  0.00  0.00    -0.285 N 
ATOM     23  C   UNL     1      -2.161  -4.947   3.338  0.00  0.00    +0.310 C 
ATOM     24  O   UNL     1      -3.325  -4.809   3.019  0.00  0.00    -0.252 OA
ATOM     25  C   UNL     1       0.274  -4.457   5.582  0.00  0.00    +0.041 C 
ATOM     26  C   UNL     1       0.237  -6.826   4.734  0.00  0.00    +0.041 C 
ATOM     27  H   UNL     1      -2.334  -5.646   5.284  0.00  0.00    +0.151 HD
ENDBRANCH  17  18
ENDBRANCH  14  17
ENDBRANCH   1  13
BRANCH   1  29
ATOM     28  C   UNL     1      -0.019   1.526   0.010  0.00  0.00    +0.009 C 
ATOM     29  C   UNL     1       0.002  -0.004   0.002  0.00  0.00    +0.012 C 
ATOM     30  C   UNL     1       0.742  -0.511   1.242  0.00  0.00    +0.009 C 
ENDBRANCH   1  29
TORSDOF 6
