REMARK  Name = ZINC08764045
REMARK  9 active torsions:
REMARK  status: ('A' for Active; 'I' for Inactive)
REMARK    1  A    between atoms: C_1  and  C_2
REMARK    2  A    between atoms: C_5  and  S_8
REMARK    3  A    between atoms: S_8  and  N_11
REMARK    4  A    between atoms: N_11  and  N_12
REMARK    5  A    between atoms: C_13  and  C_15
REMARK    6  A    between atoms: C_15  and  C_16
REMARK    7  A    between atoms: C_16  and  C_17
REMARK    8  A    between atoms: C_17  and  N_18
REMARK    9  A    between atoms: C_22  and  C_23
REMARK                            x       y       z     vdW  Elec       q    Type
REMARK                         _______ _______ _______ _____ _____    ______ ____
ROOT
ATOM      1  N   UNL     1      -5.660  -4.481  -3.413  0.00  0.00    -0.232 N 
ATOM      2  C   UNL     1      -5.238  -3.230  -3.141  0.00  0.00    +0.228 C 
ATOM      3  O   UNL     1      -4.901  -2.494  -4.044  0.00  0.00    -0.274 OA
ATOM      4  H   UNL     1      -5.929  -5.070  -2.691  0.00  0.00    +0.171 HD
ENDROOT
BRANCH   1   5
ATOM      5  N   UNL     1      -5.709  -4.931  -4.739  0.00  0.00    -0.108 NA
ATOM      6  H   UNL     1      -6.207  -4.430  -5.403  0.00  0.00    +0.172 HD
BRANCH   5   7
ATOM      7  S   UNL     1      -4.915  -6.318  -5.172  0.00  0.00    +0.074 S 
ATOM      8  O   UNL     1      -5.268  -6.583  -6.523  0.00  0.00    -0.152 OA
ATOM      9  O   UNL     1      -3.565  -6.161  -4.755  0.00  0.00    -0.152 OA
BRANCH   7  14
ATOM     10  C   UNL     1      -7.229 -10.806  -1.870  0.00  0.00    +0.044 C 
ATOM     11  C   UNL     1      -6.651  -9.685  -2.695  0.00  0.00    -0.050 A 
ATOM     12  C   UNL     1      -7.205  -9.373  -3.923  0.00  0.00    +0.005 A 
ATOM     13  C   UNL     1      -6.674  -8.345  -4.679  0.00  0.00    +0.029 A 
ATOM     14  C   UNL     1      -5.591  -7.628  -4.208  0.00  0.00    +0.107 A 
ATOM     15  C   UNL     1      -5.034  -7.943  -2.982  0.00  0.00    +0.029 A 
ATOM     16  C   UNL     1      -5.567  -8.968  -2.224  0.00  0.00    +0.005 A 
ENDBRANCH   7  14
ENDBRANCH   5   7
ENDBRANCH   1   5
BRANCH   2  17
ATOM     17  C   UNL     1      -5.186  -2.746  -1.715  0.00  0.00    +0.098 C 
BRANCH  17  18
ATOM     18  C   UNL     1      -4.676  -1.304  -1.684  0.00  0.00    +0.029 C 
BRANCH  18  19
ATOM     19  C   UNL     1      -4.623  -0.812  -0.236  0.00  0.00    +0.115 C 
BRANCH  19  20
ATOM     20  N   UNL     1      -4.134   0.568  -0.206  0.00  0.00    -0.255 N 
ATOM     21  C   UNL     1      -2.837   0.798  -0.108  0.00  0.00    +0.258 C 
ATOM     22  O   UNL     1      -2.040  -0.121  -0.042  0.00  0.00    -0.269 OA
ATOM     23  C   UNL     1      -2.397   2.156  -0.077  0.00  0.00    +0.078 C 
ATOM     24  C   UNL     1      -1.132   2.656   0.022  0.00  0.00    +0.035 C 
ATOM     25  S   UNL     1      -3.954   3.022  -0.210  0.00  0.00    -0.061 S 
ATOM     26  C   UNL     1      -5.017   1.589  -0.286  0.00  0.00    +0.121 C 
ATOM     27  S   UNL     1      -6.722   1.523  -0.424  0.00  0.00    -0.027 S 
BRANCH  24  28
ATOM     28  C   UNL     1      -0.048   1.790   0.295  0.00  0.00    +0.013 A 
ATOM     29  C   UNL     1       1.270   1.871  -0.141  0.00  0.00    +0.015 A 
ATOM     30  C   UNL     1       2.125   0.880   0.275  0.00  0.00    +0.008 A 
ATOM     31  C   UNL     1       1.653  -0.112   1.075  0.00  0.00    +0.046 A 
ATOM     32  S   UNL     1      -0.017   0.303   1.280  0.00  0.00    -0.097 S 
ENDBRANCH  24  28
ENDBRANCH  19  20
ENDBRANCH  18  19
ENDBRANCH  17  18
ENDBRANCH   2  17
TORSDOF 8
