REMARK  Name = ZINC10002666
REMARK  13 active torsions:
REMARK  status: ('A' for Active; 'I' for Inactive)
REMARK    1  A    between atoms: C_1  and  C_2
REMARK    2  A    between atoms: C_2  and  C_3
REMARK    3  A    between atoms: C_2  and  C_4
REMARK    4  A    between atoms: C_4  and  C_5
REMARK    5  A    between atoms: C_5  and  C_7
REMARK    6  A    between atoms: C_5  and  N_23
REMARK    7  A    between atoms: N_9  and  N_10
REMARK    8  A    between atoms: C_11  and  C_12
REMARK    9  A    between atoms: C_14  and  O_21
REMARK   10  A    between atoms: C_15  and  O_19
REMARK   11  A    between atoms: O_19  and  C_20
REMARK   12  A    between atoms: O_21  and  C_22
REMARK   13  A    between atoms: C_24  and  C_26
REMARK                            x       y       z     vdW  Elec       q    Type
REMARK                         _______ _______ _______ _____ _____    ______ ____
ROOT
ATOM      1  C   UNL     1       0.518   1.047   2.404  0.00  0.00    +0.253 C 
ATOM      2  O   UNL     1       1.200   1.835   3.026  0.00  0.00    -0.272 OA
ATOM      3  N   UNL     1       0.608  -0.273   2.663  0.00  0.00    -0.205 N 
ATOM      4  H   UNL     1       0.115  -0.908   2.120  0.00  0.00    +0.177 HD
ENDROOT
BRANCH   3   5
ATOM      5  N   UNL     1       1.413  -0.727   3.716  0.00  0.00    -0.188 NA
ATOM      6  C   UNL     1       1.500  -1.998   3.965  0.00  0.00    +0.138 C 
BRANCH   6   7
ATOM      7  C   UNL     1       2.347  -2.476   5.073  0.00  0.00    -0.001 A 
ATOM      8  C   UNL     1       2.437  -3.843   5.346  0.00  0.00    +0.059 A 
ATOM      9  C   UNL     1       3.237  -4.287   6.382  0.00  0.00    +0.163 A 
ATOM     10  C   UNL     1       3.942  -3.371   7.159  0.00  0.00    +0.175 A 
ATOM     11  C   UNL     1       3.849  -2.012   6.892  0.00  0.00    +0.064 A 
ATOM     12  C   UNL     1       3.057  -1.562   5.855  0.00  0.00    +0.028 A 
ATOM     13 BR   UNL     1       4.810  -0.774   7.951  0.00  0.00    -0.046 Br
BRANCH  10  14
ATOM     14  O   UNL     1       4.724  -3.809   8.181  0.00  0.00    -0.490 OA
ATOM     15  C   UNL     1       4.107  -3.929   9.465  0.00  0.00    +0.277 C 
ENDBRANCH  10  14
BRANCH   9  16
ATOM     16  O   UNL     1       3.331  -5.617   6.647  0.00  0.00    -0.491 OA
ATOM     17  C   UNL     1       2.581  -6.500   5.810  0.00  0.00    +0.277 C 
ENDBRANCH   9  16
ENDBRANCH   6   7
ENDBRANCH   3   5
BRANCH   1  18
ATOM     18  C   UNL     1      -0.430   1.544   1.343  0.00  0.00    +0.161 C 
BRANCH  18  19
ATOM     19  N   UNL     1      -0.715   2.963   1.569  0.00  0.00    -0.300 N 
ATOM     20  C   UNL     1      -1.892   3.485   1.173  0.00  0.00    +0.245 C 
ATOM     21  O   UNL     1      -2.754   2.762   0.712  0.00  0.00    -0.270 OA
ATOM     22  H   UNL     1      -0.056   3.527   2.003  0.00  0.00    +0.150 HD
BRANCH  20  23
ATOM     23  C   UNL     1      -2.136   4.938   1.298  0.00  0.00    +0.037 A 
ATOM     24  C   UNL     1      -1.150   5.770   1.832  0.00  0.00    +0.014 A 
ATOM     25  C   UNL     1      -1.381   7.125   1.940  0.00  0.00    +0.021 A 
ATOM     26  C   UNL     1      -2.592   7.659   1.533  0.00  0.00    +0.041 A 
ATOM     27  C   UNL     1      -3.576   6.837   1.008  0.00  0.00    +0.021 A 
ATOM     28  C   UNL     1      -3.355   5.482   0.888  0.00  0.00    +0.014 A 
ATOM     29 CL   UNL     1      -2.878   9.365   1.679  0.00  0.00    -0.084 Cl
ENDBRANCH  20  23
ENDBRANCH  18  19
BRANCH  18  30
ATOM     30  C   UNL     1       0.209   1.365  -0.035  0.00  0.00    +0.034 C 
BRANCH  30  32
ATOM     31  C   UNL     1      -1.028  -0.762  -0.470  0.00  0.00    +0.007 C 
ATOM     32  C   UNL     1       0.358  -0.128  -0.338  0.00  0.00    -0.015 C 
ATOM     33  C   UNL     1       1.128  -0.308  -1.648  0.00  0.00    +0.007 C 
ENDBRANCH  30  32
ENDBRANCH  18  30
ENDBRANCH   1  18
TORSDOF 9
