REMARK  Name = ZINC66091451
REMARK  12 active torsions:
REMARK  status: ('A' for Active; 'I' for Inactive)
REMARK    1  A    between atoms: C_1  and  C_2
REMARK    2  A    between atoms: C_2  and  C_3
REMARK    3  A    between atoms: C_2  and  C_4
REMARK    4  A    between atoms: C_2  and  N_5
REMARK    5  A    between atoms: C_10  and  C_26
REMARK    6  A    between atoms: N_18  and  C_19
REMARK    7  A    between atoms: C_28  and  O_36
REMARK    8  A    between atoms: C_29  and  O_35
REMARK    9  A    between atoms: C_30  and  O_34
REMARK   10  A    between atoms: C_31  and  O_32
REMARK   11  A    between atoms: O_32  and  C_33
REMARK   12  A    between atoms: O_36  and  C_37
REMARK                            x       y       z     vdW  Elec       q    Type
REMARK                         _______ _______ _______ _____ _____    ______ ____
ROOT
ATOM      1  N   UNL     1       0.578  -0.307  -1.426  0.00  0.00    -0.245 N 
ATOM      2  C   UNL     1       0.834  -1.608  -1.661  0.00  0.00    +0.126 A 
ATOM      3  C   UNL     1       1.544  -1.696  -2.826  0.00  0.00    +0.022 A 
ATOM      4  C   UNL     1       1.722  -0.402  -3.307  0.00  0.00    +0.140 A 
ATOM      5  N   UNL     1       1.143   0.432  -2.478  0.00  0.00    -0.177 NA
ATOM      6  C   UNL     1       2.026  -2.986  -3.449  0.00  0.00    +0.085 C 
ATOM      7  C   UNL     1       2.055  -4.067  -2.361  0.00  0.00    +0.156 C 
ATOM      8  C   UNL     1       0.793  -3.911  -1.522  0.00  0.00    +0.116 C 
ATOM      9  N   UNL     1       0.149  -5.030  -1.598  0.00  0.00    -0.150 NA
ATOM     10  C   UNL     1       0.754  -5.906  -2.413  0.00  0.00    +0.332 C 
ATOM     11  O   UNL     1       0.336  -7.027  -2.637  0.00  0.00    -0.250 OA
ATOM     12  N   UNL     1       1.907  -5.403  -2.958  0.00  0.00    -0.243 N 
ATOM     13  N   UNL     1       0.479  -2.735  -0.900  0.00  0.00    -0.288 N 
ATOM     14  H   UNL     1       0.058  -2.683  -0.028  0.00  0.00    +0.155 HD
ENDROOT
BRANCH  12  15
ATOM     15  C   UNL     1       2.761  -6.010  -3.885  0.00  0.00    +0.039 A 
ATOM     16  C   UNL     1       4.072  -6.305  -3.535  0.00  0.00    +0.023 A 
ATOM     17  C   UNL     1       4.913  -6.904  -4.452  0.00  0.00    +0.002 A 
ATOM     18  C   UNL     1       4.450  -7.211  -5.719  0.00  0.00    +0.000 A 
ATOM     19  C   UNL     1       3.145  -6.918  -6.071  0.00  0.00    +0.002 A 
ATOM     20  C   UNL     1       2.298  -6.324  -5.156  0.00  0.00    +0.023 A 
ENDBRANCH  12  15
BRANCH   6  21
ATOM     21  C   UNL     1       3.411  -2.791  -4.010  0.00  0.00    +0.011 A 
ATOM     22  C   UNL     1       4.455  -2.452  -3.168  0.00  0.00    +0.057 A 
ATOM     23  C   UNL     1       5.731  -2.272  -3.680  0.00  0.00    +0.165 A 
ATOM     24  C   UNL     1       5.962  -2.433  -5.042  0.00  0.00    +0.205 A 
ATOM     25  C   UNL     1       4.914  -2.773  -5.886  0.00  0.00    +0.205 A 
ATOM     26  C   UNL     1       3.638  -2.958  -5.367  0.00  0.00    +0.169 A 
BRANCH  26  27
ATOM     27  O   UNL     1       2.610  -3.297  -6.191  0.00  0.00    -0.491 OA
ATOM     28  C   UNL     1       1.869  -2.225  -6.778  0.00  0.00    +0.277 C 
ENDBRANCH  26  27
BRANCH  25  29
ATOM     29  O   UNL     1       5.137  -2.931  -7.220  0.00  0.00    -0.501 OA
ATOM     30  H   UNL     1       5.375  -3.833  -7.475  0.00  0.00    +0.292 HD
ENDBRANCH  25  29
BRANCH  24  31
ATOM     31  O   UNL     1       7.214  -2.256  -5.546  0.00  0.00    -0.501 OA
ATOM     32  H   UNL     1       7.749  -3.061  -5.561  0.00  0.00    +0.292 HD
ENDBRANCH  24  31
BRANCH  23  33
ATOM     33  O   UNL     1       6.756  -1.938  -2.850  0.00  0.00    -0.491 OA
ATOM     34  C   UNL     1       6.445  -1.789  -1.463  0.00  0.00    +0.277 C 
ENDBRANCH  23  33
ENDBRANCH   6  21
BRANCH   1  36
ATOM     35  C   UNL     1      -0.231   1.761  -0.402  0.00  0.00    +0.036 C 
ATOM     36  C   UNL     1      -0.161   0.237  -0.284  0.00  0.00    +0.057 C 
ATOM     37  C   UNL     1       0.555  -0.141   1.014  0.00  0.00    +0.036 C 
ATOM     38  C   UNL     1      -1.578  -0.339  -0.272  0.00  0.00    +0.036 C 
ENDBRANCH   1  36
TORSDOF 7
