REMARK  Name = ZINC07876854
REMARK  10 active torsions:
REMARK  status: ('A' for Active; 'I' for Inactive)
REMARK    1  A    between atoms: C_1  and  C_2
REMARK    2  A    between atoms: C_2  and  C_3
REMARK    3  A    between atoms: C_2  and  C_4
REMARK    4  A    between atoms: C_7  and  C_10
REMARK    5  A    between atoms: C_10  and  C_12
REMARK    6  A    between atoms: C_10  and  N_53
REMARK    7  A    between atoms: C_17  and  C_18
REMARK    8  A    between atoms: C_17  and  N_53
REMARK    9  A    between atoms: N_20  and  C_21
REMARK   10  A    between atoms: C_21  and  C_26
REMARK                            x       y       z     vdW  Elec       q    Type
REMARK                         _______ _______ _______ _____ _____    ______ ____
ROOT
ATOM      1  C   UNL     1       2.565  -1.514  -0.030  0.00  0.00    -0.003 C 
ENDROOT
BRANCH   1   5
ATOM      2  C   UNL     1       2.754  -3.113   3.926  0.00  0.00    -0.045 A 
ATOM      3  C   UNL     1       3.826  -2.405   3.415  0.00  0.00    +0.004 A 
ATOM      4  C   UNL     1       3.764  -1.888   2.134  0.00  0.00    +0.002 A 
ATOM      5  C   UNL     1       2.631  -2.078   1.366  0.00  0.00    -0.057 A 
ATOM      6  C   UNL     1       1.558  -2.781   1.879  0.00  0.00    +0.002 A 
ATOM      7  C   UNL     1       1.621  -3.303   3.158  0.00  0.00    +0.004 A 
BRANCH   2   9
ATOM      8  C   UNL     1       1.695  -3.079   6.168  0.00  0.00    +0.012 C 
ATOM      9  C   UNL     1       2.821  -3.677   5.322  0.00  0.00    +0.013 C 
ATOM     10  C   UNL     1       2.663  -5.198   5.266  0.00  0.00    +0.012 C 
ENDBRANCH   2   9
ENDBRANCH   1   5
BRANCH   1  11
ATOM     11  C   UNL     1       1.773  -0.232  -0.016  0.00  0.00    -0.020 A 
ATOM     12  C   UNL     1       2.220   1.048  -0.013  0.00  0.00    +0.010 A 
ATOM     13  C   UNL     1       1.300   2.079   0.001  0.00  0.00    +0.008 A 
ATOM     14  C   UNL     1      -0.022   1.781   0.012  0.00  0.00    +0.045 A 
ATOM     15  S   UNL     1       0.002  -0.004   0.002  0.00  0.00    -0.103 S 
ENDBRANCH   1  11
BRANCH   1  16
ATOM     16  N   UNL     1       1.904  -2.491  -0.916  0.00  0.00    +0.392 N 
ATOM     17  H   UNL     1       0.886  -2.373  -0.851  0.00  0.00    -0.084 HD
ATOM     18  H   UNL     1       2.159  -3.441  -0.622  0.00  0.00    -0.084 HD
BRANCH  16  19
ATOM     19  C   UNL     1       2.329  -2.284  -2.314  0.00  0.00    +0.016 C 
BRANCH  19  20
ATOM     20  C   UNL     1       1.639  -3.294  -3.194  0.00  0.00    +0.197 C 
ATOM     21  O   UNL     1       0.875  -4.101  -2.708  0.00  0.00    -0.278 OA
ATOM     22  N   UNL     1       1.872  -3.301  -4.522  0.00  0.00    -0.299 N 
ATOM     23  H   UNL     1       2.483  -2.656  -4.910  0.00  0.00    +0.150 HD
BRANCH  22  24
ATOM     24  C   UNL     1       1.202  -4.283  -5.378  0.00  0.00    +0.121 C 
ATOM     25  C   UNL     1       1.618  -5.711  -4.969  0.00  0.00    +0.041 C 
ATOM     26  C   UNL     1       1.713  -6.478  -6.313  0.00  0.00    +0.003 C 
ATOM     27  C   UNL     1       2.314  -5.418  -7.269  0.00  0.00    +0.003 C 
ATOM     28  C   UNL     1       1.644  -4.097  -6.840  0.00  0.00    +0.041 C 
BRANCH  24  29
ATOM     29  C   UNL     1      -0.258  -4.133  -5.269  0.00  0.00    +0.088 C 
ATOM     30  N   UNL     1      -1.385  -4.017  -5.186  0.00  0.00    -0.194 NA
ENDBRANCH  24  29
ENDBRANCH  22  24
ENDBRANCH  19  20
ENDBRANCH  16  19
ENDBRANCH   1  16
TORSDOF 8
