REMARK  Name = ZINC64678835
REMARK  7 active torsions:
REMARK  status: ('A' for Active; 'I' for Inactive)
REMARK    1  A    between atoms: C_1  and  N_2
REMARK    2  A    between atoms: N_2  and  C_3
REMARK    3  A    between atoms: C_3  and  C_4
REMARK    4  A    between atoms: C_4  and  C_5
REMARK    5  A    between atoms: C_8  and  C_11
REMARK    6  A    between atoms: C_22  and  C_24
REMARK    7  A    between atoms: C_24  and  C_25
REMARK                            x       y       z     vdW  Elec       q    Type
REMARK                         _______ _______ _______ _____ _____    ______ ____
ROOT
ATOM      1  C   UNL     1      -1.388  -1.781   3.021  0.00  0.00    +0.139 C 
ATOM      2  N   UNL     1      -0.316  -2.126   3.637  0.00  0.00    -0.072 NA
ATOM      3  O   UNL     1      -0.619  -2.826   4.830  0.00  0.00    -0.367 OA
ATOM      4  C   UNL     1      -2.052  -2.891   4.907  0.00  0.00    +0.318 C 
ATOM      5  N   UNL     1      -2.513  -2.187   3.700  0.00  0.00    -0.291 N 
ATOM      6  H   UNL     1      -3.434  -2.038   3.434  0.00  0.00    +0.151 HD
ENDROOT
BRANCH   4   7
ATOM      7  C   UNL     1      -2.552  -2.178   6.165  0.00  0.00    +0.165 C 
ATOM      8  C   UNL     1      -4.059  -2.271   6.252  0.00  0.00    +0.012 C 
ATOM      9  C   UNL     1      -4.328  -2.934   7.399  0.00  0.00    -0.002 A 
ATOM     10  C   UNL     1      -5.584  -3.338   8.043  0.00  0.00    +0.029 A 
ATOM     11  C   UNL     1      -5.534  -4.008   9.218  0.00  0.00    +0.042 A 
ATOM     12  C   UNL     1      -4.314  -4.324   9.834  0.00  0.00    +0.022 A 
ATOM     13  C   UNL     1      -3.120  -3.987   9.303  0.00  0.00    +0.027 A 
ATOM     14  C   UNL     1      -3.055  -3.281   8.070  0.00  0.00    +0.043 A 
ATOM     15  N   UNL     1      -2.037  -2.848   7.364  0.00  0.00    -0.373 N 
ATOM     16 CL   UNL     1      -7.016  -4.486   9.983  0.00  0.00    -0.084 Cl
ATOM     17  H   UNL     1      -1.100  -2.952   7.596  0.00  0.00    +0.160 HD
ENDBRANCH   4   7
BRANCH   1  18
ATOM     18  C   UNL     1      -1.411  -1.020   1.720  0.00  0.00    +0.094 C 
BRANCH  18  19
ATOM     19  C   UNL     1       0.024  -0.743   1.267  0.00  0.00    +0.115 C 
BRANCH  19  21
ATOM     20  C   UNL     1      -0.018   1.461   0.010  0.00  0.00    +0.132 C 
ATOM     21  N   UNL     1       0.002  -0.004   0.002  0.00  0.00    -0.304 N 
ATOM     22  C   UNL     1       0.000  -0.672  -1.169  0.00  0.00    +0.220 C 
ATOM     23  O   UNL     1       0.017  -1.884  -1.175  0.00  0.00    -0.275 OA
BRANCH  22  24
ATOM     24  C   UNL     1      -0.023   0.089  -2.470  0.00  0.00    +0.131 C 
BRANCH  24  25
ATOM     25  C   UNL     1      -0.020  -0.884  -3.620  0.00  0.00    -0.038 A 
ATOM     26  C   UNL     1       1.178  -1.318  -4.155  0.00  0.00    +0.007 A 
ATOM     27  C   UNL     1       1.182  -2.211  -5.210  0.00  0.00    +0.038 A 
ATOM     28  C   UNL     1      -0.016  -2.671  -5.732  0.00  0.00    +0.123 A 
ATOM     29  C   UNL     1      -1.216  -2.235  -5.195  0.00  0.00    +0.038 A 
ATOM     30  C   UNL     1      -1.217  -1.347  -4.136  0.00  0.00    +0.007 A 
ATOM     31  F   UNL     1      -0.014  -3.543  -6.763  0.00  0.00    -0.205 F 
ENDBRANCH  24  25
ENDBRANCH  22  24
ENDBRANCH  19  21
ENDBRANCH  18  19
ENDBRANCH   1  18
TORSDOF 6
