REMARK  Name = ZINC20764156
REMARK  7 active torsions:
REMARK  status: ('A' for Active; 'I' for Inactive)
REMARK    1  A    between atoms: C_1  and  C_2
REMARK    2  A    between atoms: C_2  and  O_3
REMARK    3  A    between atoms: O_3  and  C_4
REMARK    4  A    between atoms: C_8  and  C_11
REMARK    5  A    between atoms: C_9  and  O_10
REMARK    6  A    between atoms: C_14  and  C_26
REMARK    7  A    between atoms: C_16  and  C_19
REMARK                            x       y       z     vdW  Elec       q    Type
REMARK                         _______ _______ _______ _____ _____    ______ ____
ROOT
ATOM      1  C   UNL     1      -4.942   0.851   0.421  0.00  0.00    -0.028 C 
ATOM      2  C   UNL     1      -3.790   1.782   0.030  0.00  0.00    +0.044 C 
ATOM      3  C   UNL     1      -2.501   1.008   0.020  0.00  0.00    +0.040 C 
ATOM      4  N   UNL     1      -2.454  -0.270   0.008  0.00  0.00    -0.299 NA
ATOM      5  C   UNL     1      -3.629  -1.133   0.025  0.00  0.00    +0.081 C 
ATOM      6  N   UNL     1      -4.826  -0.383  -0.374  0.00  0.00    +0.401 N 
ATOM      7  H   UNL     1      -5.715  -1.010  -0.210  0.00  0.00    -0.081 HD
ATOM      8  H   UNL     1      -4.751  -0.126  -1.441  0.00  0.00    -0.081 HD
ENDROOT
BRANCH   5   9
ATOM      9  C   UNL     1      -3.828  -1.683   1.414  0.00  0.00    -0.038 A 
ATOM     10  C   UNL     1      -5.098  -2.000   1.856  0.00  0.00    +0.004 A 
ATOM     11  C   UNL     1      -5.282  -2.509   3.128  0.00  0.00    +0.003 A 
ATOM     12  C   UNL     1      -4.195  -2.691   3.963  0.00  0.00    +0.038 A 
ATOM     13  C   UNL     1      -2.923  -2.369   3.523  0.00  0.00    +0.124 A 
ATOM     14  C   UNL     1      -2.740  -1.864   2.247  0.00  0.00    +0.042 A 
ATOM     15  F   UNL     1      -1.860  -2.546   4.338  0.00  0.00    -0.205 F 
ENDBRANCH   5   9
BRANCH   3  16
ATOM     16  C   UNL     1      -1.231   1.759   0.017  0.00  0.00    -0.004 A 
ATOM     17  C   UNL     1      -0.013   1.076   0.008  0.00  0.00    +0.011 A 
ATOM     18  C   UNL     1       1.171   1.783   0.001  0.00  0.00    +0.020 A 
ATOM     19  C   UNL     1       1.154   3.168   0.008  0.00  0.00    +0.041 A 
ATOM     20  C   UNL     1      -0.051   3.851   0.022  0.00  0.00    +0.020 A 
ATOM     21  C   UNL     1      -1.241   3.156   0.030  0.00  0.00    +0.011 A 
ATOM     22 CL   UNL     1       2.649   4.051  -0.002  0.00  0.00    -0.084 Cl
ENDBRANCH   3  16
BRANCH   1  27
ATOM     23  C   UNL     1      -7.985   3.080   0.743  0.00  0.00    +0.162 A 
ATOM     24  C   UNL     1      -8.682   2.754  -0.409  0.00  0.00    +0.049 A 
ATOM     25  C   UNL     1      -8.169   1.817  -1.286  0.00  0.00    +0.004 A 
ATOM     26  C   UNL     1      -6.958   1.206  -1.019  0.00  0.00    +0.006 A 
ATOM     27  C   UNL     1      -6.260   1.523   0.131  0.00  0.00    -0.016 A 
ATOM     28  C   UNL     1      -6.768   2.461   1.014  0.00  0.00    +0.160 A 
BRANCH  28  29
ATOM     29  O   UNL     1      -6.080   2.777   2.144  0.00  0.00    -0.503 OA
ATOM     30  H   UNL     1      -5.118   2.288   2.357  0.00  0.00    +0.292 HD
ENDBRANCH  28  29
BRANCH  23  31
ATOM     31  O   UNL     1      -8.488   4.002   1.607  0.00  0.00    -0.489 OA
BRANCH  31  33
ATOM     32  C   UNL     1     -10.143   5.600   2.346  0.00  0.00    +0.048 C 
ATOM     33  C   UNL     1      -9.742   4.596   1.264  0.00  0.00    +0.226 C 
ENDBRANCH  31  33
ENDBRANCH  23  31
ENDBRANCH   1  27
TORSDOF 6
