REMARK  Name = ZINC36601878
REMARK  12 active torsions:
REMARK  status: ('A' for Active; 'I' for Inactive)
REMARK    1  A    between atoms: C_1  and  C_2
REMARK    2  A    between atoms: C_2  and  C_3
REMARK    3  A    between atoms: C_2  and  C_4
REMARK    4  A    between atoms: C_4  and  C_6
REMARK    5  A    between atoms: C_4  and  N_10
REMARK    6  A    between atoms: C_6  and  O_8
REMARK    7  A    between atoms: O_8  and  C_9
REMARK    8  A    between atoms: C_22  and  C_24
REMARK    9  A    between atoms: C_28  and  O_32
REMARK   10  A    between atoms: C_29  and  O_30
REMARK   11  A    between atoms: O_30  and  C_31
REMARK   12  A    between atoms: O_32  and  C_33
REMARK                            x       y       z     vdW  Elec       q    Type
REMARK                         _______ _______ _______ _____ _____    ______ ____
ROOT
ATOM      1  N   UNL     1      -1.222  -2.012   2.787  0.00  0.00    -0.286 N 
ATOM      2  C   UNL     1      -1.824  -0.855   2.447  0.00  0.00    +0.304 C 
ATOM      3  O   UNL     1      -1.662  -0.388   1.337  0.00  0.00    -0.253 OA
ATOM      4  N   UNL     1      -2.607  -0.216   3.339  0.00  0.00    -0.273 N 
ATOM      5  C   UNL     1      -3.361   0.987   2.954  0.00  0.00    +0.116 C 
ATOM      6  C   UNL     1      -4.863   0.690   3.054  0.00  0.00    +0.074 C 
ATOM      7  C   UNL     1      -5.130  -0.032   4.348  0.00  0.00    +0.040 A 
ATOM      8  C   UNL     1      -4.191  -0.655   5.092  0.00  0.00    +0.062 A 
ATOM      9  N   UNL     1      -4.791  -1.184   6.161  0.00  0.00    -0.348 N 
ATOM     10  C   UNL     1      -6.069  -0.910   6.113  0.00  0.00    +0.171 A 
ATOM     11  N   UNL     1      -6.318  -0.190   4.995  0.00  0.00    -0.349 N 
ATOM     12  H   UNL     1      -7.181   0.148   4.707  0.00  0.00    +0.166 HD
ATOM     13  C   UNL     1      -2.732  -0.708   4.723  0.00  0.00    +0.160 C 
ATOM     14  H   UNL     1      -1.286  -2.344   3.696  0.00  0.00    +0.151 HD
ATOM     15  H   UNL     1      -4.350  -1.689   6.861  0.00  0.00    +0.167 HD
ENDROOT
BRANCH  13  16
ATOM     16  C   UNL     1      -1.940   0.174   5.654  0.00  0.00    +0.024 A 
ATOM     17  C   UNL     1      -1.505   1.415   5.229  0.00  0.00    +0.010 A 
ATOM     18  C   UNL     1      -0.779   2.226   6.080  0.00  0.00    +0.004 A 
ATOM     19  C   UNL     1      -0.483   1.799   7.362  0.00  0.00    +0.049 A 
ATOM     20  C   UNL     1      -0.915   0.556   7.794  0.00  0.00    +0.162 A 
ATOM     21  C   UNL     1      -1.652  -0.258   6.939  0.00  0.00    +0.167 A 
BRANCH  21  22
ATOM     22  O   UNL     1      -2.084  -1.477   7.361  0.00  0.00    -0.491 OA
ATOM     23  C   UNL     1      -1.209  -2.586   7.143  0.00  0.00    +0.277 C 
ENDBRANCH  21  22
BRANCH  20  24
ATOM     24  O   UNL     1      -0.625   0.134   9.054  0.00  0.00    -0.491 OA
ATOM     25  C   UNL     1       0.130   1.025   9.879  0.00  0.00    +0.277 C 
ENDBRANCH  20  24
ENDBRANCH  13  16
BRANCH   1  26
ATOM     26  C   UNL     1      -0.469  -2.768   1.783  0.00  0.00    +0.186 C 
BRANCH  26  28
ATOM     27  C   UNL     1      -2.207  -4.553   1.972  0.00  0.00    +0.009 C 
ATOM     28  C   UNL     1      -1.427  -3.667   0.998  0.00  0.00    +0.014 C 
ATOM     29  C   UNL     1      -2.404  -2.800   0.203  0.00  0.00    +0.009 C 
ENDBRANCH  26  28
BRANCH  26  30
ATOM     30  C   UNL     1       0.570  -3.618   2.468  0.00  0.00    +0.328 C 
ATOM     31  O   UNL     1       0.671  -3.594   3.672  0.00  0.00    -0.249 OA
BRANCH  30  32
ATOM     32  O   UNL     1       1.382  -4.401   1.742  0.00  0.00    -0.467 OA
ATOM     33  C   UNL     1       2.344  -5.179   2.457  0.00  0.00    +0.280 C 
ENDBRANCH  30  32
ENDBRANCH  26  30
ENDBRANCH   1  26
TORSDOF 7
