REMARK  Name = ZINC04492364
REMARK  8 active torsions:
REMARK  status: ('A' for Active; 'I' for Inactive)
REMARK    1  A    between atoms: C_1  and  C_2
REMARK    2  A    between atoms: C_7  and  N_8
REMARK    3  A    between atoms: C_9  and  C_11
REMARK    4  A    between atoms: C_11  and  S_12
REMARK    5  A    between atoms: S_12  and  C_13
REMARK    6  A    between atoms: C_16  and  C_26
REMARK    7  A    between atoms: C_17  and  C_19
REMARK    8  A    between atoms: C_19  and  C_20
REMARK                            x       y       z     vdW  Elec       q    Type
REMARK                         _______ _______ _______ _____ _____    ______ ____
ROOT
ATOM      1  S   UNL     1       2.998  -1.292  -4.700  0.00  0.00    -0.079 S 
ENDROOT
BRANCH   1   2
ATOM      2  C   UNL     1       3.117  -0.125  -3.386  0.00  0.00    +0.167 A 
ATOM      3  N   UNL     1       3.788   1.059  -3.430  0.00  0.00    -0.337 N 
ATOM      4  H   UNL     1       4.301   1.423  -4.207  0.00  0.00    +0.168 HD
ATOM      5  C   UNL     1       3.629   1.658  -2.200  0.00  0.00    +0.037 A 
ATOM      6  C   UNL     1       2.875   0.831  -1.456  0.00  0.00    +0.067 A 
ATOM      7  N   UNL     1       2.578  -0.251  -2.195  0.00  0.00    -0.226 NA
ATOM      8  C   UNL     1       4.193   2.988  -1.771  0.00  0.00    +0.065 C 
BRANCH   6   9
ATOM      9  C   UNL     1       2.442   1.073  -0.033  0.00  0.00    +0.092 C 
BRANCH   9  10
ATOM     10  C   UNL     1       1.123   1.803  -0.027  0.00  0.00    -0.042 A 
ATOM     11  C   UNL     1      -0.061   1.091  -0.023  0.00  0.00    +0.004 A 
ATOM     12  C   UNL     1      -1.271   1.760  -0.023  0.00  0.00    +0.000 A 
ATOM     13  C   UNL     1      -1.296   3.143  -0.017  0.00  0.00    +0.000 A 
ATOM     14  C   UNL     1      -0.111   3.855  -0.021  0.00  0.00    +0.000 A 
ATOM     15  C   UNL     1       1.098   3.186  -0.026  0.00  0.00    +0.004 A 
ENDBRANCH   9  10
ENDBRANCH   6   9
ENDBRANCH   1   2
BRANCH   1  16
ATOM     16  C   UNL     1       1.979  -2.559  -3.904  0.00  0.00    +0.173 C 
BRANCH  16  18
ATOM     17  N   UNL     1       1.002  -4.753  -4.493  0.00  0.00    -0.285 N 
ATOM     18  C   UNL     1       1.740  -3.691  -4.870  0.00  0.00    +0.227 C 
ATOM     19  O   UNL     1       2.212  -3.645  -5.987  0.00  0.00    -0.275 OA
ATOM     20  H   UNL     1       0.692  -4.828  -3.577  0.00  0.00    +0.155 HD
BRANCH  17  27
ATOM     21  C   UNL     1       0.447  -7.370  -3.523  0.00  0.00    +0.046 C 
ATOM     22  C   UNL     1       0.405  -7.040  -4.993  0.00  0.00    -0.028 A 
ATOM     23  C   UNL     1       0.085  -8.019  -5.913  0.00  0.00    +0.025 A 
ATOM     24  C   UNL     1       0.052  -7.718  -7.263  0.00  0.00    +0.041 A 
ATOM     25  C   UNL     1       0.334  -6.434  -7.695  0.00  0.00    +0.022 A 
ATOM     26  C   UNL     1       0.649  -5.449  -6.779  0.00  0.00    +0.025 A 
ATOM     27  C   UNL     1       0.683  -5.749  -5.423  0.00  0.00    +0.036 A 
ATOM     28 CL   UNL     1      -0.343  -8.953  -8.417  0.00  0.00    -0.084 Cl
ENDBRANCH  17  27
ENDBRANCH  16  18
ENDBRANCH   1  16
TORSDOF 6
