REMARK  Name = ZINC09196124
REMARK  7 active torsions:
REMARK  status: ('A' for Active; 'I' for Inactive)
REMARK    1  A    between atoms: C_2  and  C_3
REMARK    2  A    between atoms: C_3  and  O_4
REMARK    3  A    between atoms: O_4  and  C_5
REMARK    4  A    between atoms: C_14  and  C_15
REMARK    5  A    between atoms: N_16  and  N_17
REMARK    6  A    between atoms: N_17  and  C_18
REMARK    7  A    between atoms: C_18  and  C_19
REMARK                            x       y       z     vdW  Elec       q    Type
REMARK                         _______ _______ _______ _____ _____    ______ ____
ROOT
ATOM      1  C   UNL     1      -1.101   6.142   1.852  0.00  0.00    +0.131 A 
ATOM      2  C   UNL     1      -1.253   7.508   2.084  0.00  0.00    +0.047 A 
ATOM      3  C   UNL     1      -1.884   7.980   3.192  0.00  0.00    +0.012 A 
ATOM      4  C   UNL     1      -2.414   7.097   4.149  0.00  0.00    -0.017 A 
ATOM      5  C   UNL     1      -3.068   7.573   5.298  0.00  0.00    +0.008 A 
ATOM      6  C   UNL     1      -3.570   6.689   6.203  0.00  0.00    +0.001 A 
ATOM      7  C   UNL     1      -3.445   5.315   6.009  0.00  0.00    +0.001 A 
ATOM      8  C   UNL     1      -2.817   4.818   4.905  0.00  0.00    +0.009 A 
ATOM      9  C   UNL     1      -2.290   5.700   3.954  0.00  0.00    -0.006 A 
ATOM     10  C   UNL     1      -1.608   5.211   2.757  0.00  0.00    +0.044 A 
ENDROOT
BRANCH  10  11
ATOM     11  C   UNL     1      -1.457   3.768   2.515  0.00  0.00    +0.142 C 
ATOM     12  N   UNL     1      -0.849   3.350   1.446  0.00  0.00    -0.194 NA
BRANCH  12  13
ATOM     13  N   UNL     1      -0.704   1.975   1.216  0.00  0.00    -0.265 N 
ATOM     14  H   UNL     1      -1.058   1.337   1.854  0.00  0.00    +0.168 HD
BRANCH  13  15
ATOM     15  C   UNL     1      -0.018   1.503   0.010  0.00  0.00    +0.160 C 
BRANCH  15  16
ATOM     16  C   UNL     1       0.002  -0.004   0.002  0.00  0.00    +0.008 A 
ATOM     17  C   UNL     1       1.057  -0.685   0.582  0.00  0.00    +0.047 A 
ATOM     18  C   UNL     1       1.073  -2.068   0.578  0.00  0.00    +0.020 A 
ATOM     19  C   UNL     1       0.040  -2.770  -0.014  0.00  0.00    +0.003 A 
ATOM     20  C   UNL     1      -1.012  -2.090  -0.599  0.00  0.00    +0.020 A 
ATOM     21  C   UNL     1      -1.032  -0.707  -0.591  0.00  0.00    +0.047 A 
ATOM     22 CL   UNL     1      -2.353   0.147  -1.325  0.00  0.00    -0.083 Cl
ATOM     23 CL   UNL     1       2.358   0.196   1.320  0.00  0.00    -0.083 Cl
ENDBRANCH  15  16
ENDBRANCH  13  15
ENDBRANCH  12  13
ENDBRANCH  10  11
BRANCH   1  24
ATOM     24  O   UNL     1      -0.458   5.715   0.734  0.00  0.00    -0.479 OA
BRANCH  24  25
ATOM     25  C   UNL     1       0.039   6.720  -0.152  0.00  0.00    +0.317 C 
BRANCH  25  27
ATOM     26  C   UNL     1       1.229   5.567  -2.215  0.00  0.00    +0.007 C 
ATOM     27  C   UNL     1       0.701   6.079  -1.299  0.00  0.00    -0.065 C 
ENDBRANCH  25  27
ENDBRANCH  24  25
ENDBRANCH   1  24
TORSDOF 7
