REMARK  Name = ZINC58054126
REMARK  4 active torsions:
REMARK  status: ('A' for Active; 'I' for Inactive)
REMARK    1  A    between atoms: C_3  and  C_9
REMARK    2  A    between atoms: C_9  and  C_10
REMARK    3  A    between atoms: C_16  and  C_18
REMARK    4  A    between atoms: C_18  and  N_19
REMARK                            x       y       z     vdW  Elec       q    Type
REMARK                         _______ _______ _______ _____ _____    ______ ____
ROOT
ATOM      1  C   UNL     1       4.243   2.224   1.371  0.00  0.00    +0.114 A 
ATOM      2  N   UNL     1       5.404   2.874   1.589  0.00  0.00    -0.311 N 
ATOM      3  H   UNL     1       5.861   3.310   0.854  0.00  0.00    +0.170 HD
ATOM      4  C   UNL     1       5.928   2.917   2.832  0.00  0.00    +0.252 A 
ATOM      5  O   UNL     1       6.977   3.501   3.046  0.00  0.00    -0.268 OA
ATOM      6  C   UNL     1       5.237   2.272   3.879  0.00  0.00    +0.091 A 
ATOM      7  C   UNL     1       4.069   1.632   3.592  0.00  0.00    +0.031 A 
ATOM      8  N   UNL     1       3.600   1.631   2.341  0.00  0.00    -0.240 NA
ENDROOT
BRANCH   1   9
ATOM      9  C   UNL     1       3.671   2.185  -0.023  0.00  0.00    +0.110 C 
BRANCH   9  12
ATOM     10  C   UNL     1      -0.017   1.379   0.010  0.00  0.00    +0.020 A 
ATOM     11  C   UNL     1       1.171   2.087   0.002  0.00  0.00    +0.007 A 
ATOM     12  C   UNL     1       2.377   1.413  -0.013  0.00  0.00    -0.022 A 
ATOM     13  C   UNL     1       2.397   0.029  -0.021  0.00  0.00    +0.046 A 
ATOM     14  C   UNL     1       1.210  -0.679  -0.013  0.00  0.00    +0.040 A 
ATOM     15  C   UNL     1       0.002  -0.004   0.002  0.00  0.00    +0.042 A 
ATOM     16 CL   UNL     1      -1.489  -0.893   0.012  0.00  0.00    -0.083 Cl
ATOM     17 CL   UNL     1       3.913  -0.817  -0.041  0.00  0.00    -0.083 Cl
ENDBRANCH   9  12
ENDBRANCH   1   9
BRANCH   7  18
ATOM     18  C   UNL     1       3.303   0.932   4.685  0.00  0.00    -0.030 C 
BRANCH  18  19
ATOM     19  N   UNL     1       2.011   1.602   4.884  0.00  0.00    +0.382 N 
ATOM     20  H   UNL     1       2.167   2.564   5.146  0.00  0.00    -0.090 HD
ATOM     21  H   UNL     1       1.480   1.569   4.027  0.00  0.00    -0.090 HD
ATOM     22  H   UNL     1       1.499   1.133   5.616  0.00  0.00    -0.090 HD
ENDBRANCH  18  19
ENDBRANCH   7  18
TORSDOF 4
