REMARK  Name = ZINC39666114
REMARK  8 active torsions:
REMARK  status: ('A' for Active; 'I' for Inactive)
REMARK    1  A    between atoms: C_1  and  C_2
REMARK    2  A    between atoms: C_5  and  O_8
REMARK    3  A    between atoms: O_8  and  C_9
REMARK    4  A    between atoms: C_9  and  C_11
REMARK    5  A    between atoms: C_9  and  C_12
REMARK    6  A    between atoms: C_12  and  N_13
REMARK    7  A    between atoms: C_14  and  C_16
REMARK    8  A    between atoms: C_27  and  C_29
REMARK                            x       y       z     vdW  Elec       q    Type
REMARK                         _______ _______ _______ _____ _____    ______ ____
ROOT
ATOM      1  C   UNL     1       4.325  -7.088   0.159  0.00  0.00    +0.100 C 
ATOM      2  C   UNL     1       5.218  -6.293   1.138  0.00  0.00    +0.121 C 
ATOM      3  N   UNL     1       6.043  -7.323   1.812  0.00  0.00    -0.296 N 
ATOM      4  C   UNL     1       6.380  -8.287   0.738  0.00  0.00    +0.115 C 
ATOM      5  C   UNL     1       5.093  -8.395  -0.104  0.00  0.00    -0.004 C 
ATOM      6  C   UNL     1       4.266  -9.594   0.350  0.00  0.00    -0.010 C 
ATOM      7  C   UNL     1       5.026 -10.883   0.027  0.00  0.00    -0.082 C 
ATOM      8  N   UNL     1       5.279 -10.956  -1.417  0.00  0.00    +0.379 N 
ATOM      9  C   UNL     1       6.151  -9.850  -1.829  0.00  0.00    -0.082 C 
ATOM     10  C   UNL     1       5.439  -8.516  -1.584  0.00  0.00    -0.010 C 
ATOM     11  C   UNL     1       6.406  -7.371   3.110  0.00  0.00    +0.249 C 
ATOM     12  O   UNL     1       7.017  -8.333   3.534  0.00  0.00    -0.270 OA
ATOM     13  H   UNL     1       5.725 -11.834  -1.636  0.00  0.00    -0.086 HD
ATOM     14  H   UNL     1       4.402 -10.894  -1.914  0.00  0.00    -0.086 HD
ENDROOT
BRANCH  11  15
ATOM     15  C   UNL     1       6.061  -6.257   4.015  0.00  0.00    +0.073 A 
ATOM     16  C   UNL     1       6.046  -4.944   3.538  0.00  0.00    +0.016 A 
ATOM     17  C   UNL     1       5.723  -3.908   4.388  0.00  0.00    +0.002 A 
ATOM     18  C   UNL     1       5.412  -4.163   5.713  0.00  0.00    +0.023 A 
ATOM     19  C   UNL     1       5.424  -5.460   6.195  0.00  0.00    +0.077 A 
ATOM     20  C   UNL     1       5.741  -6.511   5.352  0.00  0.00    +0.154 A 
ATOM     21  F   UNL     1       5.747  -7.778   5.822  0.00  0.00    -0.203 F 
ATOM     22 CL   UNL     1       5.033  -5.769   7.858  0.00  0.00    -0.081 Cl
ENDBRANCH  11  15
BRANCH   1  24
ATOM     23  N   UNL     1       1.909  -7.599   0.011  0.00  0.00    -0.312 N 
ATOM     24  C   UNL     1       2.988  -7.383   0.789  0.00  0.00    +0.218 C 
ATOM     25  O   UNL     1       2.883  -7.425   1.997  0.00  0.00    -0.275 OA
ATOM     26  H   UNL     1       1.994  -7.565  -0.955  0.00  0.00    +0.149 HD
BRANCH  23  27
ATOM     27  C   UNL     1       0.610  -7.886   0.624  0.00  0.00    +0.148 C 
BRANCH  27  28
ATOM     28  C   UNL     1      -0.437  -8.090  -0.473  0.00  0.00    +0.187 C 
ATOM     29  C   UNL     1      -1.817  -8.265   0.165  0.00  0.00    +0.053 C 
BRANCH  28  30
ATOM     30  O   UNL     1      -0.111  -9.257  -1.232  0.00  0.00    -0.488 OA
BRANCH  30  35
ATOM     31  C   UNL     1      -2.075  -9.510  -6.504  0.00  0.00    +0.044 C 
ATOM     32  C   UNL     1      -1.550  -9.443  -5.093  0.00  0.00    -0.050 A 
ATOM     33  C   UNL     1      -1.924  -8.399  -4.267  0.00  0.00    +0.007 A 
ATOM     34  C   UNL     1      -1.444  -8.335  -2.974  0.00  0.00    +0.046 A 
ATOM     35  C   UNL     1      -0.585  -9.318  -2.504  0.00  0.00    +0.121 A 
ATOM     36  C   UNL     1      -0.212 -10.364  -3.335  0.00  0.00    +0.046 A 
ATOM     37  C   UNL     1      -0.699 -10.427  -4.626  0.00  0.00    +0.007 A 
ENDBRANCH  30  35
ENDBRANCH  28  30
ENDBRANCH  27  28
ENDBRANCH  23  27
ENDBRANCH   1  24
TORSDOF 6
