REMARK  Name = ZINC14003208
REMARK  7 active torsions:
REMARK  status: ('A' for Active; 'I' for Inactive)
REMARK    1  A    between atoms: C_10  and  C_11
REMARK    2  A    between atoms: C_12  and  C_13
REMARK    3  A    between atoms: N_15  and  C_16
REMARK    4  A    between atoms: C_16  and  N_18
REMARK    5  A    between atoms: N_18  and  N_19
REMARK    6  A    between atoms: C_20  and  C_22
REMARK    7  A    between atoms: C_22  and  C_23
REMARK                            x       y       z     vdW  Elec       q    Type
REMARK                         _______ _______ _______ _____ _____    ______ ____
ROOT
ATOM      1  C   UNL     1      -2.448   0.988   0.019  0.00  0.00    +0.242 C 
ATOM      2  O   UNL     1      -2.432  -0.229   0.012  0.00  0.00    -0.270 OA
ATOM      3  N   UNL     1      -3.624   1.646   0.028  0.00  0.00    -0.263 N 
ATOM      4  H   UNL     1      -3.637   2.616   0.034  0.00  0.00    +0.157 HD
ENDROOT
BRANCH   1   6
ATOM      5  C   UNL     1      -0.013   1.076   0.008  0.00  0.00    +0.013 C 
ATOM      6  C   UNL     1      -1.193   1.736   0.017  0.00  0.00    +0.068 C 
BRANCH   5  16
ATOM      7  C   UNL     1       5.000  -0.132  -0.046  0.00  0.00    +0.001 A 
ATOM      8  C   UNL     1       3.826  -0.880  -0.038  0.00  0.00    +0.001 A 
ATOM      9  C   UNL     1       2.607  -0.269  -0.023  0.00  0.00    +0.009 A 
ATOM     10  C   UNL     1       2.533   1.129  -0.016  0.00  0.00    -0.011 A 
ATOM     11  C   UNL     1       3.726   1.893  -0.024  0.00  0.00    -0.017 A 
ATOM     12  C   UNL     1       4.965   1.230  -0.039  0.00  0.00    +0.008 A 
ATOM     13  C   UNL     1       3.648   3.295  -0.016  0.00  0.00    +0.008 A 
ATOM     14  C   UNL     1       2.440   3.925  -0.001  0.00  0.00    +0.001 A 
ATOM     15  C   UNL     1       1.246   3.219   0.002  0.00  0.00    +0.008 A 
ATOM     16  C   UNL     1       1.248   1.827   0.000  0.00  0.00    -0.017 A 
ENDBRANCH   5  16
ENDBRANCH   1   6
BRANCH   3  17
ATOM     17  C   UNL     1      -4.782   0.956   0.030  0.00  0.00    +0.153 C 
ATOM     18  S   UNL     1      -4.759  -0.755   0.021  0.00  0.00    -0.017 S 
BRANCH  17  19
ATOM     19  N   UNL     1      -5.958   1.614   0.039  0.00  0.00    -0.246 N 
ATOM     20  H   UNL     1      -6.792   1.118   0.040  0.00  0.00    +0.172 HD
BRANCH  19  21
ATOM     21  N   UNL     1      -5.977   3.015   0.047  0.00  0.00    -0.235 N 
ATOM     22  C   UNL     1      -7.154   3.673   0.056  0.00  0.00    +0.233 C 
ATOM     23  O   UNL     1      -8.196   3.053   0.058  0.00  0.00    -0.274 OA
ATOM     24  H   UNL     1      -5.144   3.512   0.045  0.00  0.00    +0.173 HD
BRANCH  22  25
ATOM     25  C   UNL     1      -7.174   5.180   0.064  0.00  0.00    +0.132 C 
BRANCH  25  26
ATOM     26  C   UNL     1      -8.601   5.663   0.074  0.00  0.00    -0.038 A 
ATOM     27  C   UNL     1      -9.260   5.896  -1.119  0.00  0.00    +0.005 A 
ATOM     28  C   UNL     1     -10.571   6.334  -1.111  0.00  0.00    +0.020 A 
ATOM     29  C   UNL     1     -11.221   6.549   0.091  0.00  0.00    +0.041 A 
ATOM     30  C   UNL     1     -10.559   6.321   1.284  0.00  0.00    +0.020 A 
ATOM     31  C   UNL     1      -9.250   5.878   1.275  0.00  0.00    +0.005 A 
ATOM     32 CL   UNL     1     -12.865   7.105   0.102  0.00  0.00    -0.084 Cl
ENDBRANCH  25  26
ENDBRANCH  22  25
ENDBRANCH  19  21
ENDBRANCH  17  19
ENDBRANCH   3  17
TORSDOF 7
