REMARK  Name = ZINC39855802
REMARK  8 active torsions:
REMARK  status: ('A' for Active; 'I' for Inactive)
REMARK    1  A    between atoms: C_1  and  C_2
REMARK    2  A    between atoms: C_6  and  C_7
REMARK    3  A    between atoms: N_9  and  C_10
REMARK    4  A    between atoms: C_10  and  C_11
REMARK    5  A    between atoms: C_14  and  C_25
REMARK    6  A    between atoms: C_14  and  C_26
REMARK    7  A    between atoms: N_17  and  N_18
REMARK    8  A    between atoms: N_18  and  C_19
REMARK                            x       y       z     vdW  Elec       q    Type
REMARK                         _______ _______ _______ _____ _____    ______ ____
ROOT
ATOM      1  C   UNL     1      -0.018   1.503   0.010  0.00  0.00    +0.048 C 
ATOM      2  C   UNL     1       0.002  -0.004   0.002  0.00  0.00    +0.009 A 
ATOM      3  C   UNL     1       0.009  -0.838  -1.122  0.00  0.00    +0.042 A 
ATOM      4  C   UNL     1       0.027  -2.137  -0.673  0.00  0.00    +0.116 A 
ATOM      5  O   UNL     1       0.035  -2.112   0.658  0.00  0.00    -0.454 OA
ATOM      6  C   UNL     1       0.024  -0.830   1.091  0.00  0.00    +0.193 A 
ATOM      7  C   UNL     1       0.034  -3.326  -1.600  0.00  0.00    +0.081 C 
ATOM      8  C   UNL     1      -0.492  -2.902  -2.974  0.00  0.00    -0.023 C 
ATOM      9  C   UNL     1       0.279  -1.684  -3.495  0.00  0.00    +0.064 C 
ATOM     10  C   UNL     1       0.000  -0.511  -2.566  0.00  0.00    +0.070 C 
ATOM     11  N   UNL     1      -0.228   0.687  -3.008  0.00  0.00    -0.186 NA
ATOM     12  C   UNL     1      -1.976  -2.549  -2.860  0.00  0.00    +0.011 C 
ATOM     13  C   UNL     1      -0.325  -4.062  -3.958  0.00  0.00    +0.011 C 
ENDROOT
BRANCH   6  14
ATOM     14  C   UNL     1       0.031  -0.400   2.494  0.00  0.00    +0.280 C 
ATOM     15  O   UNL     1       0.017   0.786   2.766  0.00  0.00    -0.267 OA
ATOM     16  N   UNL     1       0.054  -1.317   3.480  0.00  0.00    -0.305 N 
ATOM     17  H   UNL     1       0.065  -2.263   3.263  0.00  0.00    +0.149 HD
BRANCH  16  18
ATOM     18  C   UNL     1       0.061  -0.887   4.881  0.00  0.00    +0.131 C 
BRANCH  18  19
ATOM     19  C   UNL     1       0.086  -2.098   5.778  0.00  0.00    -0.016 C 
ATOM     20  C   UNL     1       1.026  -2.223   6.682  0.00  0.00    +0.005 C 
ENDBRANCH  18  19
ENDBRANCH  16  18
ENDBRANCH   6  14
BRANCH  11  21
ATOM     21  N   UNL     1      -0.223   0.939  -4.386  0.00  0.00    -0.238 N 
ATOM     22  H   UNL     1      -0.050   0.217  -5.010  0.00  0.00    +0.174 HD
BRANCH  21  23
ATOM     23  C   UNL     1      -0.468   2.228  -4.860  0.00  0.00    +0.048 A 
ATOM     24  C   UNL     1      -0.711   3.265  -3.967  0.00  0.00    +0.025 A 
ATOM     25  C   UNL     1      -0.952   4.539  -4.440  0.00  0.00    +0.002 A 
ATOM     26  C   UNL     1      -0.953   4.785  -5.801  0.00  0.00    +0.000 A 
ATOM     27  C   UNL     1      -0.712   3.756  -6.693  0.00  0.00    +0.002 A 
ATOM     28  C   UNL     1      -0.464   2.480  -6.227  0.00  0.00    +0.025 A 
ENDBRANCH  21  23
ENDBRANCH  11  21
TORSDOF 5
