REMARK  Name = ZINC59892065
REMARK  16 active torsions:
REMARK  status: ('A' for Active; 'I' for Inactive)
REMARK    1  A    between atoms: C_1  and  C_2
REMARK    2  A    between atoms: C_2  and  N_3
REMARK    3  A    between atoms: N_3  and  C_4
REMARK    4  A    between atoms: N_3  and  S_6
REMARK    5  A    between atoms: C_4  and  C_5
REMARK    6  A    between atoms: S_6  and  C_9
REMARK    7  A    between atoms: C_12  and  N_15
REMARK    8  A    between atoms: C_16  and  C_18
REMARK    9  A    between atoms: C_18  and  S_19
REMARK   10  A    between atoms: S_19  and  C_20
REMARK   11  A    between atoms: N_25  and  N_26
REMARK   12  A    between atoms: C_27  and  C_28
REMARK   13  A    between atoms: C_27  and  C_29
REMARK   14  A    between atoms: C_29  and  C_30
REMARK   15  A    between atoms: C_30  and  C_31
REMARK   16  A    between atoms: C_30  and  C_32
REMARK                            x       y       z     vdW  Elec       q    Type
REMARK                         _______ _______ _______ _____ _____    ______ ____
ROOT
ATOM      1  N   UNL     1      -4.802   3.932   3.504  0.00  0.00    -0.285 N 
ATOM      2  C   UNL     1      -6.048   4.235   3.089  0.00  0.00    +0.227 C 
ATOM      3  O   UNL     1      -6.649   3.470   2.365  0.00  0.00    -0.275 OA
ATOM      4  H   UNL     1      -4.350   4.505   4.142  0.00  0.00    +0.155 HD
ENDROOT
BRANCH   1   8
ATOM      5  C   UNL     1      -2.889   0.531   2.043  0.00  0.00    +0.106 A 
ATOM      6  C   UNL     1      -3.760   1.235   1.231  0.00  0.00    +0.030 A 
ATOM      7  C   UNL     1      -4.395   2.363   1.713  0.00  0.00    +0.025 A 
ATOM      8  C   UNL     1      -4.160   2.789   3.013  0.00  0.00    +0.034 A 
ATOM      9  C   UNL     1      -3.286   2.079   3.826  0.00  0.00    +0.025 A 
ATOM     10  C   UNL     1      -2.657   0.950   3.340  0.00  0.00    +0.030 A 
BRANCH   5  11
ATOM     11  S   UNL     1      -2.081  -0.907   1.425  0.00  0.00    +0.061 S 
ATOM     12  O   UNL     1      -0.904  -1.078   2.204  0.00  0.00    -0.153 OA
ATOM     13  O   UNL     1      -2.046  -0.778   0.011  0.00  0.00    -0.153 OA
BRANCH  11  14
ATOM     14  N   UNL     1      -3.060  -2.201   1.758  0.00  0.00    -0.177 NA
BRANCH  14  16
ATOM     15  C   UNL     1      -5.417  -1.978   1.144  0.00  0.00    +0.022 C 
ATOM     16  C   UNL     1      -4.075  -2.620   0.788  0.00  0.00    +0.106 C 
ENDBRANCH  14  16
BRANCH  14  17
ATOM     17  C   UNL     1      -2.912  -2.926   3.022  0.00  0.00    +0.106 C 
ATOM     18  C   UNL     1      -2.000  -4.136   2.812  0.00  0.00    +0.022 C 
ENDBRANCH  14  17
ENDBRANCH  11  14
ENDBRANCH   5  11
ENDBRANCH   1   8
BRANCH   2  19
ATOM     19  C   UNL     1      -6.693   5.526   3.523  0.00  0.00    +0.173 C 
BRANCH  19  20
ATOM     20  S   UNL     1      -8.355   5.643   2.805  0.00  0.00    -0.075 S 
BRANCH  20  21
ATOM     21  C   UNL     1      -8.969   7.184   3.399  0.00  0.00    +0.211 A 
ATOM     22  N   UNL     1     -10.174   7.696   3.129  0.00  0.00    -0.186 NA
ATOM     23  C   UNL     1     -10.306   8.859   3.732  0.00  0.00    +0.232 A 
ATOM     24  N   UNL     1      -9.165   9.110   4.408  0.00  0.00    -0.245 N 
ATOM     25  N   UNL     1      -8.319   8.012   4.181  0.00  0.00    -0.144 NA
ATOM     26  N   UNL     1     -11.419   9.679   3.682  0.00  0.00    -0.205 N 
ATOM     27  H   UNL     1     -11.422  10.522   4.162  0.00  0.00    +0.177 HD
ATOM     28  H   UNL     1      -8.969   9.893   4.946  0.00  0.00    +0.192 HD
BRANCH  26  29
ATOM     29  N   UNL     1     -12.541   9.293   2.937  0.00  0.00    -0.189 NA
ATOM     30  C   UNL     1     -13.570  10.053   2.890  0.00  0.00    +0.034 C 
ATOM     31  C   UNL     1     -13.575  11.362   3.636  0.00  0.00    +0.062 C 
BRANCH  30  32
ATOM     32  C   UNL     1     -14.777   9.637   2.089  0.00  0.00    +0.055 C 
BRANCH  32  33
ATOM     33  C   UNL     1     -15.961   9.410   3.031  0.00  0.00    -0.012 C 
ATOM     34  C   UNL     1     -17.217   9.110   2.210  0.00  0.00    +0.007 C 
ATOM     35  C   UNL     1     -15.660   8.227   3.953  0.00  0.00    +0.007 C 
ENDBRANCH  32  33
ENDBRANCH  30  32
ENDBRANCH  26  29
ENDBRANCH  20  21
ENDBRANCH  19  20
ENDBRANCH   2  19
TORSDOF 11
