REMARK  Name = ZINC44321339
REMARK  8 active torsions:
REMARK  status: ('A' for Active; 'I' for Inactive)
REMARK    1  A    between atoms: C_1  and  C_2
REMARK    2  A    between atoms: C_8  and  C_16
REMARK    3  A    between atoms: C_16  and  CA_17
REMARK    4  A    between atoms: CA_17  and  C_19
REMARK    5  A    between atoms: CA_17  and  N_22
REMARK    6  A    between atoms: C_23  and  O_25
REMARK    7  A    between atoms: O_25  and  C_26
REMARK    8  A    between atoms: C_26  and  C_27
REMARK                            x       y       z     vdW  Elec       q    Type
REMARK                         _______ _______ _______ _____ _____    ______ ____
ROOT
ATOM      1  CA  UNL     1      -1.392  -1.897   4.172  0.00  0.00    +0.193 C 
ENDROOT
BRANCH   1   2
ATOM      2  N   UNL     1      -2.064  -0.975   3.253  0.00  0.00    -0.267 N 
ATOM      3  C   UNL     1      -3.406  -1.009   3.126  0.00  0.00    +0.401 C 
ATOM      4  O   UNL     1      -4.058  -1.804   3.773  0.00  0.00    -0.226 OA
ATOM      5  H   UNL     1      -1.544  -0.340   2.736  0.00  0.00    +0.153 HD
BRANCH   3   6
ATOM      6  O   UNL     1      -4.024  -0.161   2.281  0.00  0.00    -0.449 OA
BRANCH   6   7
ATOM      7  C   UNL     1      -5.447  -0.253   2.197  0.00  0.00    +0.246 C 
BRANCH   7   8
ATOM      8  C   UNL     1      -5.966   0.780   1.194  0.00  0.00    +0.088 C 
ATOM      9  C   UNL     1      -5.538   0.408  -0.204  0.00  0.00    -0.029 A 
ATOM     10  C   UNL     1      -4.296   0.252  -0.782  0.00  0.00    +0.005 A 
ATOM     11  C   UNL     1      -4.192  -0.103  -2.115  0.00  0.00    +0.000 A 
ATOM     12  C   UNL     1      -5.333  -0.301  -2.871  0.00  0.00    +0.001 A 
ATOM     13  C   UNL     1      -6.580  -0.146  -2.302  0.00  0.00    +0.009 A 
ATOM     14  C   UNL     1      -6.693   0.211  -0.957  0.00  0.00    -0.014 A 
ATOM     15  C   UNL     1      -7.885   0.441  -0.103  0.00  0.00    -0.014 A 
ATOM     16  C   UNL     1      -7.475   0.781   1.183  0.00  0.00    -0.029 A 
ATOM     17  C   UNL     1      -8.408   1.044   2.164  0.00  0.00    +0.005 A 
ATOM     18  C   UNL     1      -9.758   0.971   1.872  0.00  0.00    +0.000 A 
ATOM     19  C   UNL     1     -10.175   0.633   0.598  0.00  0.00    +0.001 A 
ATOM     20  C   UNL     1      -9.249   0.368  -0.390  0.00  0.00    +0.009 A 
ENDBRANCH   7   8
ENDBRANCH   6   7
ENDBRANCH   3   6
ENDBRANCH   1   2
BRANCH   1  21
ATOM     21  C   UNL     1      -1.395  -1.312   5.561  0.00  0.00    +0.376 C 
ATOM     22  O   UNL     1      -1.742  -0.157   5.736  0.00  0.00    -0.244 OA
ATOM     23  OXT UNL     1      -1.049  -1.995   6.510  0.00  0.00    -0.244 OA
ENDBRANCH   1  21
BRANCH   1  24
ATOM     24  C   UNL     1       0.051  -2.113   3.712  0.00  0.00    +0.070 C 
BRANCH  24  32
ATOM     25  C   UNL     1      -0.018   1.503   0.010  0.00  0.00    +0.044 C 
ATOM     26  C   UNL     1       0.002  -0.004   0.002  0.00  0.00    -0.050 A 
ATOM     27  C   UNL     1       0.005  -0.678  -1.219  0.00  0.00    +0.005 A 
ATOM     28  C   UNL     1       0.024  -2.034  -1.289  0.00  0.00    +0.026 A 
ATOM     29  C   UNL     1       0.040  -2.794  -0.099  0.00  0.00    +0.047 A 
ATOM     30  C   UNL     1       0.037  -2.083   1.183  0.00  0.00    +0.002 A 
ATOM     31  C   UNL     1       0.022  -0.673   1.184  0.00  0.00    +0.013 A 
ATOM     32  C   UNL     1       0.053  -2.810   2.376  0.00  0.00    -0.027 A 
ATOM     33  C   UNL     1       0.071  -4.205   2.289  0.00  0.00    +0.002 A 
ATOM     34  C   UNL     1       0.088  -5.011   3.445  0.00  0.00    +0.010 A 
ATOM     35  C   UNL     1       0.105  -6.363   3.317  0.00  0.00    +0.001 A 
ATOM     36  C   UNL     1       0.107  -6.978   2.065  0.00  0.00    +0.002 A 
ATOM     37  C   UNL     1       0.093  -6.259   0.914  0.00  0.00    +0.026 A 
ATOM     38  C   UNL     1       0.073  -4.849   0.972  0.00  0.00    +0.047 A 
ATOM     39  N   UNL     1       0.057  -4.122  -0.140  0.00  0.00    -0.354 N 
ATOM     40  H   UNL     1       0.059  -4.570  -1.000  0.00  0.00    +0.166 HD
ENDBRANCH  24  32
ENDBRANCH   1  24
TORSDOF 7
