REMARK  Name = ZINC16321820
REMARK  5 active torsions:
REMARK  status: ('A' for Active; 'I' for Inactive)
REMARK    1  A    between atoms: C_1  and  C_2
REMARK    2  A    between atoms: C_2  and  O_4
REMARK    3  A    between atoms: O_4  and  C_5
REMARK    4  A    between atoms: C_8  and  N_11
REMARK    5  A    between atoms: C_20  and  C_34
REMARK                            x       y       z     vdW  Elec       q    Type
REMARK                         _______ _______ _______ _____ _____    ______ ____
ROOT
ATOM      1  N   UNL     1       0.210  -6.191  -1.406  0.00  0.00    -0.210 N 
ATOM      2  C   UNL     1       0.188  -7.001  -0.294  0.00  0.00    +0.231 C 
ATOM      3  O   UNL     1      -0.148  -6.702   0.832  0.00  0.00    -0.274 OA
ATOM      4  C   UNL     1       0.662  -8.315  -0.772  0.00  0.00    +0.101 C 
ATOM      5  C   UNL     1       0.075  -8.282  -2.205  0.00  0.00    +0.103 C 
ATOM      6  C   UNL     1       0.285  -6.897  -2.585  0.00  0.00    +0.231 C 
ATOM      7  O   UNL     1       0.484  -6.459  -3.698  0.00  0.00    -0.274 OA
ATOM      8  C   UNL     1       0.156  -9.613  -2.827  0.00  0.00    +0.030 C 
ATOM      9  C   UNL     1       1.370 -10.378  -2.341  0.00  0.00    -0.033 A 
ATOM     10  C   UNL     1       2.315 -10.946  -3.150  0.00  0.00    +0.005 A 
ATOM     11  C   UNL     1       3.354 -11.661  -2.569  0.00  0.00    +0.000 A 
ATOM     12  C   UNL     1       3.434 -11.803  -1.196  0.00  0.00    +0.000 A 
ATOM     13  C   UNL     1       2.482 -11.210  -0.375  0.00  0.00    +0.004 A 
ATOM     14  C   UNL     1       1.481 -10.494  -0.953  0.00  0.00    -0.035 A 
ATOM     15  C   UNL     1       0.399  -9.670  -0.178  0.00  0.00    +0.062 C 
ATOM     16  C   UNL     1      -0.894 -10.258  -0.737  0.00  0.00    -0.035 A 
ATOM     17  C   UNL     1      -1.002 -10.317  -2.107  0.00  0.00    -0.033 A 
ATOM     18  C   UNL     1      -2.070 -10.904  -2.704  0.00  0.00    +0.005 A 
ATOM     19  C   UNL     1      -3.065 -11.448  -1.899  0.00  0.00    +0.000 A 
ATOM     20  C   UNL     1      -2.958 -11.382  -0.523  0.00  0.00    +0.000 A 
ATOM     21  C   UNL     1      -1.903 -10.757   0.042  0.00  0.00    +0.004 A 
ATOM     22  C   UNL     1       0.009  -9.581  -4.349  0.00  0.00    +0.022 C 
ENDROOT
BRANCH   1  26
ATOM     23  C   UNL     1       0.052  -2.026  -1.224  0.00  0.00    +0.132 A 
ATOM     24  C   UNL     1       0.030  -2.773  -0.055  0.00  0.00    +0.048 A 
ATOM     25  C   UNL     1       0.082  -4.151  -0.115  0.00  0.00    +0.027 A 
ATOM     26  C   UNL     1       0.157  -4.790  -1.345  0.00  0.00    +0.044 A 
ATOM     27  C   UNL     1       0.178  -4.043  -2.514  0.00  0.00    +0.027 A 
ATOM     28  C   UNL     1       0.120  -2.664  -2.454  0.00  0.00    +0.048 A 
BRANCH  23  29
ATOM     29  O   UNL     1       0.000  -0.669  -1.164  0.00  0.00    -0.426 OA
BRANCH  29  31
ATOM     30  C   UNL     1       1.145   1.497  -0.855  0.00  0.00    +0.136 C 
ATOM     31  C   UNL     1       1.120  -0.010  -0.827  0.00  0.00    +0.309 C 
ATOM     32  O   UNL     1       2.107  -0.625  -0.500  0.00  0.00    -0.251 OA
ENDBRANCH  29  31
ENDBRANCH  23  29
ENDBRANCH   1  26
TORSDOF 3
