REMARK  Name = ZINC03011738
REMARK  5 active torsions:
REMARK  status: ('A' for Active; 'I' for Inactive)
REMARK    1  A    between atoms: C_1  and  C_2
REMARK    2  A    between atoms: C_5  and  C_8
REMARK    3  A    between atoms: C_11  and  C_34
REMARK    4  A    between atoms: C_16  and  C_18
REMARK    5  A    between atoms: N_23  and  C_26
REMARK                            x       y       z     vdW  Elec       q    Type
REMARK                         _______ _______ _______ _____ _____    ______ ____
ROOT
ATOM      1  C   UNL     1      -0.101  -4.221   0.294  0.00  0.00    +0.104 C 
ATOM      2  C   UNL     1      -1.445  -4.607   0.922  0.00  0.00    +0.063 C 
ATOM      3  C   UNL     1      -1.609  -6.131   0.908  0.00  0.00    +0.215 C 
ATOM      4  N   UNL     1      -0.400  -6.743   1.466  0.00  0.00    -0.238 N 
ATOM      5  C   UNL     1       0.801  -6.099   1.561  0.00  0.00    +0.119 A 
ATOM      6  C   UNL     1       1.688  -6.946   2.120  0.00  0.00    +0.078 A 
ATOM      7  C   UNL     1       1.014  -8.161   2.380  0.00  0.00    +0.149 A 
ATOM      8  N   UNL     1      -0.240  -8.028   1.982  0.00  0.00    -0.164 NA
ATOM      9  N   UNL     1       0.986  -4.785   1.119  0.00  0.00    -0.322 N 
ATOM     10  H   UNL     1       1.778  -4.273   1.344  0.00  0.00    +0.148 HD
ENDROOT
BRANCH   7  11
ATOM     11  C   UNL     1       1.607  -9.368   2.989  0.00  0.00    +0.267 C 
ATOM     12  O   UNL     1       2.740  -9.333   3.429  0.00  0.00    -0.268 OA
ATOM     13  N   UNL     1       0.893 -10.509   3.057  0.00  0.00    -0.293 N 
ATOM     14  C   UNL     1      -0.410 -10.617   2.385  0.00  0.00    +0.127 C 
ATOM     15  C   UNL     1      -0.378 -11.830   1.446  0.00  0.00    +0.124 C 
ATOM     16  N   UNL     1       0.132 -12.988   2.193  0.00  0.00    -0.327 N 
ATOM     17  C   UNL     1       1.435 -12.880   2.864  0.00  0.00    +0.124 C 
ATOM     18  C   UNL     1       1.406 -11.670   3.798  0.00  0.00    +0.127 C 
BRANCH  16  19
ATOM     19  C   UNL     1      -0.608 -14.171   2.263  0.00  0.00    +0.031 A 
ATOM     20  C   UNL     1      -1.744 -14.328   1.479  0.00  0.00    +0.023 A 
ATOM     21  C   UNL     1      -2.474 -15.498   1.550  0.00  0.00    +0.003 A 
ATOM     22  C   UNL     1      -2.075 -16.514   2.400  0.00  0.00    +0.020 A 
ATOM     23  C   UNL     1      -0.944 -16.361   3.182  0.00  0.00    +0.043 A 
ATOM     24  C   UNL     1      -0.206 -15.194   3.111  0.00  0.00    +0.043 A 
ATOM     25 CL   UNL     1      -0.447 -17.638   4.248  0.00  0.00    -0.083 Cl
ENDBRANCH  16  19
ENDBRANCH   7  11
BRANCH   1  30
ATOM     26  C   UNL     1       0.376   1.535   0.123  0.00  0.00    +0.044 C 
ATOM     27  C   UNL     1       0.252   0.034   0.168  0.00  0.00    -0.050 A 
ATOM     28  C   UNL     1      -0.110  -0.664  -0.969  0.00  0.00    +0.004 A 
ATOM     29  C   UNL     1      -0.224  -2.041  -0.928  0.00  0.00    +0.006 A 
ATOM     30  C   UNL     1       0.024  -2.720   0.249  0.00  0.00    -0.027 A 
ATOM     31  C   UNL     1       0.387  -2.022   1.386  0.00  0.00    +0.006 A 
ATOM     32  C   UNL     1       0.505  -0.646   1.344  0.00  0.00    +0.004 A 
ENDBRANCH   1  30
BRANCH   3  33
ATOM     33  C   UNL     1      -2.822  -6.524   1.753  0.00  0.00    +0.412 C 
ATOM     34  F   UNL     1      -3.972  -5.927   1.224  0.00  0.00    -0.168 F 
ATOM     35  F   UNL     1      -2.970  -7.915   1.740  0.00  0.00    -0.168 F 
ATOM     36  F   UNL     1      -2.634  -6.088   3.069  0.00  0.00    -0.168 F 
ENDBRANCH   3  33
TORSDOF 4
