REMARK  Name = ZINC20466570
REMARK  8 active torsions:
REMARK  status: ('A' for Active; 'I' for Inactive)
REMARK    1  A    between atoms: C_1  and  C_2
REMARK    2  A    between atoms: C_4  and  N_30
REMARK    3  A    between atoms: C_8  and  C_29
REMARK    4  A    between atoms: C_11  and  O_28
REMARK    5  A    between atoms: C_13  and  C_17
REMARK    6  A    between atoms: C_17  and  C_19
REMARK    7  A    between atoms: C_17  and  C_20
REMARK    8  A    between atoms: C_31  and  C_33
REMARK                            x       y       z     vdW  Elec       q    Type
REMARK                         _______ _______ _______ _____ _____    ______ ____
ROOT
ATOM      1  C   UNL     1      -2.206   2.795   0.593  0.00  0.00    +0.010 C 
ATOM      2  C   UNL     1      -0.915   3.616   0.632  0.00  0.00    +0.012 C 
ATOM      3  C   UNL     1      -1.114   4.917  -0.148  0.00  0.00    +0.076 C 
ATOM      4  C   UNL     1       0.176   5.737  -0.109  0.00  0.00    +0.023 C 
ATOM      5  C   UNL     1       1.312   4.931  -0.743  0.00  0.00    +0.009 C 
ATOM      6  C   UNL     1       1.511   3.630   0.037  0.00  0.00    -0.027 C 
ATOM      7  C   UNL     1       0.220   2.810  -0.002  0.00  0.00    +0.028 C 
ATOM      8  C   UNL     1       0.419   1.508   0.778  0.00  0.00    +0.122 C 
ATOM      9  C   UNL     1       1.555   0.703   0.144  0.00  0.00    +0.029 C 
ATOM     10  C   UNL     1       2.846   1.523   0.183  0.00  0.00    +0.007 C 
ATOM     11  C   UNL     1       2.647   2.824  -0.597  0.00  0.00    +0.007 C 
ATOM     12  C   UNL     1       1.865   3.955   1.490  0.00  0.00    +0.011 C 
ENDROOT
BRANCH   3  13
ATOM     13  N   UNL     1      -2.202   5.689   0.460  0.00  0.00    -0.312 N 
ATOM     14  C   UNL     1      -2.895   6.575  -0.282  0.00  0.00    +0.216 C 
ATOM     15  O   UNL     1      -2.619   6.733  -1.453  0.00  0.00    -0.276 OA
ATOM     16  H   UNL     1      -2.452   5.545   1.521  0.00  0.00    +0.149 HD
BRANCH  14  17
ATOM     17  C   UNL     1      -4.014   7.368   0.342  0.00  0.00    +0.075 C 
ATOM     18  C   UNL     1      -5.084   6.412   0.871  0.00  0.00    +0.013 C 
ATOM     19  C   UNL     1      -6.220   7.218   1.505  0.00  0.00    +0.001 C 
ATOM     20  C   UNL     1      -6.837   8.143   0.454  0.00  0.00    +0.000 C 
ATOM     21  C   UNL     1      -5.766   9.099  -0.075  0.00  0.00    +0.001 C 
ATOM     22  C   UNL     1      -4.631   8.293  -0.709  0.00  0.00    +0.013 C 
ENDBRANCH  14  17
ENDBRANCH   3  13
BRANCH   9  23
ATOM     23  C   UNL     1       1.754  -0.599   0.923  0.00  0.00    +0.078 C 
ATOM     24  C   UNL     1       2.154  -0.274   2.364  0.00  0.00    +0.017 C 
BRANCH  23  25
ATOM     25  C   UNL     1       2.841  -1.413   0.272  0.00  0.00    +0.219 C 
ATOM     26  O   UNL     1       3.986  -1.320   0.662  0.00  0.00    -0.275 OA
ATOM     27  N   UNL     1       2.542  -2.246  -0.745  0.00  0.00    -0.297 N 
ATOM     28  C   UNL     1       1.182  -2.301  -1.304  0.00  0.00    +0.136 C 
ATOM     29  C   UNL     1       1.286  -2.160  -2.832  0.00  0.00    +0.179 C 
ATOM     30  O   UNL     1       2.216  -3.125  -3.329  0.00  0.00    -0.377 OA
ATOM     31  C   UNL     1       3.551  -2.954  -2.847  0.00  0.00    +0.179 C 
ATOM     32  C   UNL     1       3.564  -3.132  -1.325  0.00  0.00    +0.136 C 
ENDBRANCH  23  25
ENDBRANCH   9  23
BRANCH   8  33
ATOM     33  O   UNL     1      -0.786   0.742   0.741  0.00  0.00    -0.391 OA
ATOM     34  H   UNL     1      -0.835  -0.231   1.251  0.00  0.00    +0.210 HD
ENDBRANCH   8  33
TORSDOF 5
