REMARK  Name = ZINC63139102
REMARK  6 active torsions:
REMARK  status: ('A' for Active; 'I' for Inactive)
REMARK    1  A    between atoms: C_1  and  O_2
REMARK    2  A    between atoms: O_2  and  C_3
REMARK    3  A    between atoms: C_6  and  C_9
REMARK    4  A    between atoms: N_22  and  C_25
REMARK    5  A    between atoms: C_25  and  C_26
REMARK    6  A    between atoms: C_26  and  C_27
REMARK                            x       y       z     vdW  Elec       q    Type
REMARK                         _______ _______ _______ _____ _____    ______ ____
ROOT
ATOM      1  C   UNL     1      -4.981  -2.629   0.035  0.00  0.00    +0.132 C 
ATOM      2  C   UNL     1      -5.318  -3.140  -1.355  0.00  0.00    +0.134 C 
ATOM      3  C   UNL     1      -4.512  -4.452  -1.581  0.00  0.00    +0.030 C 
ATOM      4  C   UNL     1      -5.211  -5.567  -0.825  0.00  0.00    +0.038 C 
ATOM      5  C   UNL     1      -5.721  -4.979   0.502  0.00  0.00    +0.163 C 
ATOM      6  N   UNL     1      -4.919  -3.845   0.887  0.00  0.00    -0.279 N 
ATOM      7  C   UNL     1      -4.126  -3.858   1.958  0.00  0.00    +0.234 C 
ATOM      8  O   UNL     1      -3.554  -2.833   2.264  0.00  0.00    -0.274 OA
ATOM      9  C   UNL     1      -3.905  -5.075   2.804  0.00  0.00    +0.203 C 
ATOM     10  N   UNL     1      -4.947  -6.069   2.592  0.00  0.00    -0.291 N 
ATOM     11  C   UNL     1      -5.729  -6.025   1.567  0.00  0.00    +0.237 C 
ATOM     12  O   UNL     1      -6.552  -6.913   1.492  0.00  0.00    -0.274 OA
ATOM     13  C   UNL     1      -4.602  -4.506  -3.104  0.00  0.00    +0.065 C 
ATOM     14  C   UNL     1      -3.460  -5.237  -3.736  0.00  0.00    -0.017 C 
ATOM     15  C   UNL     1      -2.798  -4.728  -4.771  0.00  0.00    -0.004 C 
ATOM     16  C   UNL     1      -3.124  -3.430  -5.354  0.00  0.00    +0.001 C 
ATOM     17  C   UNL     1      -3.966  -2.582  -4.709  0.00  0.00    +0.023 C 
ATOM     18  C   UNL     1      -4.540  -3.030  -3.478  0.00  0.00    +0.043 C 
ATOM     19  N   UNL     1      -4.928  -2.308  -2.481  0.00  0.00    -0.282 NA
ENDROOT
BRANCH   1  23
ATOM     20  C   UNL     1      -1.200  -0.637   0.010  0.00  0.00    +0.120 A 
ATOM     21  C   UNL     1      -2.375   0.101   0.019  0.00  0.00    +0.046 A 
ATOM     22  C   UNL     1      -3.596  -0.545   0.027  0.00  0.00    +0.009 A 
ATOM     23  C   UNL     1      -3.648  -1.927   0.026  0.00  0.00    -0.025 A 
ATOM     24  C   UNL     1      -2.479  -2.665   0.017  0.00  0.00    +0.009 A 
ATOM     25  C   UNL     1      -1.255  -2.024   0.003  0.00  0.00    +0.046 A 
BRANCH  20  27
ATOM     26  C   UNL     1      -0.017   1.425   0.010  0.00  0.00    +0.277 C 
ATOM     27  O   UNL     1       0.002  -0.004   0.002  0.00  0.00    -0.495 OA
ENDBRANCH  20  27
ENDBRANCH   1  23
BRANCH  10  28
ATOM     28  C   UNL     1      -5.090  -7.149   3.571  0.00  0.00    +0.113 C 
BRANCH  28  29
ATOM     29  C   UNL     1      -6.064  -6.718   4.669  0.00  0.00    +0.052 C 
BRANCH  29  30
ATOM     30  C   UNL     1      -6.210  -7.830   5.676  0.00  0.00    -0.040 C 
ATOM     31  C   UNL     1      -5.533  -7.968   6.839  0.00  0.00    -0.001 A 
ATOM     32  C   UNL     1      -4.497  -7.157   7.489  0.00  0.00    +0.010 A 
ATOM     33  C   UNL     1      -3.998  -7.561   8.679  0.00  0.00    +0.001 A 
ATOM     34  C   UNL     1      -4.444  -8.733   9.305  0.00  0.00    +0.002 A 
ATOM     35  C   UNL     1      -5.392  -9.530   8.770  0.00  0.00    +0.026 A 
ATOM     36  C   UNL     1      -5.987  -9.201   7.521  0.00  0.00    +0.043 A 
ATOM     37  N   UNL     1      -6.909  -9.801   6.808  0.00  0.00    -0.380 N 
ATOM     38  C   UNL     1      -7.148  -9.013   5.594  0.00  0.00    +0.144 C 
ATOM     39  H   UNL     1      -7.360 -10.627   7.045  0.00  0.00    +0.160 HD
ENDBRANCH  29  30
ENDBRANCH  28  29
ENDBRANCH  10  28
TORSDOF 5
