REMARK  Name = ZINC06759970
REMARK  7 active torsions:
REMARK  status: ('A' for Active; 'I' for Inactive)
REMARK    1  A    between atoms: C_1  and  C_2
REMARK    2  A    between atoms: C_4  and  C_23
REMARK    3  A    between atoms: C_5  and  O_9
REMARK    4  A    between atoms: C_6  and  C_8
REMARK    5  A    between atoms: O_9  and  C_10
REMARK    6  A    between atoms: C_10  and  C_11
REMARK    7  A    between atoms: N_15  and  C_16
REMARK                            x       y       z     vdW  Elec       q    Type
REMARK                         _______ _______ _______ _____ _____    ______ ____
ROOT
ATOM      1  C   UNL     1       5.460  -1.641  -0.883  0.00  0.00    +0.194 A 
ATOM      2  N   UNL     1       5.604  -2.938  -0.807  0.00  0.00    -0.109 NA
ATOM      3  N   UNL     1       6.831  -3.270  -0.994  0.00  0.00    -0.023 NA
ATOM      4  N   UNL     1       7.549  -2.219  -1.201  0.00  0.00    -0.039 NA
ATOM      5  N   UNL     1       6.678  -1.117  -1.141  0.00  0.00    -0.194 N 
ENDROOT
BRANCH   5   6
ATOM      6  C   UNL     1       7.004   0.237  -1.310  0.00  0.00    +0.069 A 
ATOM      7  C   UNL     1       6.194   1.055  -2.086  0.00  0.00    +0.029 A 
ATOM      8  C   UNL     1       6.514   2.389  -2.246  0.00  0.00    +0.017 A 
ATOM      9  C   UNL     1       7.648   2.907  -1.644  0.00  0.00    +0.018 A 
ATOM     10  C   UNL     1       8.460   2.092  -0.876  0.00  0.00    +0.017 A 
ATOM     11  C   UNL     1       8.141   0.759  -0.708  0.00  0.00    +0.029 A 
ATOM     12 BR   UNL     1       8.088   4.732  -1.873  0.00  0.00    -0.050 Br
ENDBRANCH   5   6
BRANCH   1  13
ATOM     13  C   UNL     1       4.174  -0.874  -0.719  0.00  0.00    +0.307 C 
BRANCH  13  14
ATOM     14  O   UNL     1       3.932  -0.641   0.670  0.00  0.00    -0.484 OA
BRANCH  14  19
ATOM     15  C   UNL     1      -0.748   2.198   2.000  0.00  0.00    +0.044 C 
ATOM     16  C   UNL     1       0.506   1.438   1.649  0.00  0.00    -0.050 A 
ATOM     17  C   UNL     1       1.685   2.122   1.418  0.00  0.00    +0.010 A 
ATOM     18  C   UNL     1       2.834   1.428   1.090  0.00  0.00    -0.008 A 
ATOM     19  C   UNL     1       2.803   0.044   0.993  0.00  0.00    +0.127 A 
ATOM     20  C   UNL     1       1.618  -0.639   1.225  0.00  0.00    -0.008 A 
ATOM     21  C   UNL     1       0.472   0.059   1.553  0.00  0.00    +0.010 A 
ATOM     22  C   UNL     1       1.581  -2.142   1.120  0.00  0.00    +0.047 C 
ATOM     23  C   UNL     1       4.119   2.173   0.838  0.00  0.00    +0.047 C 
ENDBRANCH  14  19
ENDBRANCH  13  14
ENDBRANCH   1  13
TORSDOF 4
