REMARK  Name = ZINC06029048
REMARK  8 active torsions:
REMARK  status: ('A' for Active; 'I' for Inactive)
REMARK    1  A    between atoms: C_1  and  C_2
REMARK    2  A    between atoms: C_5  and  C_24
REMARK    3  A    between atoms: C_6  and  O_8
REMARK    4  A    between atoms: O_8  and  C_9
REMARK    5  A    between atoms: C_9  and  C_10
REMARK    6  A    between atoms: N_12  and  N_13
REMARK    7  A    between atoms: C_14  and  C_15
REMARK    8  A    between atoms: C_20  and  O_21
REMARK                            x       y       z     vdW  Elec       q    Type
REMARK                         _______ _______ _______ _____ _____    ______ ____
ROOT
ATOM      1  C   UNL     1       3.609   5.889   0.000  0.00  0.00    +0.270 C 
ATOM      2  O   UNL     1       4.582   5.165  -0.013  0.00  0.00    -0.270 OA
ATOM      3  N   UNL     1       3.766   7.228   0.006  0.00  0.00    -0.204 N 
ATOM      4  H   UNL     1       2.988   7.807   0.016  0.00  0.00    +0.177 HD
ENDROOT
BRANCH   3   5
ATOM      5  N   UNL     1       5.052   7.783  -0.003  0.00  0.00    -0.188 NA
ATOM      6  C   UNL     1       5.203   9.072   0.003  0.00  0.00    +0.142 C 
BRANCH   6   7
ATOM      7  C   UNL     1       6.556   9.656  -0.007  0.00  0.00    +0.039 A 
ATOM      8  C   UNL     1       6.723  11.043  -0.001  0.00  0.00    +0.033 A 
ATOM      9  C   UNL     1       7.992  11.583  -0.009  0.00  0.00    +0.043 A 
ATOM     10  C   UNL     1       9.103  10.756  -0.023  0.00  0.00    +0.043 A 
ATOM     11  C   UNL     1       8.951   9.381  -0.029  0.00  0.00    +0.084 A 
ATOM     12  C   UNL     1       7.682   8.822  -0.015  0.00  0.00    +0.144 A 
ATOM     13 CL   UNL     1      10.351   8.354  -0.046  0.00  0.00    -0.080 Cl
ATOM     14 CL   UNL     1       8.198  13.307  -0.002  0.00  0.00    -0.083 Cl
BRANCH  12  15
ATOM     15  O   UNL     1       7.532   7.472  -0.016  0.00  0.00    -0.505 OA
ATOM     16  H   UNL     1       7.482   7.082  -0.900  0.00  0.00    +0.292 HD
ENDBRANCH  12  15
ENDBRANCH   6   7
ENDBRANCH   3   5
BRANCH   1  17
ATOM     17  C   UNL     1       2.226   5.292   0.010  0.00  0.00    +0.326 C 
BRANCH  17  18
ATOM     18  O   UNL     1       2.322   3.866   0.001  0.00  0.00    -0.482 OA
BRANCH  18  24
ATOM     19  C   UNL     1      -2.559   3.865   0.047  0.00  0.00    +0.044 C 
ATOM     20  C   UNL     1      -1.242   3.133   0.031  0.00  0.00    -0.047 A 
ATOM     21  C   UNL     1      -1.219   1.750   0.017  0.00  0.00    +0.004 A 
ATOM     22  C   UNL     1      -0.013   1.076   0.008  0.00  0.00    +0.007 A 
ATOM     23  C   UNL     1       1.175   1.782   0.000  0.00  0.00    -0.009 A 
ATOM     24  C   UNL     1       1.155   3.169   0.008  0.00  0.00    +0.124 A 
ATOM     25  C   UNL     1      -0.057   3.844   0.023  0.00  0.00    +0.049 A 
ATOM     26  C   UNL     1       2.490   1.047  -0.017  0.00  0.00    +0.047 C 
ENDBRANCH  18  24
ENDBRANCH  17  18
ENDBRANCH   1  17
TORSDOF 6
