REMARK  Name = ZINC15444075
REMARK  4 active torsions:
REMARK  status: ('A' for Active; 'I' for Inactive)
REMARK    1  A    between atoms: C_6  and  C_7
REMARK    2  A    between atoms: C_7  and  N_8
REMARK    3  A    between atoms: N_8  and  S_9
REMARK    4  A    between atoms: S_9  and  C_12
REMARK                            x       y       z     vdW  Elec       q    Type
REMARK                         _______ _______ _______ _____ _____    ______ ____
ROOT
ATOM      1  S   UNL     1      -2.045  -3.445   0.002  0.00  0.00    +0.083 S 
ATOM      2  O   UNL     1      -1.938  -4.112  -1.248  0.00  0.00    -0.151 OA
ATOM      3  O   UNL     1      -1.915  -4.126   1.243  0.00  0.00    -0.151 OA
ENDROOT
BRANCH   1   4
ATOM      4  C   UNL     1      -0.830  -2.169  -0.003  0.00  0.00    +0.235 A 
ATOM      5  N   UNL     1      -1.013  -0.875   0.007  0.00  0.00    -0.201 NA
ATOM      6  C   UNL     1       0.002  -0.004   0.002  0.00  0.00    +0.175 A 
ATOM      7  C   UNL     1       1.289  -0.597  -0.013  0.00  0.00    +0.096 A 
ATOM      8  S   UNL     1       0.900  -2.327  -0.020  0.00  0.00    -0.043 S 
ATOM      9  C   UNL     1       2.428   0.168  -0.020  0.00  0.00    +0.150 A 
ATOM     10  N   UNL     1       2.299   1.491  -0.012  0.00  0.00    -0.205 NA
ATOM     11  C   UNL     1       1.096   2.040   0.003  0.00  0.00    +0.226 A 
ATOM     12  N   UNL     1      -0.016   1.346   0.009  0.00  0.00    -0.197 NA
ATOM     13 CL   UNL     1       0.983   3.772   0.012  0.00  0.00    -0.041 Cl
ATOM     14 CL   UNL     1       3.997  -0.573  -0.039  0.00  0.00    -0.061 Cl
ENDBRANCH   1   4
BRANCH   1  15
ATOM     15  N   UNL     1      -3.529  -2.709   0.020  0.00  0.00    -0.184 NA
ATOM     16  H   UNL     1      -4.114  -2.816   0.786  0.00  0.00    +0.148 HD
BRANCH  15  17
ATOM     17  C   UNL     1      -3.957  -1.897  -1.121  0.00  0.00    +0.141 C 
BRANCH  17  23
ATOM     18  C   UNL     1      -6.324  -2.531  -1.631  0.00  0.00    +0.006 A 
ATOM     19  C   UNL     1      -7.686  -2.309  -1.546  0.00  0.00    +0.020 A 
ATOM     20  C   UNL     1      -8.165  -1.200  -0.873  0.00  0.00    +0.041 A 
ATOM     21  C   UNL     1      -7.281  -0.316  -0.281  0.00  0.00    +0.020 A 
ATOM     22  C   UNL     1      -5.919  -0.542  -0.361  0.00  0.00    +0.006 A 
ATOM     23  C   UNL     1      -5.441  -1.651  -1.034  0.00  0.00    -0.032 A 
ATOM     24 CL   UNL     1      -9.874  -0.917  -0.772  0.00  0.00    -0.084 Cl
ENDBRANCH  17  23
ENDBRANCH  15  17
ENDBRANCH   1  15
TORSDOF 4
