REMARK  Name = ZINC14040769
REMARK  12 active torsions:
REMARK  status: ('A' for Active; 'I' for Inactive)
REMARK    1  A    between atoms: C_4  and  O_7
REMARK    2  A    between atoms: O_7  and  C_8
REMARK    3  A    between atoms: C_8  and  C_9
REMARK    4  A    between atoms: C_9  and  O_10
REMARK    5  A    between atoms: O_10  and  C_11
REMARK    6  A    between atoms: C_16  and  C_17
REMARK    7  A    between atoms: N_19  and  C_20
REMARK    8  A    between atoms: C_20  and  N_22
REMARK    9  A    between atoms: N_22  and  N_23
REMARK   10  A    between atoms: C_24  and  C_26
REMARK   11  A    between atoms: C_26  and  O_27
REMARK   12  A    between atoms: O_27  and  C_28
REMARK                            x       y       z     vdW  Elec       q    Type
REMARK                         _______ _______ _______ _____ _____    ______ ____
ROOT
ATOM      1  C   UNL     1      -1.187   1.624   0.017  0.00  0.00    +0.253 C 
ATOM      2  O   UNL     1      -1.204   2.839   0.023  0.00  0.00    -0.270 OA
ATOM      3  N   UNL     1      -0.011   0.966   0.007  0.00  0.00    -0.263 N 
ATOM      4  H   UNL     1       0.002  -0.004   0.002  0.00  0.00    +0.157 HD
ENDROOT
BRANCH   1  10
ATOM      5  C   UNL     1      -3.680   1.549   0.028  0.00  0.00    +0.133 A 
ATOM      6  C   UNL     1      -4.865   0.829   0.030  0.00  0.00    +0.046 A 
ATOM      7  C   UNL     1      -4.837  -0.551   0.022  0.00  0.00    +0.004 A 
ATOM      8  C   UNL     1      -3.627  -1.227   0.012  0.00  0.00    +0.001 A 
ATOM      9  C   UNL     1      -2.440  -0.528   0.005  0.00  0.00    +0.017 A 
ATOM     10  C   UNL     1      -2.454   0.869   0.018  0.00  0.00    +0.079 A 
BRANCH   5  11
ATOM     11  O   UNL     1      -3.707   2.906   0.035  0.00  0.00    -0.488 OA
BRANCH  11  12
ATOM     12  C   UNL     1      -4.992   3.529   0.044  0.00  0.00    +0.270 C 
BRANCH  12  13
ATOM     13  C   UNL     1      -4.822   5.050   0.051  0.00  0.00    +0.270 C 
BRANCH  13  14
ATOM     14  O   UNL     1      -4.209   5.466  -1.171  0.00  0.00    -0.489 OA
BRANCH  14  18
ATOM     15  C   UNL     1      -3.528   9.507  -1.643  0.00  0.00    +0.000 A 
ATOM     16  C   UNL     1      -3.166   8.624  -2.644  0.00  0.00    +0.004 A 
ATOM     17  C   UNL     1      -3.393   7.271  -2.488  0.00  0.00    +0.045 A 
ATOM     18  C   UNL     1      -3.985   6.797  -1.326  0.00  0.00    +0.121 A 
ATOM     19  C   UNL     1      -4.352   7.685  -0.326  0.00  0.00    +0.045 A 
ATOM     20  C   UNL     1      -4.117   9.037  -0.484  0.00  0.00    +0.004 A 
ENDBRANCH  14  18
ENDBRANCH  13  14
ENDBRANCH  12  13
ENDBRANCH  11  12
ENDBRANCH   5  11
ENDBRANCH   1  10
BRANCH   3  21
ATOM     21  C   UNL     1       1.147   1.655   0.000  0.00  0.00    +0.153 C 
ATOM     22  S   UNL     1       1.124   3.367   0.009  0.00  0.00    -0.017 S 
BRANCH  21  23
ATOM     23  N   UNL     1       2.323   0.998  -0.015  0.00  0.00    -0.245 N 
ATOM     24  H   UNL     1       3.156   1.494  -0.020  0.00  0.00    +0.172 HD
BRANCH  23  25
ATOM     25  N   UNL     1       2.342  -0.403  -0.022  0.00  0.00    -0.232 N 
ATOM     26  C   UNL     1       3.518  -1.061  -0.037  0.00  0.00    +0.267 C 
ATOM     27  O   UNL     1       4.560  -0.441  -0.044  0.00  0.00    -0.271 OA
ATOM     28  H   UNL     1       1.509  -0.900  -0.017  0.00  0.00    +0.173 HD
BRANCH  26  29
ATOM     29  C   UNL     1       3.539  -2.568  -0.045  0.00  0.00    +0.326 C 
BRANCH  29  30
ATOM     30  O   UNL     1       4.892  -3.026  -0.061  0.00  0.00    -0.482 OA
BRANCH  30  31
ATOM     31  C   UNL     1       5.088  -4.370  -0.070  0.00  0.00    +0.129 A 
ATOM     32  C   UNL     1       4.019  -5.221  -0.064  0.00  0.00    +0.046 A 
ATOM     33  C   UNL     1       4.204  -6.601  -0.073  0.00  0.00    +0.004 A 
ATOM     34  C   UNL     1       5.453  -7.143  -0.088  0.00  0.00    +0.009 A 
ATOM     35  C   UNL     1       6.578  -6.301  -0.094  0.00  0.00    -0.014 A 
ATOM     36  C   UNL     1       6.396  -4.896  -0.091  0.00  0.00    +0.024 A 
ATOM     37  C   UNL     1       7.521  -4.055  -0.092  0.00  0.00    +0.012 A 
ATOM     38  C   UNL     1       8.768  -4.599  -0.107  0.00  0.00    +0.001 A 
ATOM     39  C   UNL     1       8.948  -5.981  -0.115  0.00  0.00    +0.001 A 
ATOM     40  C   UNL     1       7.882  -6.827  -0.110  0.00  0.00    +0.008 A 
ENDBRANCH  30  31
ENDBRANCH  29  30
ENDBRANCH  26  29
ENDBRANCH  23  25
ENDBRANCH  21  23
ENDBRANCH   3  21
TORSDOF 12
