REMARK  Name = ZINC25039134
REMARK  6 active torsions:
REMARK  status: ('A' for Active; 'I' for Inactive)
REMARK    1  A    between atoms: C_7  and  C_11
REMARK    2  A    between atoms: C_11  and  C_12
REMARK    3  A    between atoms: C_12  and  O_14
REMARK    4  A    between atoms: O_14  and  C_15
REMARK    5  A    between atoms: C_15  and  C_16
REMARK    6  A    between atoms: N_18  and  C_19
REMARK                            x       y       z     vdW  Elec       q    Type
REMARK                         _______ _______ _______ _____ _____    ______ ____
ROOT
ATOM      1  C   UNL     1       3.550   2.051  -0.023  0.00  0.00    +0.255 C 
ATOM      2  O   UNL     1       3.374   3.251  -0.023  0.00  0.00    -0.272 OA
ATOM      3  N   UNL     1       4.802   1.553  -0.035  0.00  0.00    -0.283 N 
ATOM      4  H   UNL     1       4.963   0.467   0.042  0.00  0.00    +0.155 HD
ENDROOT
BRANCH   3   5
ATOM      5  C   UNL     1       5.899   2.418  -0.147  0.00  0.00    +0.037 A 
ATOM      6  C   UNL     1       7.027   2.020  -0.852  0.00  0.00    +0.027 A 
ATOM      7  C   UNL     1       8.108   2.874  -0.968  0.00  0.00    +0.051 A 
ATOM      8  C   UNL     1       8.073   4.122  -0.371  0.00  0.00    +0.167 A 
ATOM      9  C   UNL     1       6.943   4.522   0.342  0.00  0.00    +0.169 A 
ATOM     10  C   UNL     1       5.859   3.670   0.452  0.00  0.00    +0.073 A 
ATOM     11  O   UNL     1       7.164   5.785   0.827  0.00  0.00    -0.447 OA
ATOM     12  C   UNL     1       8.207   6.298  -0.013  0.00  0.00    +0.254 C 
ATOM     13  O   UNL     1       8.992   5.139  -0.327  0.00  0.00    -0.448 OA
ATOM     14  C   UNL     1       9.043   7.352   0.722  0.00  0.00    +0.093 C 
ATOM     15  C   UNL     1       9.426   8.366  -0.387  0.00  0.00    +0.008 C 
ATOM     16  C   UNL     1       8.152   8.411  -1.268  0.00  0.00    +0.008 C 
ATOM     17  C   UNL     1       7.643   6.952  -1.274  0.00  0.00    +0.093 C 
ENDBRANCH   3   5
BRANCH   1  18
ATOM     18  C   UNL     1       2.367   1.117  -0.008  0.00  0.00    +0.328 C 
BRANCH  18  19
ATOM     19  O   UNL     1       1.139   1.891   0.004  0.00  0.00    -0.455 OA
BRANCH  19  20
ATOM     20  C   UNL     1      -0.014   1.204   0.018  0.00  0.00    +0.312 C 
ATOM     21  O   UNL     1       0.002  -0.005   0.021  0.00  0.00    -0.250 OA
BRANCH  20  22
ATOM     22  C   UNL     1      -1.329   1.939   0.025  0.00  0.00    +0.157 C 
BRANCH  22  29
ATOM     23  C   UNL     1      -3.520  -0.396   3.449  0.00  0.00    +0.001 A 
ATOM     24  C   UNL     1      -4.529  -1.225   2.979  0.00  0.00    +0.002 A 
ATOM     25  C   UNL     1      -4.803  -1.303   1.631  0.00  0.00    +0.026 A 
ATOM     26  C   UNL     1      -4.062  -0.544   0.730  0.00  0.00    +0.047 A 
ATOM     27  C   UNL     1      -3.041   0.294   1.212  0.00  0.00    +0.003 A 
ATOM     28  C   UNL     1      -2.780   0.358   2.582  0.00  0.00    +0.010 A 
ATOM     29  C   UNL     1      -2.461   0.944   0.034  0.00  0.00    -0.012 A 
ATOM     30  C   UNL     1      -3.134   0.490  -1.035  0.00  0.00    +0.087 A 
ATOM     31  N   UNL     1      -4.090  -0.405  -0.639  0.00  0.00    -0.360 N 
ATOM     32  H   UNL     1      -4.817  -0.976  -1.236  0.00  0.00    +0.165 HD
ENDBRANCH  22  29
ENDBRANCH  20  22
ENDBRANCH  19  20
ENDBRANCH  18  19
ENDBRANCH   1  18
TORSDOF 6
