REMARK  Name = ZINC61698001
REMARK  6 active torsions:
REMARK  status: ('A' for Active; 'I' for Inactive)
REMARK    1  A    between atoms: C_1  and  C_2
REMARK    2  A    between atoms: C_2  and  N_3
REMARK    3  A    between atoms: N_3  and  C_4
REMARK    4  A    between atoms: C_4  and  C_6
REMARK    5  A    between atoms: C_4  and  C_7
REMARK    6  A    between atoms: C_10  and  N_14
REMARK                            x       y       z     vdW  Elec       q    Type
REMARK                         _______ _______ _______ _____ _____    ______ ____
ROOT
ATOM      1  C   UNL     1       1.352  -2.461   2.463  0.00  0.00    -0.060 A 
ATOM      2  C   UNL     1       2.447  -1.809   3.001  0.00  0.00    +0.004 A 
ATOM      3  C   UNL     1       3.018  -2.265   4.173  0.00  0.00    +0.024 A 
ATOM      4  C   UNL     1       2.490  -3.379   4.813  0.00  0.00    +0.044 A 
ATOM      5  C   UNL     1       1.389  -4.032   4.271  0.00  0.00    +0.039 A 
ATOM      6  C   UNL     1       0.820  -3.567   3.100  0.00  0.00    +0.019 A 
ATOM      7 BR   UNL     1       0.666  -5.549   5.137  0.00  0.00    -0.048 Br
ENDROOT
BRANCH   4   8
ATOM      8  N   UNL     1       3.065  -3.843   5.999  0.00  0.00    -0.321 N 
ATOM      9  C   UNL     1       4.159  -4.842   6.019  0.00  0.00    +0.133 C 
ATOM     10  C   UNL     1       3.852  -5.959   7.016  0.00  0.00    +0.179 C 
ATOM     11  O   UNL     1       3.366  -5.442   8.268  0.00  0.00    -0.373 OA
ATOM     12  C   UNL     1       2.203  -4.664   8.082  0.00  0.00    +0.139 C 
ATOM     13  C   UNL     1       2.640  -3.379   7.312  0.00  0.00    +0.102 C 
ATOM     14  C   UNL     1       1.400  -2.497   7.383  0.00  0.00    +0.025 C 
ATOM     15  C   UNL     1       0.704  -2.880   8.714  0.00  0.00    +0.004 C 
ATOM     16  C   UNL     1       1.521  -4.069   9.312  0.00  0.00    +0.033 C 
ENDBRANCH   4   8
BRANCH   1  17
ATOM     17  C   UNL     1       0.733  -1.960   1.184  0.00  0.00    -0.044 C 
ATOM     18  C   UNL     1       1.555  -2.452  -0.008  0.00  0.00    -0.009 C 
BRANCH  17  19
ATOM     19  N   UNL     1       0.713  -0.491   1.192  0.00  0.00    +0.383 N 
ATOM     20  H   UNL     1       1.659  -0.141   1.185  0.00  0.00    -0.085 HD
ATOM     21  H   UNL     1       0.240  -0.165   2.022  0.00  0.00    -0.085 HD
BRANCH  19  23
ATOM     22  C   UNL     1      -0.019   1.526   0.010  0.00  0.00    -0.017 C 
ATOM     23  C   UNL     1       0.002  -0.004   0.002  0.00  0.00    -0.085 C 
ENDBRANCH  19  23
ENDBRANCH  17  19
ENDBRANCH   1  17
TORSDOF 4
