REMARK  Name = ZINC38573664
REMARK  5 active torsions:
REMARK  status: ('A' for Active; 'I' for Inactive)
REMARK    1  A    between atoms: C_4  and  C_7
REMARK    2  A    between atoms: C_7  and  C_8
REMARK    3  A    between atoms: C_8  and  C_10
REMARK    4  A    between atoms: C_8  and  N_27
REMARK    5  A    between atoms: C_28  and  C_30
REMARK                            x       y       z     vdW  Elec       q    Type
REMARK                         _______ _______ _______ _____ _____    ______ ____
ROOT
ATOM      1  C   UNL     1       4.170  -0.964   1.401  0.00  0.00    +0.164 C 
ENDROOT
BRANCH   1   2
ATOM      2  C   UNL     1       5.351  -1.899   1.346  0.00  0.00    +0.236 C 
ATOM      3  O   UNL     1       6.398  -1.585   1.871  0.00  0.00    -0.274 OA
ATOM      4  N   UNL     1       5.243  -3.085   0.714  0.00  0.00    -0.300 N 
ATOM      5  C   UNL     1       4.022  -3.430  -0.027  0.00  0.00    +0.106 C 
ATOM      6  C   UNL     1       3.502  -4.778   0.482  0.00  0.00    +0.009 C 
ATOM      7  C   UNL     1       4.616  -5.821   0.382  0.00  0.00    -0.037 C 
ATOM      8  C   UNL     1       5.800  -5.399   1.251  0.00  0.00    +0.009 C 
ATOM      9  C   UNL     1       6.347  -4.054   0.747  0.00  0.00    +0.106 C 
ATOM     10  C   UNL     1       4.091  -7.179   0.849  0.00  0.00    +0.140 C 
ATOM     11  C   UNL     1       3.010  -7.571  -0.155  0.00  0.00    +0.042 C 
ATOM     12  N   UNL     1       1.952  -7.779   0.526  0.00  0.00    -0.243 NA
ATOM     13  C   UNL     1       2.138  -7.493   1.839  0.00  0.00    +0.216 C 
ATOM     14  N   UNL     1       3.365  -7.108   2.118  0.00  0.00    -0.264 NA
ATOM     15  C   UNL     1       3.269  -7.539  -1.640  0.00  0.00    +0.034 C 
ATOM     16  C   UNL     1       3.924  -6.175  -1.927  0.00  0.00    -0.076 C 
ATOM     17  N   UNL     1       5.049  -5.947  -1.017  0.00  0.00    +0.385 N 
ATOM     18  H   UNL     1       5.525  -5.100  -1.290  0.00  0.00    -0.085 HD
ATOM     19  H   UNL     1       5.692  -6.721  -1.092  0.00  0.00    -0.085 HD
ENDBRANCH   1   2
BRANCH   1  20
ATOM     20  N   UNL     1       4.316  -0.061   2.546  0.00  0.00    -0.300 N 
ATOM     21  C   UNL     1       3.224   0.498   3.106  0.00  0.00    +0.245 C 
ATOM     22  O   UNL     1       2.120   0.252   2.661  0.00  0.00    -0.270 OA
ATOM     23  H   UNL     1       5.197   0.134   2.901  0.00  0.00    +0.150 HD
BRANCH  21  24
ATOM     24  C   UNL     1       3.371   1.409   4.260  0.00  0.00    +0.037 A 
ATOM     25  C   UNL     1       4.638   1.697   4.769  0.00  0.00    +0.014 A 
ATOM     26  C   UNL     1       4.768   2.547   5.847  0.00  0.00    +0.016 A 
ATOM     27  C   UNL     1       3.645   3.116   6.424  0.00  0.00    +0.018 A 
ATOM     28  C   UNL     1       2.385   2.834   5.923  0.00  0.00    +0.016 A 
ATOM     29  C   UNL     1       2.242   1.989   4.842  0.00  0.00    +0.014 A 
ATOM     30 BR   UNL     1       3.832   4.281   7.901  0.00  0.00    -0.050 Br
ENDBRANCH  21  24
ENDBRANCH   1  20
BRANCH   1  31
ATOM     31  C   UNL     1       4.108  -0.146   0.110  0.00  0.00    +0.067 C 
BRANCH  31  35
ATOM     32  C   UNL     1       0.552   2.221   0.093  0.00  0.00    +0.000 A 
ATOM     33  C   UNL     1       1.718   2.730   0.634  0.00  0.00    +0.000 A 
ATOM     34  C   UNL     1       2.869   1.964   0.640  0.00  0.00    +0.004 A 
ATOM     35  C   UNL     1       2.853   0.689   0.105  0.00  0.00    -0.045 A 
ATOM     36  C   UNL     1       1.687   0.180  -0.435  0.00  0.00    +0.004 A 
ATOM     37  C   UNL     1       0.537   0.947  -0.442  0.00  0.00    +0.000 A 
ENDBRANCH  31  35
ENDBRANCH   1  31
TORSDOF 5
