REMARK  Name = ZINC63329124
REMARK  8 active torsions:
REMARK  status: ('A' for Active; 'I' for Inactive)
REMARK    1  A    between atoms: C_1  and  C_2
REMARK    2  A    between atoms: C_7  and  C_30
REMARK    3  A    between atoms: C_9  and  C_12
REMARK    4  A    between atoms: C_12  and  C_13
REMARK    5  A    between atoms: C_13  and  N_14
REMARK    6  A    between atoms: C_15  and  C_17
REMARK    7  A    between atoms: C_21  and  O_28
REMARK    8  A    between atoms: O_28  and  C_29
REMARK                            x       y       z     vdW  Elec       q    Type
REMARK                         _______ _______ _______ _____ _____    ______ ____
ROOT
ATOM      1  N   UNL     1       0.039  -1.037   5.336  0.00  0.00    -0.311 N 
ATOM      2  C   UNL     1       0.025   0.229   5.798  0.00  0.00    +0.251 C 
ATOM      3  O   UNL     1       0.010   1.161   5.017  0.00  0.00    -0.270 OA
ATOM      4  H   UNL     1       0.051  -1.780   5.959  0.00  0.00    +0.149 HD
ENDROOT
BRANCH   2   5
ATOM      5  C   UNL     1       0.028   0.484   7.248  0.00  0.00    +0.122 A 
ATOM      6  C   UNL     1       0.007   1.777   7.754  0.00  0.00    +0.032 A 
ATOM      7  C   UNL     1       0.043   1.944   9.162  0.00  0.00    +0.022 A 
ATOM      8  C   UNL     1      -0.176   3.205   9.734  0.00  0.00    +0.057 A 
ATOM      9  C   UNL     1      -0.179   3.341  11.107  0.00  0.00    +0.121 A 
ATOM     10  C   UNL     1       0.042   2.234  11.924  0.00  0.00    +0.049 A 
ATOM     11  C   UNL     1       0.278   0.993  11.373  0.00  0.00    +0.050 A 
ATOM     12  C   UNL     1       0.293   0.835   9.993  0.00  0.00    +0.139 A 
ATOM     13  O   UNL     1       0.567  -0.374   9.447  0.00  0.00    -0.422 OA
ATOM     14  C   UNL     1       0.045  -0.624   8.221  0.00  0.00    +0.350 A 
ATOM     15  O   UNL     1      -0.389  -1.722   7.931  0.00  0.00    -0.244 OA
BRANCH   9  16
ATOM     16  O   UNL     1      -0.399   4.561  11.666  0.00  0.00    -0.495 OA
ATOM     17  C   UNL     1      -0.389   4.632  13.093  0.00  0.00    +0.277 C 
ENDBRANCH   9  16
ENDBRANCH   2   5
BRANCH   1  18
ATOM     18  C   UNL     1       0.037  -1.291   3.893  0.00  0.00    +0.109 C 
BRANCH  18  19
ATOM     19  C   UNL     1       0.055  -2.799   3.641  0.00  0.00    +0.052 C 
BRANCH  19  27
ATOM     20  C   UNL     1      -0.018   1.503   0.010  0.00  0.00    +0.044 C 
ATOM     21  C   UNL     1       0.002  -0.004   0.002  0.00  0.00    -0.050 A 
ATOM     22  C   UNL     1       0.005  -0.680  -1.226  0.00  0.00    +0.005 A 
ATOM     23  C   UNL     1       0.023  -2.026  -1.317  0.00  0.00    +0.026 A 
ATOM     24  C   UNL     1       0.039  -2.826  -0.141  0.00  0.00    +0.043 A 
ATOM     25  N   UNL     1       0.057  -4.126   0.030  0.00  0.00    -0.378 N 
ATOM     26  C   UNL     1       0.067  -4.408   1.470  0.00  0.00    +0.103 C 
ATOM     27  C   UNL     1       0.052  -3.060   2.156  0.00  0.00    -0.037 C 
ATOM     28  C   UNL     1       0.036  -2.137   1.168  0.00  0.00    -0.001 A 
ATOM     29  C   UNL     1       0.022  -0.669   1.180  0.00  0.00    +0.013 A 
ATOM     30  C   UNL     1       1.333  -5.180   1.847  0.00  0.00    +0.035 C 
ATOM     31  H   UNL     1       0.062  -4.790  -0.677  0.00  0.00    +0.160 HD
ENDBRANCH  19  27
ENDBRANCH  18  19
ENDBRANCH   1  18
TORSDOF 5
