REMARK  Name = ZINC28051865
REMARK  7 active torsions:
REMARK  status: ('A' for Active; 'I' for Inactive)
REMARK    1  A    between atoms: C_1  and  C_2
REMARK    2  A    between atoms: C_2  and  O_3
REMARK    3  A    between atoms: O_3  and  C_4
REMARK    4  A    between atoms: C_7  and  C_10
REMARK    5  A    between atoms: C_13  and  C_33
REMARK    6  A    between atoms: C_23  and  C_26
REMARK    7  A    between atoms: C_29  and  C_32
REMARK                            x       y       z     vdW  Elec       q    Type
REMARK                         _______ _______ _______ _____ _____    ______ ____
ROOT
ATOM      1  C   UNL     1       2.490   1.045  -0.016  0.00  0.00    +0.091 C 
ATOM      2  C   UNL     1       3.282   1.411   1.198  0.00  0.00    +0.049 A 
ATOM      3  C   UNL     1       3.147   1.077   2.543  0.00  0.00    +0.087 A 
ATOM      4  N   UNL     1       4.126   1.683   3.168  0.00  0.00    -0.081 NA
ATOM      5  O   UNL     1       4.822   2.326   2.406  0.00  0.00    -0.339 OA
ATOM      6  C   UNL     1       4.386   2.223   1.155  0.00  0.00    +0.226 A 
ATOM      7  N   UNL     1       4.835   2.755  -0.036  0.00  0.00    -0.286 N 
ATOM      8  C   UNL     1       4.348   2.236  -1.213  0.00  0.00    +0.019 C 
ATOM      9  C   UNL     1       3.268   1.427  -1.259  0.00  0.00    +0.024 C 
ATOM     10  C   UNL     1       2.814   0.895  -2.479  0.00  0.00    +0.162 C 
ATOM     11  O   UNL     1       1.829   0.184  -2.487  0.00  0.00    -0.292 OA
ATOM     12  C   UNL     1       3.520   1.185  -3.774  0.00  0.00    +0.088 C 
ATOM     13  C   UNL     1       5.000   1.458  -3.483  0.00  0.00    +0.032 C 
ATOM     14  C   UNL     1       5.087   2.609  -2.479  0.00  0.00    +0.059 C 
ATOM     15  C   UNL     1       2.090   0.196   3.156  0.00  0.00    +0.069 C 
ATOM     16  H   UNL     1       5.566   3.576  -0.031  0.00  0.00    +0.155 HD
ENDROOT
BRANCH  13  17
ATOM     17  C   UNL     1       5.706   1.841  -4.758  0.00  0.00    -0.043 A 
ATOM     18  C   UNL     1       5.294   2.952  -5.470  0.00  0.00    +0.004 A 
ATOM     19  C   UNL     1       5.945   3.306  -6.636  0.00  0.00    +0.003 A 
ATOM     20  C   UNL     1       7.002   2.543  -7.097  0.00  0.00    -0.050 A 
ATOM     21  C   UNL     1       7.411   1.429  -6.388  0.00  0.00    +0.003 A 
ATOM     22  C   UNL     1       6.763   1.078  -5.218  0.00  0.00    +0.004 A 
ATOM     23  C   UNL     1       7.707   2.926  -8.373  0.00  0.00    +0.044 C 
ENDBRANCH  13  17
BRANCH   1  27
ATOM     24  C   UNL     1      -1.237   3.137   0.031  0.00  0.00    +0.121 A 
ATOM     25  C   UNL     1      -1.218   1.750   0.017  0.00  0.00    +0.046 A 
ATOM     26  C   UNL     1      -0.013   1.076   0.008  0.00  0.00    +0.008 A 
ATOM     27  C   UNL     1       1.176   1.783   0.000  0.00  0.00    -0.035 A 
ATOM     28  C   UNL     1       1.160   3.165   0.008  0.00  0.00    +0.008 A 
ATOM     29  C   UNL     1      -0.043   3.844   0.024  0.00  0.00    +0.046 A 
BRANCH  24  30
ATOM     30  O   UNL     1      -2.422   3.802   0.045  0.00  0.00    -0.492 OA
BRANCH  30  32
ATOM     31  C   UNL     1      -4.835   3.926   0.068  0.00  0.00    +0.048 C 
ATOM     32  C   UNL     1      -3.611   3.009   0.052  0.00  0.00    +0.225 C 
ENDBRANCH  30  32
ENDBRANCH  24  30
ENDBRANCH   1  27
TORSDOF 4
