REMARK  Name = ZINC36349015
REMARK  8 active torsions:
REMARK  status: ('A' for Active; 'I' for Inactive)
REMARK    1  A    between atoms: C_1  and  C_2
REMARK    2  A    between atoms: C_2  and  C_4
REMARK    3  A    between atoms: C_2  and  S_12
REMARK    4  A    between atoms: C_4  and  C_5
REMARK    5  A    between atoms: S_12  and  C_13
REMARK    6  A    between atoms: C_14  and  C_25
REMARK    7  A    between atoms: C_15  and  N_18
REMARK    8  A    between atoms: N_18  and  C_19
REMARK                            x       y       z     vdW  Elec       q    Type
REMARK                         _______ _______ _______ _____ _____    ______ ____
ROOT
ATOM      1  C   UNL     1      -0.255  -0.256   2.809  0.00  0.00    +0.120 A 
ATOM      2  C   UNL     1       0.074  -0.568   4.182  0.00  0.00    +0.098 A 
ATOM      3  C   UNL     1      -0.726   0.100   5.112  0.00  0.00    +0.103 A 
ATOM      4  S   UNL     1      -1.759   1.008   4.155  0.00  0.00    +0.029 S 
ATOM      5  N   UNL     1      -1.231   0.594   2.626  0.00  0.00    -0.202 NA
ENDROOT
BRANCH   2   6
ATOM      6  C   UNL     1       1.143  -1.495   4.561  0.00  0.00    +0.246 C 
ATOM      7  O   UNL     1       2.274  -1.081   4.735  0.00  0.00    -0.270 OA
ATOM      8  N   UNL     1       0.874  -2.806   4.716  0.00  0.00    -0.325 N 
ATOM      9  H   UNL     1      -0.028  -3.136   4.576  0.00  0.00    +0.145 HD
ATOM     10  H   UNL     1       1.582  -3.421   4.966  0.00  0.00    +0.145 HD
ENDBRANCH   2   6
BRANCH   3  11
ATOM     11  N   UNL     1      -0.677   0.028   6.490  0.00  0.00    -0.306 N 
ATOM     12  H   UNL     1       0.031  -0.472   6.925  0.00  0.00    +0.153 HD
BRANCH  11  13
ATOM     13  C   UNL     1      -1.649   0.675   7.259  0.00  0.00    +0.050 A 
ATOM     14  C   UNL     1      -2.961   0.777   6.800  0.00  0.00    +0.026 A 
ATOM     15  C   UNL     1      -3.888   1.427   7.597  0.00  0.00    +0.021 A 
ATOM     16  C   UNL     1      -3.485   1.950   8.812  0.00  0.00    +0.111 A 
ATOM     17  N   UNL     1      -2.236   1.837   9.218  0.00  0.00    -0.261 NA
ATOM     18  C   UNL     1      -1.323   1.222   8.493  0.00  0.00    +0.134 A 
ENDBRANCH  11  13
ENDBRANCH   3  11
BRANCH   1  19
ATOM     19  S   UNL     1       0.617  -0.975   1.457  0.00  0.00    -0.101 S 
BRANCH  19  21
ATOM     20  C   UNL     1       0.083   1.254  -0.035  0.00  0.00    +0.020 C 
ATOM     21  C   UNL     1      -0.173  -0.254  -0.008  0.00  0.00    +0.054 C 
BRANCH  21  22
ATOM     22  C   UNL     1       0.411  -0.894  -1.269  0.00  0.00    +0.049 C 
BRANCH  22  23
ATOM     23  C   UNL     1       0.053  -2.357  -1.302  0.00  0.00    -0.046 A 
ATOM     24  C   UNL     1       0.891  -3.287  -0.715  0.00  0.00    +0.005 A 
ATOM     25  C   UNL     1       0.563  -4.630  -0.745  0.00  0.00    +0.020 A 
ATOM     26  C   UNL     1      -0.604  -5.043  -1.363  0.00  0.00    +0.041 A 
ATOM     27  C   UNL     1      -1.442  -4.112  -1.950  0.00  0.00    +0.020 A 
ATOM     28  C   UNL     1      -1.116  -2.769  -1.915  0.00  0.00    +0.005 A 
ATOM     29 CL   UNL     1      -1.016  -6.729  -1.402  0.00  0.00    -0.084 Cl
ENDBRANCH  22  23
ENDBRANCH  21  22
ENDBRANCH  19  21
ENDBRANCH   1  19
TORSDOF 7
