REMARK  Name = ZINC08144411
REMARK  9 active torsions:
REMARK  status: ('A' for Active; 'I' for Inactive)
REMARK    1  A    between atoms: C_1  and  C_2
REMARK    2  A    between atoms: C_4  and  C_26
REMARK    3  A    between atoms: C_8  and  N_25
REMARK    4  A    between atoms: C_9  and  C_11
REMARK    5  A    between atoms: N_13  and  N_14
REMARK    6  A    between atoms: C_15  and  C_17
REMARK    7  A    between atoms: C_17  and  C_18
REMARK    8  A    between atoms: C_18  and  C_19
REMARK    9  A    between atoms: C_19  and  C_20
REMARK                            x       y       z     vdW  Elec       q    Type
REMARK                         _______ _______ _______ _____ _____    ______ ____
ROOT
ATOM      1  C   UNL     1      -2.168   4.673   1.270  0.00  0.00    +0.269 C 
ATOM      2  O   UNL     1      -1.198   5.404   1.367  0.00  0.00    -0.268 OA
ATOM      3  N   UNL     1      -1.998   3.342   1.140  0.00  0.00    -0.230 N 
ATOM      4  H   UNL     1      -2.769   2.760   1.062  0.00  0.00    +0.173 HD
ENDROOT
BRANCH   1  13
ATOM      5  C   UNL     1      -5.045   9.383   1.674  0.00  0.00    +0.044 C 
ATOM      6  C   UNL     1      -5.880   8.136   1.527  0.00  0.00    -0.037 A 
ATOM      7  C   UNL     1      -7.252   8.214   1.502  0.00  0.00    +0.027 A 
ATOM      8  C   UNL     1      -8.018   7.066   1.368  0.00  0.00    +0.040 A 
ATOM      9  N   UNL     1      -7.439   5.886   1.263  0.00  0.00    -0.245 NA
ATOM     10  C   UNL     1      -6.130   5.759   1.282  0.00  0.00    +0.111 A 
ATOM     11  C   UNL     1      -5.262   6.866   1.414  0.00  0.00    +0.032 A 
ATOM     12  C   UNL     1      -3.844   6.542   1.422  0.00  0.00    +0.054 A 
ATOM     13  C   UNL     1      -3.474   5.222   1.292  0.00  0.00    +0.098 A 
ATOM     14  S   UNL     1      -5.033   4.367   1.168  0.00  0.00    -0.062 S 
ATOM     15  C   UNL     1      -9.521   7.168   1.341  0.00  0.00    +0.065 C 
BRANCH  12  16
ATOM     16  N   UNL     1      -2.886   7.539   1.553  0.00  0.00    -0.356 N 
ATOM     17  H   UNL     1      -2.016   7.330   1.926  0.00  0.00    +0.142 HD
ATOM     18  H   UNL     1      -3.088   8.445   1.270  0.00  0.00    +0.142 HD
ENDBRANCH  12  16
ENDBRANCH   1  13
BRANCH   3  19
ATOM     19  N   UNL     1      -0.706   2.800   1.117  0.00  0.00    -0.234 N 
ATOM     20  C   UNL     1      -0.536   1.469   0.987  0.00  0.00    +0.229 C 
ATOM     21  O   UNL     1      -1.501   0.741   0.895  0.00  0.00    -0.274 OA
ATOM     22  H   UNL     1       0.066   3.383   1.191  0.00  0.00    +0.173 HD
BRANCH  20  23
ATOM     23  C   UNL     1       0.853   0.887   0.957  0.00  0.00    +0.097 C 
BRANCH  23  24
ATOM     24  C   UNL     1       0.766  -0.633   0.802  0.00  0.00    +0.014 C 
BRANCH  24  25
ATOM     25  C   UNL     1       2.176  -1.225   0.771  0.00  0.00    +0.043 C 
BRANCH  25  26
ATOM     26  C   UNL     1       2.090  -2.722   0.620  0.00  0.00    -0.010 A 
ATOM     27  C   UNL     1       2.057  -3.464  -0.514  0.00  0.00    +0.011 A 
ATOM     28  C   UNL     1       1.979  -4.840  -0.411  0.00  0.00    +0.008 A 
ATOM     29  C   UNL     1       1.928  -5.406   0.819  0.00  0.00    +0.045 A 
ATOM     30  S   UNL     1       1.998  -3.977   1.886  0.00  0.00    -0.102 S 
ENDBRANCH  25  26
ENDBRANCH  24  25
ENDBRANCH  23  24
ENDBRANCH  20  23
ENDBRANCH   3  19
TORSDOF 7
