REMARK  Name = ZINC21123152
REMARK  8 active torsions:
REMARK  status: ('A' for Active; 'I' for Inactive)
REMARK    1  A    between atoms: C_1  and  C_2
REMARK    2  A    between atoms: C_5  and  N_8
REMARK    3  A    between atoms: C_9  and  C_28
REMARK    4  A    between atoms: C_12  and  S_13
REMARK    5  A    between atoms: S_13  and  C_14
REMARK    6  A    between atoms: C_14  and  C_15
REMARK    7  A    between atoms: C_21  and  C_27
REMARK    8  A    between atoms: C_22  and  C_26
REMARK                            x       y       z     vdW  Elec       q    Type
REMARK                         _______ _______ _______ _____ _____    ______ ____
ROOT
ATOM      1  N   UNL     1       0.036  -4.173  -0.059  0.00  0.00    -0.270 N 
ATOM      2  C   UNL     1      -0.881  -5.021   0.523  0.00  0.00    +0.169 A 
ATOM      3  N   UNL     1      -0.452  -6.246   0.326  0.00  0.00    -0.128 NA
ATOM      4  N   UNL     1       0.653  -6.225  -0.329  0.00  0.00    -0.122 NA
ATOM      5  C   UNL     1       0.997  -4.984  -0.597  0.00  0.00    +0.197 A 
ENDROOT
BRANCH   1  10
ATOM      6  C   UNL     1      -0.150   1.497  -0.214  0.00  0.00    +0.044 C 
ATOM      7  C   UNL     1      -0.100  -0.008  -0.173  0.00  0.00    -0.050 A 
ATOM      8  C   UNL     1      -0.263  -0.736  -1.337  0.00  0.00    +0.005 A 
ATOM      9  C   UNL     1      -0.218  -2.116  -1.303  0.00  0.00    +0.026 A 
ATOM     10  C   UNL     1      -0.009  -2.772  -0.097  0.00  0.00    +0.051 A 
ATOM     11  C   UNL     1       0.153  -2.039   1.070  0.00  0.00    +0.026 A 
ATOM     12  C   UNL     1       0.113  -0.659   1.029  0.00  0.00    +0.005 A 
ENDBRANCH   1  10
BRANCH   2  13
ATOM     13  C   UNL     1      -2.115  -4.626   1.235  0.00  0.00    +0.020 A 
ATOM     14  C   UNL     1      -2.648  -3.348   1.058  0.00  0.00    +0.011 A 
ATOM     15  C   UNL     1      -3.799  -2.985   1.726  0.00  0.00    +0.001 A 
ATOM     16  C   UNL     1      -4.426  -3.885   2.570  0.00  0.00    +0.000 A 
ATOM     17  C   UNL     1      -3.903  -5.154   2.750  0.00  0.00    +0.001 A 
ATOM     18  C   UNL     1      -2.755  -5.531   2.083  0.00  0.00    +0.011 A 
ENDBRANCH   2  13
BRANCH   5  19
ATOM     19  S   UNL     1       2.431  -4.464  -1.479  0.00  0.00    -0.078 S 
BRANCH  19  20
ATOM     20  C   UNL     1       3.269  -6.015  -1.908  0.00  0.00    +0.151 C 
BRANCH  20  21
ATOM     21  C   UNL     1       4.529  -5.709  -2.676  0.00  0.00    +0.121 A 
ATOM     22  N   UNL     1       5.313  -6.731  -3.105  0.00  0.00    -0.310 N 
ATOM     23  H   UNL     1       5.051  -7.645  -2.911  0.00  0.00    +0.170 HD
ATOM     24  C   UNL     1       6.446  -6.503  -3.795  0.00  0.00    +0.260 A 
ATOM     25  O   UNL     1       7.139  -7.431  -4.173  0.00  0.00    -0.267 OA
ATOM     26  C   UNL     1       6.825  -5.150  -4.077  0.00  0.00    +0.075 A 
ATOM     27  C   UNL     1       7.983  -4.649  -4.794  0.00  0.00    -0.026 A 
ATOM     28  C   UNL     1       8.139  -3.323  -4.942  0.00  0.00    -0.008 A 
ATOM     29  S   UNL     1       6.713  -2.645  -4.114  0.00  0.00    -0.073 S 
ATOM     30  C   UNL     1       5.951  -4.160  -3.593  0.00  0.00    +0.116 A 
ATOM     31  N   UNL     1       4.844  -4.466  -2.923  0.00  0.00    -0.226 NA
ATOM     32  C   UNL     1       9.252  -2.586  -5.641  0.00  0.00    +0.052 C 
ATOM     33  C   UNL     1       8.999  -5.604  -5.364  0.00  0.00    +0.045 C 
ENDBRANCH  20  21
ENDBRANCH  19  20
ENDBRANCH   5  19
TORSDOF 5
