REMARK  Name = ZINC11694896
REMARK  8 active torsions:
REMARK  status: ('A' for Active; 'I' for Inactive)
REMARK    1  A    between atoms: C_1  and  C_2
REMARK    2  A    between atoms: C_5  and  N_9
REMARK    3  A    between atoms: C_6  and  C_8
REMARK    4  A    between atoms: C_10  and  C_12
REMARK    5  A    between atoms: C_14  and  C_32
REMARK    6  A    between atoms: C_22  and  C_24
REMARK    7  A    between atoms: C_27  and  S_30
REMARK    8  A    between atoms: S_30  and  C_31
REMARK                            x       y       z     vdW  Elec       q    Type
REMARK                         _______ _______ _______ _____ _____    ______ ____
ROOT
ATOM      1  C   UNL     1       2.417   2.991  -0.916  0.00  0.00    +0.124 C 
ATOM      2  C   UNL     1       1.799   2.018   0.095  0.00  0.00    +0.084 C 
ATOM      3  N   UNL     1       0.419   2.454   0.383  0.00  0.00    -0.310 N 
ATOM      4  C   UNL     1       0.233   3.816   0.579  0.00  0.00    +0.214 A 
ATOM      5  N   UNL     1      -0.798   4.457   1.061  0.00  0.00    -0.202 NA
ATOM      6  C   UNL     1      -0.542   5.769   1.073  0.00  0.00    +0.247 A 
ATOM      7  N   UNL     1       0.659   5.978   0.597  0.00  0.00    -0.156 NA
ATOM      8  N   UNL     1       1.185   4.729   0.267  0.00  0.00    -0.225 N 
ATOM      9  C   UNL     1       2.489   4.396  -0.306  0.00  0.00    +0.154 C 
ATOM     10  C   UNL     1       2.620   2.023   1.386  0.00  0.00    +0.028 C 
ATOM     11  H   UNL     1      -0.318   1.825   0.433  0.00  0.00    +0.149 HD
ENDROOT
BRANCH   9  12
ATOM     12  C   UNL     1       2.843   5.395  -1.377  0.00  0.00    -0.022 A 
ATOM     13  C   UNL     1       4.152   5.819  -1.520  0.00  0.00    +0.007 A 
ATOM     14  C   UNL     1       4.480   6.729  -2.505  0.00  0.00    +0.015 A 
ATOM     15  C   UNL     1       3.492   7.229  -3.345  0.00  0.00    +0.008 A 
ATOM     16  C   UNL     1       2.178   6.805  -3.195  0.00  0.00    +0.015 A 
ATOM     17  C   UNL     1       1.857   5.889  -2.212  0.00  0.00    +0.007 A 
BRANCH  15  18
ATOM     18  S   UNL     1       3.906   8.396  -4.599  0.00  0.00    -0.129 S 
ATOM     19  C   UNL     1       5.694   8.632  -4.406  0.00  0.00    +0.090 C 
ENDBRANCH  15  18
ENDBRANCH   9  12
BRANCH   1  21
ATOM     20  N   UNL     1       2.116   2.751  -3.360  0.00  0.00    -0.285 N 
ATOM     21  C   UNL     1       1.568   3.029  -2.160  0.00  0.00    +0.224 C 
ATOM     22  O   UNL     1       0.391   3.309  -2.082  0.00  0.00    -0.275 OA
ATOM     23  H   UNL     1       3.047   2.485  -3.417  0.00  0.00    +0.155 HD
BRANCH  20  28
ATOM     24  C   UNL     1      -1.021   3.133  -8.071  0.00  0.00    +0.044 C 
ATOM     25  C   UNL     1      -0.188   3.031  -6.819  0.00  0.00    -0.050 A 
ATOM     26  C   UNL     1      -0.785   2.699  -5.617  0.00  0.00    +0.005 A 
ATOM     27  C   UNL     1      -0.025   2.606  -4.469  0.00  0.00    +0.024 A 
ATOM     28  C   UNL     1       1.343   2.845  -4.521  0.00  0.00    +0.036 A 
ATOM     29  C   UNL     1       1.939   3.184  -5.729  0.00  0.00    -0.029 A 
ATOM     30  C   UNL     1       1.173   3.271  -6.875  0.00  0.00    +0.008 A 
ATOM     31  C   UNL     1       3.421   3.450  -5.790  0.00  0.00    +0.045 C 
ENDBRANCH  20  28
ENDBRANCH   1  21
TORSDOF 4
