REMARK  Name = ZINC39869625
REMARK  8 active torsions:
REMARK  status: ('A' for Active; 'I' for Inactive)
REMARK    1  A    between atoms: C_1  and  C_2
REMARK    2  A    between atoms: C_5  and  C_8
REMARK    3  A    between atoms: C_8  and  O_9
REMARK    4  A    between atoms: O_9  and  C_10
REMARK    5  A    between atoms: C_15  and  C_16
REMARK    6  A    between atoms: N_23  and  C_24
REMARK    7  A    between atoms: C_26  and  C_31
REMARK    8  A    between atoms: C_29  and  O_30
REMARK                            x       y       z     vdW  Elec       q    Type
REMARK                         _______ _______ _______ _____ _____    ______ ____
ROOT
ATOM      1  C   UNL     1       3.745  -5.538   0.652  0.00  0.00    +0.032 C 
ATOM      2  C   UNL     1       4.944  -5.914   1.166  0.00  0.00    +0.080 C 
ATOM      3  C   UNL     1       6.168  -5.114   1.402  0.00  0.00    +0.276 C 
ATOM      4  O   UNL     1       6.223  -3.925   1.132  0.00  0.00    -0.267 OA
ATOM      5  N   UNL     1       7.193  -5.755   1.919  0.00  0.00    -0.154 NA
ATOM      6  C   UNL     1       7.147  -7.044   2.217  0.00  0.00    +0.156 C 
ATOM      7  S   UNL     1       5.487  -7.513   1.755  0.00  0.00    -0.051 S 
ATOM      8  N   UNL     1       8.134  -7.828   2.755  0.00  0.00    -0.293 N 
ATOM      9  H   UNL     1       8.000  -8.785   2.842  0.00  0.00    +0.154 HD
ENDROOT
BRANCH   8  10
ATOM     10  C   UNL     1       9.336  -7.248   3.179  0.00  0.00    +0.075 A 
ATOM     11  C   UNL     1       9.671  -5.965   2.771  0.00  0.00    +0.030 A 
ATOM     12  C   UNL     1      10.858  -5.395   3.190  0.00  0.00    -0.048 A 
ATOM     13  C   UNL     1      11.714  -6.100   4.017  0.00  0.00    +0.007 A 
ATOM     14  C   UNL     1      11.386  -7.379   4.428  0.00  0.00    +0.047 A 
ATOM     15  C   UNL     1      10.195  -7.956   4.017  0.00  0.00    +0.138 A 
ATOM     16  C   UNL     1      11.221  -4.002   2.746  0.00  0.00    +0.044 C 
BRANCH  15  17
ATOM     17  O   UNL     1       9.869  -9.211   4.425  0.00  0.00    -0.505 OA
ATOM     18  H   UNL     1      10.186  -9.911   3.838  0.00  0.00    +0.292 HD
ENDBRANCH  15  17
ENDBRANCH   8  10
BRANCH   1  24
ATOM     19  C   UNL     1       1.351  -6.123   0.295  0.00  0.00    +0.128 A 
ATOM     20  C   UNL     1       0.359  -7.072   0.109  0.00  0.00    +0.046 A 
ATOM     21  C   UNL     1       0.680  -8.416   0.091  0.00  0.00    +0.004 A 
ATOM     22  C   UNL     1       1.992  -8.827   0.260  0.00  0.00    +0.001 A 
ATOM     23  C   UNL     1       2.993  -7.899   0.447  0.00  0.00    +0.011 A 
ATOM     24  C   UNL     1       2.684  -6.534   0.460  0.00  0.00    +0.018 A 
BRANCH  19  25
ATOM     25  O   UNL     1       1.037  -4.803   0.312  0.00  0.00    -0.487 OA
BRANCH  25  26
ATOM     26  C   UNL     1      -0.340  -4.462   0.138  0.00  0.00    +0.264 C 
BRANCH  26  31
ATOM     27  C   UNL     1      -0.940   1.283   0.318  0.00  0.00    +0.044 C 
ATOM     28  C   UNL     1      -0.783  -0.215   0.271  0.00  0.00    -0.050 A 
ATOM     29  C   UNL     1      -0.547  -0.848  -0.935  0.00  0.00    +0.004 A 
ATOM     30  C   UNL     1      -0.403  -2.222  -0.978  0.00  0.00    +0.007 A 
ATOM     31  C   UNL     1      -0.496  -2.963   0.185  0.00  0.00    -0.010 A 
ATOM     32  C   UNL     1      -0.731  -2.330   1.391  0.00  0.00    +0.007 A 
ATOM     33  C   UNL     1      -0.871  -0.956   1.435  0.00  0.00    +0.004 A 
ENDBRANCH  26  31
ENDBRANCH  25  26
ENDBRANCH  19  25
ENDBRANCH   1  24
TORSDOF 6
