REMARK  Name = ZINC63573365
REMARK  6 active torsions:
REMARK  status: ('A' for Active; 'I' for Inactive)
REMARK    1  A    between atoms: C_1  and  C_2
REMARK    2  A    between atoms: C_5  and  C_8
REMARK    3  A    between atoms: C_15  and  O_20
REMARK    4  A    between atoms: O_20  and  C_21
REMARK    5  A    between atoms: N_27  and  C_28
REMARK    6  A    between atoms: C_33  and  C_34
REMARK                            x       y       z     vdW  Elec       q    Type
REMARK                         _______ _______ _______ _____ _____    ______ ____
ROOT
ATOM      1  C   UNL     1      -0.467  -4.550   0.700  0.00  0.00    +0.134 C 
ATOM      2  C   UNL     1      -1.577  -5.436   1.278  0.00  0.00    +0.131 C 
ATOM      3  C   UNL     1      -1.070  -6.871   1.203  0.00  0.00    -0.035 C 
ATOM      4  C   UNL     1      -1.975  -7.553   0.513  0.00  0.00    +0.003 A 
ATOM      5  C   UNL     1      -2.079  -8.980   0.170  0.00  0.00    +0.055 A 
ATOM      6  C   UNL     1      -3.155  -9.351  -0.578  0.00  0.00    +0.121 A 
ATOM      7  C   UNL     1      -4.142  -8.462  -1.027  0.00  0.00    +0.047 A 
ATOM      8  C   UNL     1      -4.146  -7.130  -0.766  0.00  0.00    +0.029 A 
ATOM      9  C   UNL     1      -3.035  -6.608   0.041  0.00  0.00    +0.043 A 
ATOM     10  N   UNL     1      -2.794  -5.382   0.465  0.00  0.00    -0.375 N 
ATOM     11  C   UNL     1       0.262  -7.291   1.776  0.00  0.00    +0.052 C 
ATOM     12  C   UNL     1       1.310  -6.306   1.226  0.00  0.00    +0.114 C 
ATOM     13  N   UNL     1       0.799  -4.936   1.342  0.00  0.00    -0.276 N 
ATOM     14  C   UNL     1       1.497  -4.021   2.045  0.00  0.00    +0.307 C 
ATOM     15  O   UNL     1       1.020  -2.922   2.254  0.00  0.00    -0.252 OA
ATOM     16  N   UNL     1       2.723  -4.324   2.516  0.00  0.00    -0.269 N 
ATOM     17  H   UNL     1       3.138  -5.169   2.280  0.00  0.00    +0.156 HD
ATOM     18  H   UNL     1      -3.315  -4.587   0.277  0.00  0.00    +0.160 HD
ENDROOT
BRANCH   1  23
ATOM     19  C   UNL     1      -1.613   1.002   1.818  0.00  0.00    +0.044 C 
ATOM     20  C   UNL     1      -1.315  -0.446   1.527  0.00  0.00    -0.050 A 
ATOM     21  C   UNL     1      -1.642  -1.419   2.452  0.00  0.00    +0.004 A 
ATOM     22  C   UNL     1      -1.368  -2.748   2.185  0.00  0.00    +0.006 A 
ATOM     23  C   UNL     1      -0.767  -3.102   0.992  0.00  0.00    -0.025 A 
ATOM     24  C   UNL     1      -0.440  -2.129   0.066  0.00  0.00    +0.006 A 
ATOM     25  C   UNL     1      -0.718  -0.801   0.331  0.00  0.00    +0.004 A 
ENDBRANCH   1  23
BRANCH  16  26
ATOM     26  C   UNL     1       3.397  -3.421   3.344  0.00  0.00    +0.038 A 
ATOM     27  C   UNL     1       3.141  -2.059   3.244  0.00  0.00    +0.023 A 
ATOM     28  C   UNL     1       3.808  -1.170   4.064  0.00  0.00    +0.002 A 
ATOM     29  C   UNL     1       4.731  -1.634   4.983  0.00  0.00    +0.000 A 
ATOM     30  C   UNL     1       4.989  -2.989   5.085  0.00  0.00    +0.005 A 
ATOM     31  C   UNL     1       4.320  -3.883   4.273  0.00  0.00    -0.029 A 
ATOM     32  C   UNL     1       4.598  -5.360   4.389  0.00  0.00    +0.045 C 
ENDBRANCH  16  26
BRANCH   6  33
ATOM     33  O   UNL     1      -3.278 -10.663  -0.911  0.00  0.00    -0.495 OA
ATOM     34  C   UNL     1      -4.414 -11.029  -1.697  0.00  0.00    +0.277 C 
ENDBRANCH   6  33
TORSDOF 3
