REMARK  Name = ZINC13192291
REMARK  12 active torsions:
REMARK  status: ('A' for Active; 'I' for Inactive)
REMARK    1  A    between atoms: C_1  and  C_2
REMARK    2  A    between atoms: C_2  and  C_3
REMARK    3  A    between atoms: C_6  and  C_9
REMARK    4  A    between atoms: C_9  and  C_11
REMARK    5  A    between atoms: C_9  and  N_64
REMARK    6  A    between atoms: C_11  and  N_12
REMARK    7  A    between atoms: N_12  and  C_13
REMARK    8  A    between atoms: C_16  and  S_21
REMARK    9  A    between atoms: C_18  and  C_19
REMARK   10  A    between atoms: S_21  and  N_24
REMARK   11  A    between atoms: C_30  and  N_64
REMARK   12  A    between atoms: C_31  and  N_64
REMARK                            x       y       z     vdW  Elec       q    Type
REMARK                         _______ _______ _______ _____ _____    ______ ____
ROOT
ATOM      1  C   UNL     1       4.946  -1.635  -2.830  0.00  0.00    +0.041 A 
ATOM      2  C   UNL     1       4.132  -2.476  -2.081  0.00  0.00    +0.025 A 
ATOM      3  C   UNL     1       3.738  -2.105  -0.812  0.00  0.00    +0.030 A 
ATOM      4  C   UNL     1       4.140  -0.890  -0.278  0.00  0.00    +0.106 A 
ATOM      5  C   UNL     1       4.947  -0.044  -1.006  0.00  0.00    +0.045 A 
ATOM      6  C   UNL     1       5.360  -0.407  -2.291  0.00  0.00    +0.086 A 
ENDROOT
BRANCH   6   7
ATOM      7  C   UNL     1       6.223   0.493  -3.074  0.00  0.00    +0.388 C 
ATOM      8  O   UNL     1       6.666   0.130  -4.146  0.00  0.00    -0.241 OA
ATOM      9  O   UNL     1       6.521   1.720  -2.603  0.00  0.00    -0.241 OA
ENDBRANCH   6   7
BRANCH   4  10
ATOM     10  S   UNL     1       3.623  -0.431   1.342  0.00  0.00    +0.061 S 
ATOM     11  O   UNL     1       4.581   0.500   1.825  0.00  0.00    -0.153 OA
ATOM     12  O   UNL     1       3.318  -1.637   2.029  0.00  0.00    -0.153 OA
BRANCH  10  13
ATOM     13  N   UNL     1       2.197   0.396   1.184  0.00  0.00    -0.177 NA
ATOM     14  C   UNL     1       0.911  -0.315   1.216  0.00  0.00    +0.109 C 
ATOM     15  C   UNL     1       0.112   0.055  -0.038  0.00  0.00    +0.017 C 
ATOM     16  C   UNL     1      -0.014   1.577  -0.128  0.00  0.00    +0.003 C 
ATOM     17  C   UNL     1       1.379   2.200  -0.242  0.00  0.00    +0.017 C 
ATOM     18  C   UNL     1       2.193   1.855   1.010  0.00  0.00    +0.109 C 
ENDBRANCH  10  13
ENDBRANCH   4  10
BRANCH   1  19
ATOM     19  N   UNL     1       5.348  -2.008  -4.106  0.00  0.00    -0.344 N 
ATOM     20  H   UNL     1       5.993  -1.468  -4.588  0.00  0.00    +0.146 HD
BRANCH  19  21
ATOM     21  C   UNL     1       4.797  -3.217  -4.723  0.00  0.00    +0.091 C 
BRANCH  21  22
ATOM     22  C   UNL     1       5.477  -3.456  -6.073  0.00  0.00    -0.021 C 
BRANCH  22  26
ATOM     23  C   UNL     1       4.570  -0.224  -8.715  0.00  0.00    -0.048 A 
ATOM     24  C   UNL     1       5.785  -0.259  -8.057  0.00  0.00    +0.004 A 
ATOM     25  C   UNL     1       6.079  -1.304  -7.202  0.00  0.00    +0.002 A 
ATOM     26  C   UNL     1       5.157  -2.315  -7.005  0.00  0.00    -0.059 A 
ATOM     27  C   UNL     1       3.943  -2.283  -7.666  0.00  0.00    +0.002 A 
ATOM     28  C   UNL     1       3.648  -1.234  -8.517  0.00  0.00    +0.004 A 
BRANCH  23  30
ATOM     29  C   UNL     1       4.715   0.564 -11.062  0.00  0.00    +0.009 C 
ATOM     30  C   UNL     1       4.250   0.916  -9.647  0.00  0.00    +0.032 C 
ENDBRANCH  23  30
ENDBRANCH  22  26
BRANCH  22  33
ATOM     31  C   UNL     1       5.675  -5.015  -7.915  0.00  0.00    -0.096 C 
ATOM     32  C   UNL     1       5.128  -5.822  -5.699  0.00  0.00    -0.096 C 
ATOM     33  N   UNL     1       4.959  -4.710  -6.658  0.00  0.00    +0.382 N 
ATOM     34  H   UNL     1       3.960  -4.595  -6.863  0.00  0.00    -0.082 HD
ENDBRANCH  22  33
ENDBRANCH  21  22
ENDBRANCH  19  21
ENDBRANCH   1  19
TORSDOF 9
