REMARK  Name = ZINC20786922
REMARK  3 active torsions:
REMARK  status: ('A' for Active; 'I' for Inactive)
REMARK    1  A    between atoms: C_3  and  O_19
REMARK    2  A    between atoms: C_6  and  C_7
REMARK    3  A    between atoms: O_19  and  C_20
REMARK                            x       y       z     vdW  Elec       q    Type
REMARK                         _______ _______ _______ _____ _____    ______ ____
ROOT
ATOM      1  C   UNL     1      -1.295   2.116   0.020  0.00  0.00    +0.021 C 
ATOM      2  C   UNL     1      -1.312   3.476   0.130  0.00  0.00    +0.046 C 
ATOM      3  C   UNL     1      -0.149   4.393   0.153  0.00  0.00    +0.008 A 
ATOM      4  C   UNL     1       1.225   4.192   0.075  0.00  0.00    +0.012 A 
ATOM      5  C   UNL     1       2.079   5.275   0.125  0.00  0.00    +0.021 A 
ATOM      6  C   UNL     1       1.569   6.557   0.252  0.00  0.00    +0.043 A 
ATOM      7  C   UNL     1       0.205   6.768   0.321  0.00  0.00    +0.044 A 
ATOM      8  C   UNL     1      -0.670   5.688   0.277  0.00  0.00    +0.043 A 
ATOM      9  N   UNL     1      -2.057   5.620   0.341  0.00  0.00    -0.281 N 
ATOM     10  C   UNL     1      -2.490   4.350   0.259  0.00  0.00    +0.249 C 
ATOM     11  O   UNL     1      -3.652   3.987   0.287  0.00  0.00    -0.270 OA
ATOM     12 CL   UNL     1       2.652   7.912   0.312  0.00  0.00    -0.083 Cl
ATOM     13  H   UNL     1      -2.649   6.541   0.445  0.00  0.00    +0.155 HD
ENDROOT
BRANCH   1  19
ATOM     14  C   UNL     1       0.771   1.923  -1.349  0.00  0.00    +0.011 A 
ATOM     15  C   UNL     1       1.931   1.268  -1.673  0.00  0.00    +0.046 A 
ATOM     16  C   UNL     1       2.295   0.113  -0.991  0.00  0.00    +0.127 A 
ATOM     17  C   UNL     1       1.485  -0.387   0.024  0.00  0.00    +0.046 A 
ATOM     18  C   UNL     1       0.322   0.259   0.357  0.00  0.00    +0.011 A 
ATOM     19  C   UNL     1      -0.050   1.425  -0.328  0.00  0.00    -0.024 A 
BRANCH  16  20
ATOM     20  O   UNL     1       3.445  -0.530  -1.316  0.00  0.00    -0.434 OA
BRANCH  20  21
ATOM     21  C   UNL     1       4.230   0.036  -2.367  0.00  0.00    +0.541 C 
ATOM     22  F   UNL     1       3.475   0.074  -3.544  0.00  0.00    -0.166 F 
ATOM     23  F   UNL     1       4.612   1.335  -2.016  0.00  0.00    -0.166 F 
ENDBRANCH  20  21
ENDBRANCH  16  20
ENDBRANCH   1  19
TORSDOF 3
