REMARK  Name = ZINC37487651
REMARK  6 active torsions:
REMARK  status: ('A' for Active; 'I' for Inactive)
REMARK    1  A    between atoms: C_1  and  C_2
REMARK    2  A    between atoms: C_2  and  C_4
REMARK    3  A    between atoms: C_2  and  N_12
REMARK    4  A    between atoms: N_12  and  C_13
REMARK    5  A    between atoms: C_14  and  N_23
REMARK    6  A    between atoms: N_15  and  C_22
REMARK                            x       y       z     vdW  Elec       q    Type
REMARK                         _______ _______ _______ _____ _____    ______ ____
ROOT
ATOM      1  C   UNL     1      -0.002  -0.740   2.385  0.00  0.00    +0.131 A 
ATOM      2  C   UNL     1       0.662  -1.089   3.529  0.00  0.00    +0.127 A 
ATOM      3  N   UNL     1      -0.055  -1.328   4.679  0.00  0.00    -0.284 N 
ATOM      4  C   UNL     1      -1.396  -1.221   4.679  0.00  0.00    +0.331 A 
ATOM      5  O   UNL     1      -2.013  -1.436   5.705  0.00  0.00    -0.246 OA
ATOM      6  N   UNL     1      -2.065  -0.879   3.563  0.00  0.00    -0.273 N 
ATOM      7  H   UNL     1      -3.032  -0.807   3.586  0.00  0.00    +0.173 HD
ATOM      8  C   UNL     1      -1.404  -0.630   2.416  0.00  0.00    +0.277 A 
ATOM      9  O   UNL     1      -2.018  -0.315   1.410  0.00  0.00    -0.266 OA
ATOM     10  C   UNL     1       0.646  -1.703   5.910  0.00  0.00    +0.155 C 
ENDROOT
BRANCH   2  11
ATOM     11  N   UNL     1       2.034  -1.199   3.530  0.00  0.00    -0.343 N 
ATOM     12  H   UNL     1       2.535  -1.029   2.716  0.00  0.00    +0.144 HD
ATOM     13  H   UNL     1       2.500  -1.446   4.343  0.00  0.00    +0.144 HD
ENDBRANCH   2  11
BRANCH   1  14
ATOM     14  N   UNL     1       0.711  -0.488   1.189  0.00  0.00    -0.330 N 
ATOM     15  H   UNL     1       1.667  -0.645   1.153  0.00  0.00    +0.147 HD
BRANCH  14  17
ATOM     16  C   UNL     1       0.999   0.704  -0.927  0.00  0.00    +0.033 C 
ATOM     17  C   UNL     1       0.004   0.009   0.006  0.00  0.00    +0.099 C 
BRANCH  17  18
ATOM     18  C   UNL     1      -0.640  -1.145  -0.717  0.00  0.00    -0.009 A 
ATOM     19  C   UNL     1      -0.125  -2.421  -0.579  0.00  0.00    +0.008 A 
ATOM     20  C   UNL     1      -0.715  -3.480  -1.242  0.00  0.00    +0.020 A 
ATOM     21  C   UNL     1      -1.823  -3.265  -2.043  0.00  0.00    +0.042 A 
ATOM     22  C   UNL     1      -2.339  -1.989  -2.181  0.00  0.00    +0.040 A 
ATOM     23  C   UNL     1      -1.750  -0.930  -1.514  0.00  0.00    +0.047 A 
ATOM     24 CL   UNL     1      -2.401   0.671  -1.681  0.00  0.00    -0.083 Cl
ATOM     25 CL   UNL     1      -2.564  -4.596  -2.876  0.00  0.00    -0.083 Cl
ENDBRANCH  17  18
ENDBRANCH  14  17
ENDBRANCH   1  14
TORSDOF 4
