REMARK  Name = ZINC39890529
REMARK  7 active torsions:
REMARK  status: ('A' for Active; 'I' for Inactive)
REMARK    1  A    between atoms: C_1  and  C_2
REMARK    2  A    between atoms: C_5  and  C_8
REMARK    3  A    between atoms: C_8  and  N_9
REMARK    4  A    between atoms: C_24  and  C_36
REMARK    5  A    between atoms: N_32  and  C_33
REMARK    6  A    between atoms: C_33  and  C_34
REMARK    7  A    between atoms: C_34  and  O_35
REMARK                            x       y       z     vdW  Elec       q    Type
REMARK                         _______ _______ _______ _____ _____    ______ ____
ROOT
ATOM      1  N   UNL     1       1.447  -4.746  -0.032  0.00  0.00    -0.264 N 
ATOM      2  C   UNL     1       2.175  -4.983  -1.184  0.00  0.00    +0.043 A 
ATOM      3  C   UNL     1       1.791  -4.845  -2.519  0.00  0.00    +0.024 A 
ATOM      4  C   UNL     1       2.734  -5.156  -3.486  0.00  0.00    +0.002 A 
ATOM      5  C   UNL     1       4.004  -5.584  -3.157  0.00  0.00    +0.000 A 
ATOM      6  C   UNL     1       4.399  -5.726  -1.831  0.00  0.00    +0.008 A 
ATOM      7  C   UNL     1       3.466  -5.420  -0.864  0.00  0.00    +0.011 A 
ATOM      8  C   UNL     1       3.535  -5.458   0.629  0.00  0.00    +0.174 C 
ATOM      9  C   UNL     1       2.168  -4.994   1.082  0.00  0.00    +0.253 C 
ATOM     10  O   UNL     1       1.791  -4.870   2.228  0.00  0.00    -0.272 OA
ATOM     11  C   UNL     1       4.611  -4.588   1.178  0.00  0.00    +0.084 A 
ATOM     12  C   UNL     1       4.877  -3.154   1.025  0.00  0.00    +0.199 A 
ATOM     13  O   UNL     1       4.093  -2.383   0.500  0.00  0.00    -0.287 OA
ATOM     14  C   UNL     1       6.190  -2.729   1.572  0.00  0.00    +0.065 A 
ATOM     15  C   UNL     1       6.669  -1.440   1.339  0.00  0.00    +0.018 A 
ATOM     16  C   UNL     1       7.882  -1.065   1.846  0.00  0.00    -0.050 A 
ATOM     17  C   UNL     1       8.636  -1.962   2.590  0.00  0.00    +0.007 A 
ATOM     18  C   UNL     1       8.178  -3.238   2.831  0.00  0.00    +0.047 A 
ATOM     19  C   UNL     1       6.942  -3.643   2.327  0.00  0.00    +0.139 A 
ATOM     20  O   UNL     1       6.507  -4.897   2.587  0.00  0.00    -0.450 OA
ATOM     21  C   UNL     1       5.432  -5.379   1.934  0.00  0.00    +0.200 A 
ATOM     22  C   UNL     1       4.920  -6.760   1.883  0.00  0.00    +0.284 C 
ATOM     23  O   UNL     1       5.424  -7.712   2.445  0.00  0.00    -0.267 OA
ATOM     24  N   UNL     1       3.807  -6.814   1.119  0.00  0.00    -0.271 N 
ATOM     25  C   UNL     1       8.402   0.328   1.597  0.00  0.00    +0.044 C 
ENDROOT
BRANCH   1  26
ATOM     26  C   UNL     1       0.059  -4.275  -0.021  0.00  0.00    +0.148 C 
BRANCH  26  31
ATOM     27  C   UNL     1      -0.018   1.503   0.010  0.00  0.00    +0.044 C 
ATOM     28  C   UNL     1       0.002  -0.004   0.002  0.00  0.00    -0.050 A 
ATOM     29  C   UNL     1       0.006  -0.689  -1.199  0.00  0.00    +0.003 A 
ATOM     30  C   UNL     1       0.025  -2.071  -1.206  0.00  0.00    +0.005 A 
ATOM     31  C   UNL     1       0.040  -2.768  -0.013  0.00  0.00    -0.030 A 
ATOM     32  C   UNL     1       0.037  -2.084   1.188  0.00  0.00    +0.005 A 
ATOM     33  C   UNL     1       0.023  -0.702   1.195  0.00  0.00    +0.003 A 
ENDBRANCH  26  31
ENDBRANCH   1  26
BRANCH  24  34
ATOM     34  C   UNL     1       3.014  -8.011   0.832  0.00  0.00    +0.137 C 
BRANCH  34  35
ATOM     35  C   UNL     1       3.549  -8.686  -0.433  0.00  0.00    +0.175 C 
BRANCH  35  36
ATOM     36  O   UNL     1       4.876  -9.160  -0.194  0.00  0.00    -0.393 OA
ATOM     37  H   UNL     1       5.279  -9.600  -0.955  0.00  0.00    +0.209 HD
ENDBRANCH  35  36
ENDBRANCH  34  35
ENDBRANCH  24  34
TORSDOF 5
