REMARK  Name = ZINC06459288
REMARK  12 active torsions:
REMARK  status: ('A' for Active; 'I' for Inactive)
REMARK    1  A    between atoms: C_1  and  C_2
REMARK    2  A    between atoms: C_2  and  C_3
REMARK    3  A    between atoms: C_2  and  C_4
REMARK    4  A    between atoms: C_2  and  C_5
REMARK    5  A    between atoms: C_7  and  C_16
REMARK    6  A    between atoms: C_9  and  C_12
REMARK    7  A    between atoms: C_10  and  O_11
REMARK    8  A    between atoms: C_12  and  C_13
REMARK    9  A    between atoms: C_12  and  C_14
REMARK   10  A    between atoms: C_12  and  C_15
REMARK   11  A    between atoms: N_17  and  N_18
REMARK   12  A    between atoms: C_19  and  C_25
REMARK                            x       y       z     vdW  Elec       q    Type
REMARK                         _______ _______ _______ _____ _____    ______ ____
ROOT
ATOM      1  C   UNL     1      -3.701   1.759   0.029  0.00  0.00    +0.000 A 
ATOM      2  C   UNL     1      -2.501   1.082   0.020  0.00  0.00    +0.017 A 
ATOM      3  C   UNL     1      -1.299   1.795   0.018  0.00  0.00    -0.004 A 
ATOM      4  C   UNL     1      -1.320   3.193   0.031  0.00  0.00    +0.017 A 
ATOM      5  C   UNL     1      -2.525   3.861   0.035  0.00  0.00    +0.000 A 
ATOM      6  C   UNL     1      -3.717   3.148   0.037  0.00  0.00    +0.124 A 
ENDROOT
BRANCH   1   8
ATOM      7  C   UNL     1      -4.702  -0.510   0.022  0.00  0.00    +0.015 C 
ATOM      8  C   UNL     1      -4.998   0.992   0.032  0.00  0.00    -0.009 C 
ATOM      9  C   UNL     1      -5.798   1.346   1.287  0.00  0.00    +0.015 C 
ATOM     10  C   UNL     1      -5.810   1.359  -1.212  0.00  0.00    +0.015 C 
ENDBRANCH   1   8
BRANCH   5  11
ATOM     11  C   UNL     1      -2.550   5.368   0.043  0.00  0.00    -0.009 C 
ATOM     12  C   UNL     1      -1.116   5.901   0.038  0.00  0.00    +0.015 C 
ATOM     13  C   UNL     1      -3.285   5.873  -1.200  0.00  0.00    +0.015 C 
ATOM     14  C   UNL     1      -3.273   5.859   1.298  0.00  0.00    +0.015 C 
ENDBRANCH   5  11
BRANCH   6  15
ATOM     15  O   UNL     1      -4.903   3.811   0.046  0.00  0.00    -0.506 OA
ATOM     16  H   UNL     1      -5.242   3.998   0.932  0.00  0.00    +0.292 HD
ENDBRANCH   6  15
BRANCH   3  17
ATOM     17  C   UNL     1      -0.013   1.076   0.008  0.00  0.00    +0.141 C 
ATOM     18  N   UNL     1       1.103   1.740   0.001  0.00  0.00    -0.171 NA
BRANCH  18  19
ATOM     19  N   UNL     1       2.325   1.056  -0.015  0.00  0.00    -0.188 N 
ATOM     20  C   UNL     1       3.021   0.667  -1.143  0.00  0.00    +0.184 A 
ATOM     21  N   UNL     1       4.111   0.057  -0.768  0.00  0.00    -0.152 NA
ATOM     22  N   UNL     1       4.139   0.042   0.633  0.00  0.00    -0.253 N 
ATOM     23  H   UNL     1       4.833  -0.347   1.189  0.00  0.00    +0.191 HD
ATOM     24  C   UNL     1       3.028   0.670   1.069  0.00  0.00    +0.197 A 
ATOM     25  S   UNL     1       2.587   0.927   2.703  0.00  0.00    -0.010 S 
BRANCH  20  26
ATOM     26  C   UNL     1       2.601   0.902  -2.542  0.00  0.00    +0.021 A 
ATOM     27  C   UNL     1       1.286   1.273  -2.825  0.00  0.00    +0.011 A 
ATOM     28  C   UNL     1       0.901   1.496  -4.131  0.00  0.00    +0.001 A 
ATOM     29  C   UNL     1       1.813   1.341  -5.160  0.00  0.00    +0.000 A 
ATOM     30  C   UNL     1       3.117   0.969  -4.886  0.00  0.00    +0.001 A 
ATOM     31  C   UNL     1       3.515   0.748  -3.584  0.00  0.00    +0.011 A 
ENDBRANCH  20  26
ENDBRANCH  18  19
ENDBRANCH   3  17
TORSDOF 6
