REMARK  Name = ZINC12582014
REMARK  8 active torsions:
REMARK  status: ('A' for Active; 'I' for Inactive)
REMARK    1  A    between atoms: C_1  and  C_2
REMARK    2  A    between atoms: C_5  and  O_9
REMARK    3  A    between atoms: O_9  and  C_10
REMARK    4  A    between atoms: C_10  and  C_11
REMARK    5  A    between atoms: N_13  and  N_14
REMARK    6  A    between atoms: C_15  and  C_17
REMARK    7  A    between atoms: C_17  and  O_18
REMARK    8  A    between atoms: O_18  and  C_19
REMARK                            x       y       z     vdW  Elec       q    Type
REMARK                         _______ _______ _______ _____ _____    ______ ____
ROOT
ATOM      1  N   UNL     1       3.156  10.292   0.023  0.00  0.00    -0.231 N 
ATOM      2  C   UNL     1       2.098   9.457   0.029  0.00  0.00    +0.267 C 
ATOM      3  O   UNL     1       0.972   9.906   0.042  0.00  0.00    -0.271 OA
ATOM      4  H   UNL     1       4.057   9.933   0.012  0.00  0.00    +0.173 HD
ENDROOT
BRANCH   1   7
ATOM      5  C   UNL     1       4.013  12.513   0.026  0.00  0.00    +0.267 C 
ATOM      6  O   UNL     1       5.140  12.064   0.012  0.00  0.00    -0.271 OA
ATOM      7  N   UNL     1       2.955  11.678   0.032  0.00  0.00    -0.231 N 
ATOM      8  H   UNL     1       2.054  12.037   0.042  0.00  0.00    +0.173 HD
BRANCH   5   9
ATOM      9  C   UNL     1       3.797  14.004   0.035  0.00  0.00    +0.326 C 
BRANCH   9  10
ATOM     10  O   UNL     1       5.061  14.669   0.026  0.00  0.00    -0.482 OA
BRANCH  10  15
ATOM     11  C   UNL     1       4.989  20.302   0.058  0.00  0.00    +0.044 C 
ATOM     12  C   UNL     1       5.008  18.795   0.049  0.00  0.00    -0.049 A 
ATOM     13  C   UNL     1       3.820  18.089   0.056  0.00  0.00    +0.007 A 
ATOM     14  C   UNL     1       3.835  16.708   0.048  0.00  0.00    +0.047 A 
ATOM     15  C   UNL     1       5.044  16.028   0.033  0.00  0.00    +0.135 A 
ATOM     16  C   UNL     1       6.236  16.739   0.031  0.00  0.00    +0.060 A 
ATOM     17  C   UNL     1       6.215  18.121   0.034  0.00  0.00    +0.022 A 
ATOM     18 BR   UNL     1       7.888  15.817   0.018  0.00  0.00    -0.047 Br
ENDBRANCH  10  15
ENDBRANCH   9  10
ENDBRANCH   5   9
ENDBRANCH   1   7
BRANCH   2  19
ATOM     19  C   UNL     1       2.315   7.966   0.019  0.00  0.00    +0.326 C 
BRANCH  19  20
ATOM     20  O   UNL     1       1.050   7.301   0.028  0.00  0.00    -0.483 OA
BRANCH  20  21
ATOM     21  C   UNL     1       1.067   5.942   0.021  0.00  0.00    +0.122 A 
ATOM     22  C   UNL     1       2.292   5.268   0.006  0.00  0.00    +0.046 A 
ATOM     23  C   UNL     1       2.342   3.909  -0.000  0.00  0.00    +0.012 A 
ATOM     24  C   UNL     1       1.148   3.167   0.008  0.00  0.00    -0.018 A 
ATOM     25  C   UNL     1       1.163   1.762   0.000  0.00  0.00    +0.008 A 
ATOM     26  C   UNL     1      -0.013   1.076   0.008  0.00  0.00    +0.001 A 
ATOM     27  C   UNL     1      -1.235   1.746   0.017  0.00  0.00    +0.001 A 
ATOM     28  C   UNL     1      -1.288   3.105   0.030  0.00  0.00    +0.008 A 
ATOM     29  C   UNL     1      -0.095   3.849   0.023  0.00  0.00    -0.014 A 
ATOM     30  C   UNL     1      -0.112   5.253   0.029  0.00  0.00    +0.054 A 
ENDBRANCH  20  21
ENDBRANCH  19  20
ENDBRANCH   2  19
TORSDOF 7
