REMARK  Name = ZINC11995690
REMARK  7 active torsions:
REMARK  status: ('A' for Active; 'I' for Inactive)
REMARK    1  A    between atoms: C_1  and  O_2
REMARK    2  A    between atoms: O_2  and  C_3
REMARK    3  A    between atoms: C_8  and  C_9
REMARK    4  A    between atoms: C_20  and  C_21
REMARK    5  A    between atoms: C_20  and  N_59
REMARK    6  A    between atoms: C_21  and  N_22
REMARK    7  A    between atoms: C_23  and  C_25
REMARK                            x       y       z     vdW  Elec       q    Type
REMARK                         _______ _______ _______ _____ _____    ______ ____
ROOT
ATOM      1  C   UNL     1      -0.059   5.351   0.028  0.00  0.00    +0.191 C 
ATOM      2  C   UNL     1      -0.234   5.853  -1.389  0.00  0.00    -0.028 C 
ATOM      3  C   UNL     1       0.839   8.025  -1.137  0.00  0.00    -0.039 C 
ATOM      4  C   UNL     1       0.906   8.183   0.370  0.00  0.00    -0.022 A 
ATOM      5  C   UNL     1       0.802   9.435   0.941  0.00  0.00    +0.005 A 
ATOM      6  C   UNL     1       0.915   9.573   2.313  0.00  0.00    +0.000 A 
ATOM      7  C   UNL     1       1.131   8.462   3.107  0.00  0.00    +0.004 A 
ATOM      8  C   UNL     1       1.223   7.207   2.536  0.00  0.00    +0.046 A 
ATOM      9  C   UNL     1       1.101   7.067   1.161  0.00  0.00    +0.123 A 
ATOM     10  O   UNL     1       1.167   5.833   0.590  0.00  0.00    -0.486 OA
ATOM     11  N   UNL     1      -0.423   7.318  -1.463  0.00  0.00    +0.386 N 
ATOM     12  H   UNL     1      -1.140   7.593  -0.781  0.00  0.00    -0.081 HD
ENDROOT
BRANCH   1  18
ATOM     13  C   UNL     1      -1.236   3.137   0.029  0.00  0.00    +0.127 A 
ATOM     14  C   UNL     1      -1.218   1.750   0.017  0.00  0.00    +0.046 A 
ATOM     15  C   UNL     1      -0.013   1.076   0.008  0.00  0.00    +0.004 A 
ATOM     16  C   UNL     1       1.176   1.783   0.000  0.00  0.00    +0.001 A 
ATOM     17  C   UNL     1       1.161   3.165   0.007  0.00  0.00    +0.011 A 
ATOM     18  C   UNL     1      -0.043   3.844   0.021  0.00  0.00    +0.032 A 
BRANCH  13  20
ATOM     19  C   UNL     1      -3.610   3.009   0.051  0.00  0.00    +0.277 C 
ATOM     20  O   UNL     1      -2.421   3.802   0.043  0.00  0.00    -0.495 OA
ENDBRANCH  13  20
ENDBRANCH   1  18
BRANCH  11  21
ATOM     21  C   UNL     1      -0.878   7.696  -2.810  0.00  0.00    -0.059 C 
BRANCH  21  22
ATOM     22  C   UNL     1      -1.314   9.162  -2.780  0.00  0.00    +0.086 C 
BRANCH  22  23
ATOM     23  N   UNL     1      -1.799   9.554  -4.106  0.00  0.00    -0.313 N 
ATOM     24  C   UNL     1      -2.238  10.810  -4.318  0.00  0.00    +0.254 C 
ATOM     25  O   UNL     1      -2.232  11.620  -3.408  0.00  0.00    -0.270 OA
ATOM     26  H   UNL     1      -1.804   8.910  -4.831  0.00  0.00    +0.149 HD
BRANCH  24  27
ATOM     27  C   UNL     1      -2.708  11.190  -5.600  0.00  0.00    +0.119 A 
ATOM     28  C   UNL     1      -3.204  12.426  -6.018  0.00  0.00    +0.181 A 
ATOM     29  C   UNL     1      -3.605  12.545  -7.353  0.00  0.00    +0.170 A 
ATOM     30  C   UNL     1      -3.498  11.450  -8.164  0.00  0.00    +0.095 A 
ATOM     31  S   UNL     1      -2.821  10.208  -7.082  0.00  0.00    -0.085 S 
ATOM     32  O   UNL     1      -4.106  13.740  -7.845  0.00  0.00    -0.484 OA
ATOM     33  C   UNL     1      -4.535  14.669  -6.840  0.00  0.00    +0.270 C 
ATOM     34  C   UNL     1      -3.446  14.770  -5.766  0.00  0.00    +0.270 C 
ATOM     35  O   UNL     1      -3.288  13.490  -5.143  0.00  0.00    -0.484 OA
ENDBRANCH  24  27
ENDBRANCH  22  23
ENDBRANCH  21  22
ENDBRANCH  11  21
TORSDOF 6
