REMARK  Name = ZINC46367481
REMARK  7 active torsions:
REMARK  status: ('A' for Active; 'I' for Inactive)
REMARK    1  A    between atoms: C_1  and  C_2
REMARK    2  A    between atoms: N_7  and  C_9
REMARK    3  A    between atoms: C_9  and  C_11
REMARK    4  A    between atoms: C_9  and  C_12
REMARK    5  A    between atoms: C_12  and  N_13
REMARK    6  A    between atoms: N_19  and  C_22
REMARK    7  A    between atoms: C_27  and  O_28
REMARK                            x       y       z     vdW  Elec       q    Type
REMARK                         _______ _______ _______ _____ _____    ______ ____
ROOT
ATOM      1  N   UNL     1       3.065  -0.566   2.179  0.00  0.00    -0.301 N 
ATOM      2  C   UNL     1       4.245   0.042   1.946  0.00  0.00    +0.302 C 
ATOM      3  O   UNL     1       5.265  -0.617   1.876  0.00  0.00    -0.253 OA
ATOM      4  N   UNL     1       4.295   1.380   1.790  0.00  0.00    -0.283 N 
ATOM      5  C   UNL     1       3.092   2.201   1.986  0.00  0.00    +0.128 C 
ATOM      6  C   UNL     1       3.401   3.280   3.031  0.00  0.00    +0.124 C 
ATOM      7  N   UNL     1       4.659   3.944   2.663  0.00  0.00    -0.324 N 
ATOM      8  C   UNL     1       5.862   3.123   2.466  0.00  0.00    +0.124 C 
ATOM      9  C   UNL     1       5.555   2.044   1.427  0.00  0.00    +0.128 C 
ATOM     10  H   UNL     1       2.263  -0.035   2.306  0.00  0.00    +0.150 HD
ENDROOT
BRANCH   7  11
ATOM     11  C   UNL     1       4.711   5.333   2.501  0.00  0.00    +0.072 A 
ATOM     12  C   UNL     1       5.017   6.148   3.581  0.00  0.00    +0.027 A 
ATOM     13  C   UNL     1       5.068   7.520   3.419  0.00  0.00    +0.002 A 
ATOM     14  C   UNL     1       4.815   8.083   2.182  0.00  0.00    +0.004 A 
ATOM     15  C   UNL     1       4.510   7.277   1.101  0.00  0.00    +0.047 A 
ATOM     16  C   UNL     1       4.462   5.902   1.254  0.00  0.00    +0.138 A 
BRANCH  16  17
ATOM     17  O   UNL     1       4.166   5.107   0.190  0.00  0.00    -0.505 OA
ATOM     18  H   UNL     1       3.221   4.933   0.079  0.00  0.00    +0.292 HD
ENDBRANCH  16  17
ENDBRANCH   7  11
BRANCH   1  19
ATOM     19  C   UNL     1       2.993  -2.028   2.239  0.00  0.00    +0.090 C 
BRANCH  19  20
ATOM     20  C   UNL     1       1.533  -2.461   2.386  0.00  0.00    -0.054 C 
ATOM     21  C   UNL     1       1.447  -3.988   2.334  0.00  0.00    -0.012 C 
BRANCH  20  27
ATOM     22  C   UNL     1      -2.986  -1.952   0.573  0.00  0.00    +0.005 C 
ATOM     23  C   UNL     1      -1.514  -1.580   0.381  0.00  0.00    -0.031 C 
ATOM     24  C   UNL     1      -1.038  -2.071  -0.990  0.00  0.00    -0.001 C 
ATOM     25  C   UNL     1       0.455  -1.764  -1.141  0.00  0.00    -0.018 C 
ATOM     26  C   UNL     1       1.223  -2.418   0.009  0.00  0.00    -0.078 C 
ATOM     27  N   UNL     1       0.740  -1.889   1.290  0.00  0.00    +0.383 N 
ATOM     28  C   UNL     1      -0.673  -2.241   1.475  0.00  0.00    -0.075 C 
ATOM     29  H   UNL     1       0.838  -0.884   1.296  0.00  0.00    -0.081 HD
ENDBRANCH  20  27
ENDBRANCH  19  20
ENDBRANCH   1  19
TORSDOF 5
