REMARK  Name = ZINC04553241
REMARK  6 active torsions:
REMARK  status: ('A' for Active; 'I' for Inactive)
REMARK    1  A    between atoms: C_1  and  C_2
REMARK    2  A    between atoms: C_2  and  C_28
REMARK    3  A    between atoms: C_6  and  C_17
REMARK    4  A    between atoms: C_11  and  O_15
REMARK    5  A    between atoms: C_24  and  S_26
REMARK    6  A    between atoms: S_26  and  C_27
REMARK                            x       y       z     vdW  Elec       q    Type
REMARK                         _______ _______ _______ _____ _____    ______ ____
ROOT
ATOM      1  C   UNL     1      -4.116   6.460  -1.006  0.00  0.00    +0.031 C 
ATOM      2  C   UNL     1      -4.130   5.537  -2.227  0.00  0.00    +0.034 C 
ATOM      3  C   UNL     1      -2.799   4.777  -2.322  0.00  0.00    +0.098 C 
ATOM      4  C   UNL     1      -2.621   3.949  -1.048  0.00  0.00    +0.207 C 
ATOM      5  C   UNL     1      -1.430   2.999  -1.225  0.00  0.00    +0.086 C 
ATOM      6  C   UNL     1      -1.332   2.114   0.020  0.00  0.00    +0.058 C 
ATOM      7  C   UNL     1      -1.419   2.968   1.259  0.00  0.00    +0.004 A 
ATOM      8  C   UNL     1      -0.992   2.436   2.466  0.00  0.00    +0.031 A 
ATOM      9  C   UNL     1      -1.060   3.186   3.623  0.00  0.00    +0.083 A 
ATOM     10  C   UNL     1      -1.559   4.481   3.580  0.00  0.00    +0.139 A 
ATOM     11  C   UNL     1      -1.986   5.015   2.377  0.00  0.00    +0.093 A 
ATOM     12  C   UNL     1      -1.915   4.259   1.212  0.00  0.00    +0.131 A 
ATOM     13  O   UNL     1      -2.341   4.820   0.050  0.00  0.00    -0.464 OA
ATOM     14 CL   UNL     1      -0.523   2.510   5.129  0.00  0.00    -0.080 Cl
ATOM     15  N   UNL     1      -3.826   3.175  -0.769  0.00  0.00    -0.218 NA
ATOM     16  C   UNL     1      -4.993   3.466  -1.245  0.00  0.00    +0.153 C 
ATOM     17  N   UNL     1      -5.198   4.536  -2.084  0.00  0.00    -0.319 N 
ATOM     18  C   UNL     1      -4.352   6.359  -3.498  0.00  0.00    +0.031 C 
ATOM     19  H   UNL     1      -6.031   4.628  -2.573  0.00  0.00    +0.148 HD
ENDROOT
BRANCH   6  20
ATOM     20  C   UNL     1      -0.017   1.378   0.010  0.00  0.00    -0.040 A 
ATOM     21  C   UNL     1       1.171   2.086   0.002  0.00  0.00    +0.004 A 
ATOM     22  C   UNL     1       2.377   1.411  -0.015  0.00  0.00    +0.000 A 
ATOM     23  C   UNL     1       2.396   0.029  -0.022  0.00  0.00    +0.000 A 
ATOM     24  C   UNL     1       1.208  -0.679  -0.013  0.00  0.00    +0.000 A 
ATOM     25  C   UNL     1       0.002  -0.004   0.002  0.00  0.00    +0.004 A 
ENDBRANCH   6  20
BRANCH  10  26
ATOM     26  O   UNL     1      -1.630   5.222   4.718  0.00  0.00    -0.505 OA
ATOM     27  H   UNL     1      -2.464   5.127   5.198  0.00  0.00    +0.292 HD
ENDBRANCH  10  26
BRANCH  16  28
ATOM     28  S   UNL     1      -6.367   2.456  -0.803  0.00  0.00    -0.094 S 
ATOM     29  C   UNL     1      -5.542   1.255   0.272  0.00  0.00    +0.093 C 
ENDBRANCH  16  28
TORSDOF 3
