REMARK  Name = ZINC08933157
REMARK  8 active torsions:
REMARK  status: ('A' for Active; 'I' for Inactive)
REMARK    1  A    between atoms: C_1  and  C_2
REMARK    2  A    between atoms: C_7  and  C_8
REMARK    3  A    between atoms: C_8  and  N_9
REMARK    4  A    between atoms: N_20  and  C_23
REMARK    5  A    between atoms: C_23  and  C_24
REMARK    6  A    between atoms: N_26  and  C_27
REMARK    7  A    between atoms: C_32  and  C_37
REMARK    8  A    between atoms: C_34  and  C_36
REMARK                            x       y       z     vdW  Elec       q    Type
REMARK                         _______ _______ _______ _____ _____    ______ ____
ROOT
ATOM      1  N   UNL     1      -9.615   5.033   3.915  0.00  0.00    -0.331 N 
ATOM      2  C   UNL     1     -10.226   5.490   5.063  0.00  0.00    +0.051 A 
ATOM      3  C   UNL     1     -11.079   6.563   5.314  0.00  0.00    +0.026 A 
ATOM      4  C   UNL     1     -11.546   6.784   6.590  0.00  0.00    +0.002 A 
ATOM      5  C   UNL     1     -11.175   5.947   7.634  0.00  0.00    +0.001 A 
ATOM      6  C   UNL     1     -10.339   4.889   7.410  0.00  0.00    +0.010 A 
ATOM      7  C   UNL     1      -9.854   4.647   6.124  0.00  0.00    +0.009 A 
ATOM      8  C   UNL     1      -8.964   3.628   5.551  0.00  0.00    +0.033 A 
ATOM      9  C   UNL     1      -8.855   3.917   4.191  0.00  0.00    +0.119 A 
ATOM     10  C   UNL     1      -8.044   3.082   3.386  0.00  0.00    +0.292 A 
ATOM     11  O   UNL     1      -7.925   3.304   2.192  0.00  0.00    -0.264 OA
ATOM     12  N   UNL     1      -7.406   2.038   3.952  0.00  0.00    -0.219 N 
ATOM     13  N   UNL     1      -7.538   1.769   5.317  0.00  0.00    -0.175 NA
ATOM     14  C   UNL     1      -8.272   2.522   6.088  0.00  0.00    +0.143 A 
ENDROOT
BRANCH   1  15
ATOM     15  C   UNL     1      -9.753   5.645   2.592  0.00  0.00    +0.158 C 
BRANCH  15  22
ATOM     16  C   UNL     1     -10.237   6.318  -0.176  0.00  0.00    +0.044 C 
ATOM     17  C   UNL     1     -11.080   5.270   0.503  0.00  0.00    -0.046 A 
ATOM     18  C   UNL     1     -12.085   4.630  -0.198  0.00  0.00    +0.004 A 
ATOM     19  C   UNL     1     -12.859   3.669   0.425  0.00  0.00    +0.000 A 
ATOM     20  C   UNL     1     -12.627   3.347   1.749  0.00  0.00    +0.000 A 
ATOM     21  C   UNL     1     -11.619   3.983   2.449  0.00  0.00    +0.005 A 
ATOM     22  C   UNL     1     -10.849   4.948   1.827  0.00  0.00    -0.025 A 
ENDBRANCH  15  22
ENDBRANCH   1  15
BRANCH  12  23
ATOM     23  C   UNL     1      -6.566   1.169   3.123  0.00  0.00    +0.243 C 
BRANCH  23  24
ATOM     24  C   UNL     1      -5.157   1.702   3.105  0.00  0.00    +0.235 C 
ATOM     25  O   UNL     1      -4.881   2.708   3.723  0.00  0.00    -0.274 OA
ATOM     26  N   UNL     1      -4.203   1.060   2.401  0.00  0.00    -0.311 N 
ATOM     27  H   UNL     1      -4.424   0.256   1.906  0.00  0.00    +0.149 HD
BRANCH  26  28
ATOM     28  C   UNL     1      -2.833   1.578   2.384  0.00  0.00    +0.076 C 
ATOM     29  C   UNL     1      -2.075   1.057   3.606  0.00  0.00    +0.022 C 
ATOM     30  C   UNL     1      -0.644   1.597   3.588  0.00  0.00    +0.002 C 
ATOM     31  C   UNL     1       0.062   1.130   2.313  0.00  0.00    +0.003 C 
ATOM     32  C   UNL     1      -0.696   1.651   1.091  0.00  0.00    -0.009 C 
ATOM     33  C   UNL     1      -2.127   1.111   1.109  0.00  0.00    +0.009 C 
ATOM     34  C   UNL     1      -2.885   1.632  -0.114  0.00  0.00    +0.009 C 
ATOM     35  C   UNL     1       0.010   1.184  -0.184  0.00  0.00    +0.008 C 
ENDBRANCH  26  28
ENDBRANCH  23  24
ENDBRANCH  12  23
TORSDOF 5
