REMARK  Name = ZINC03302717
REMARK  6 active torsions:
REMARK  status: ('A' for Active; 'I' for Inactive)
REMARK    1  A    between atoms: C_7  and  C_11
REMARK    2  A    between atoms: C_14  and  S_23
REMARK    3  A    between atoms: N_15  and  C_16
REMARK    4  A    between atoms: S_23  and  C_24
REMARK    5  A    between atoms: C_24  and  C_25
REMARK    6  A    between atoms: N_27  and  C_28
REMARK                            x       y       z     vdW  Elec       q    Type
REMARK                         _______ _______ _______ _____ _____    ______ ____
ROOT
ATOM      1  C   UNL     1       0.683  -3.260   0.002  0.00  0.00    +0.171 A 
ATOM      2  N   UNL     1      -0.629  -3.217   0.014  0.00  0.00    -0.128 NA
ATOM      3  N   UNL     1      -1.109  -4.409   0.009  0.00  0.00    -0.122 NA
ATOM      4  C   UNL     1      -0.135  -5.289  -0.008  0.00  0.00    +0.197 A 
ATOM      5  N   UNL     1       1.043  -4.590  -0.019  0.00  0.00    -0.270 N 
ENDROOT
BRANCH   1  12
ATOM      6  C   UNL     1      -0.017   1.363   0.066  0.00  0.00    +0.001 A 
ATOM      7  C   UNL     1       1.169   2.083   0.059  0.00  0.00    +0.002 A 
ATOM      8  C   UNL     1       2.384   1.434   0.034  0.00  0.00    +0.026 A 
ATOM      9  C   UNL     1       2.425   0.043   0.017  0.00  0.00    +0.047 A 
ATOM     10  C   UNL     1       1.220  -0.680   0.025  0.00  0.00    +0.010 A 
ATOM     11  C   UNL     1       0.001  -0.004   0.049  0.00  0.00    +0.011 A 
ATOM     12  C   UNL     1       1.600  -2.103   0.003  0.00  0.00    +0.045 A 
ATOM     13  C   UNL     1       2.957  -2.142  -0.016  0.00  0.00    +0.095 A 
ATOM     14  N   UNL     1       3.455  -0.871  -0.008  0.00  0.00    -0.360 N 
ATOM     15  H   UNL     1       4.398  -0.645  -0.018  0.00  0.00    +0.165 HD
ENDBRANCH   1  12
BRANCH   5  16
ATOM     16  C   UNL     1       2.342  -5.117  -0.044  0.00  0.00    +0.051 A 
ATOM     17  C   UNL     1       3.164  -4.890  -1.139  0.00  0.00    +0.028 A 
ATOM     18  C   UNL     1       4.443  -5.410  -1.161  0.00  0.00    +0.022 A 
ATOM     19  C   UNL     1       4.906  -6.157  -0.092  0.00  0.00    +0.041 A 
ATOM     20  C   UNL     1       4.089  -6.385   1.001  0.00  0.00    +0.022 A 
ATOM     21  C   UNL     1       2.811  -5.862   1.030  0.00  0.00    +0.028 A 
ATOM     22 CL   UNL     1       6.514  -6.810  -0.122  0.00  0.00    -0.084 Cl
ENDBRANCH   5  16
BRANCH   4  23
ATOM     23  S   UNL     1      -0.311  -7.043  -0.021  0.00  0.00    -0.076 S 
BRANCH  23  24
ATOM     24  C   UNL     1      -2.106  -7.304  -0.008  0.00  0.00    +0.173 C 
BRANCH  24  25
ATOM     25  C   UNL     1      -2.398  -8.782  -0.018  0.00  0.00    +0.227 C 
ATOM     26  O   UNL     1      -1.485  -9.581  -0.033  0.00  0.00    -0.275 OA
ATOM     27  N   UNL     1      -3.674  -9.217  -0.010  0.00  0.00    -0.285 N 
ATOM     28  H   UNL     1      -4.402  -8.582   0.070  0.00  0.00    +0.155 HD
BRANCH  27  29
ATOM     29  C   UNL     1      -3.948 -10.587  -0.117  0.00  0.00    +0.037 A 
ATOM     30  C   UNL     1      -5.069 -11.018  -0.813  0.00  0.00    +0.027 A 
ATOM     31  C   UNL     1      -5.340 -12.369  -0.920  0.00  0.00    +0.051 A 
ATOM     32  C   UNL     1      -4.495 -13.296  -0.332  0.00  0.00    +0.166 A 
ATOM     33  C   UNL     1      -3.369 -12.867   0.367  0.00  0.00    +0.168 A 
ATOM     34  C   UNL     1      -3.095 -11.513   0.469  0.00  0.00    +0.072 A 
ATOM     35  O   UNL     1      -2.709 -13.961   0.846  0.00  0.00    -0.453 OA
ATOM     36  C   UNL     1      -3.658 -15.042   0.783  0.00  0.00    +0.466 C 
ATOM     37  O   UNL     1      -4.538 -14.661  -0.291  0.00  0.00    -0.453 OA
ENDBRANCH  27  29
ENDBRANCH  24  25
ENDBRANCH  23  24
ENDBRANCH   4  23
TORSDOF 6
