REMARK  Name = ZINC22932106
REMARK  8 active torsions:
REMARK  status: ('A' for Active; 'I' for Inactive)
REMARK    1  A    between atoms: C_1  and  C_2
REMARK    2  A    between atoms: C_5  and  C_31
REMARK    3  A    between atoms: C_10  and  C_12
REMARK    4  A    between atoms: C_12  and  N_13
REMARK    5  A    between atoms: N_16  and  C_19
REMARK    6  A    between atoms: C_19  and  C_20
REMARK    7  A    between atoms: N_22  and  C_23
REMARK    8  A    between atoms: C_23  and  C_24
REMARK                            x       y       z     vdW  Elec       q    Type
REMARK                         _______ _______ _______ _____ _____    ______ ____
ROOT
ATOM      1  N   UNL     1       2.410   1.040  -0.015  0.00  0.00    -0.298 NA
ATOM      2  C   UNL     1       2.473   0.271   1.235  0.00  0.00    +0.066 C 
ATOM      3  C   UNL     1       3.611  -0.748   1.147  0.00  0.00    -0.063 C 
ATOM      4  N   UNL     1       4.877  -0.045   0.901  0.00  0.00    +0.387 N 
ATOM      5  C   UNL     1       4.814   0.724  -0.350  0.00  0.00    -0.063 C 
ATOM      6  C   UNL     1       3.676   1.744  -0.262  0.00  0.00    +0.066 C 
ATOM      7  H   UNL     1       5.039   0.663   1.727  0.00  0.00    -0.081 HD
ENDROOT
BRANCH   1   8
ATOM      8  C   UNL     1       1.280   1.980   0.001  0.00  0.00    +0.180 C 
BRANCH   8  16
ATOM      9  C   UNL     1      -1.449   3.432  -2.462  0.00  0.00    +0.009 C 
ATOM     10  C   UNL     1      -2.105   3.814  -1.134  0.00  0.00    +0.004 C 
ATOM     11  C   UNL     1      -3.481   3.151  -1.034  0.00  0.00    +0.009 C 
ATOM     12  C   UNL     1      -3.325   1.632  -1.141  0.00  0.00    +0.004 C 
ATOM     13  C   UNL     1      -2.461   1.129   0.020  0.00  0.00    +0.111 C 
ATOM     14  N   UNL     1      -1.191   1.867   0.018  0.00  0.00    -0.300 N 
ATOM     15  C   UNL     1      -1.227   3.335   0.032  0.00  0.00    +0.111 C 
ATOM     16  C   UNL     1      -0.014   1.209   0.009  0.00  0.00    +0.230 C 
ATOM     17  O   UNL     1       0.002  -0.004   0.002  0.00  0.00    -0.274 OA
ATOM     18  C   UNL     1      -4.704   0.972  -1.074  0.00  0.00    +0.009 C 
ENDBRANCH   8  16
ENDBRANCH   1   8
BRANCH   4  19
ATOM     19  C   UNL     1       6.006  -0.984   0.885  0.00  0.00    +0.019 C 
BRANCH  19  20
ATOM     20  C   UNL     1       6.189  -1.573   2.260  0.00  0.00    +0.197 C 
ATOM     21  O   UNL     1       5.451  -1.243   3.164  0.00  0.00    -0.278 OA
ATOM     22  N   UNL     1       7.173  -2.467   2.485  0.00  0.00    -0.313 N 
ATOM     23  H   UNL     1       7.842  -2.767   1.665  0.00  0.00    +0.149 HD
BRANCH  22  24
ATOM     24  C   UNL     1       7.350  -3.040   3.821  0.00  0.00    +0.141 C 
BRANCH  24  25
ATOM     25  C   UNL     1       8.509  -4.003   3.805  0.00  0.00    -0.012 A 
ATOM     26  C   UNL     1       8.275  -5.364   3.727  0.00  0.00    +0.006 A 
ATOM     27  C   UNL     1       9.338  -6.247   3.707  0.00  0.00    +0.000 A 
ATOM     28  C   UNL     1      10.634  -5.772   3.776  0.00  0.00    +0.001 A 
ATOM     29  C   UNL     1      10.869  -4.413   3.860  0.00  0.00    +0.020 A 
ATOM     30  C   UNL     1       9.806  -3.527   3.875  0.00  0.00    +0.046 A 
ATOM     31 CL   UNL     1      10.099  -1.820   3.981  0.00  0.00    -0.083 Cl
ENDBRANCH  24  25
ENDBRANCH  22  24
ENDBRANCH  19  20
ENDBRANCH   4  19
TORSDOF 6
