REMARK  Name = ZINC02328999
REMARK  8 active torsions:
REMARK  status: ('A' for Active; 'I' for Inactive)
REMARK    1  A    between atoms: C_1  and  O_2
REMARK    2  A    between atoms: O_2  and  C_3
REMARK    3  A    between atoms: C_6  and  C_9
REMARK    4  A    between atoms: C_9  and  N_10
REMARK    5  A    between atoms: C_14  and  C_15
REMARK    6  A    between atoms: C_16  and  N_26
REMARK    7  A    between atoms: N_26  and  C_27
REMARK    8  A    between atoms: C_27  and  C_28
REMARK                            x       y       z     vdW  Elec       q    Type
REMARK                         _______ _______ _______ _____ _____    ______ ____
ROOT
ATOM      1  C   UNL     1       1.878  -2.007   5.422  0.00  0.00    +0.081 A 
ATOM      2  C   UNL     1       2.888  -2.318   6.363  0.00  0.00    +0.134 A 
ATOM      3  N   UNL     1       2.550  -2.814   7.544  0.00  0.00    -0.214 NA
ATOM      4  C   UNL     1       1.277  -3.030   7.874  0.00  0.00    +0.142 A 
ATOM      5  C   UNL     1       0.979  -3.559   9.143  0.00  0.00    +0.047 A 
ATOM      6  C   UNL     1      -0.321  -3.784   9.489  0.00  0.00    +0.005 A 
ATOM      7  C   UNL     1      -1.341  -3.485   8.575  0.00  0.00    +0.018 A 
ATOM      8  C   UNL     1      -1.036  -2.977   7.360  0.00  0.00    +0.096 A 
ATOM      9  N   UNL     1       0.260  -2.749   7.005  0.00  0.00    -0.268 N 
ATOM     10  C   UNL     1       0.529  -2.236   5.785  0.00  0.00    +0.267 A 
ATOM     11  O   UNL     1      -0.373  -1.979   5.007  0.00  0.00    -0.267 OA
ENDROOT
BRANCH   1  16
ATOM     12  N   UNL     1       4.436  -2.597   1.470  0.00  0.00    -0.251 N 
ATOM     13  C   UNL     1       3.624  -1.754   2.085  0.00  0.00    +0.259 C 
ATOM     14  O   UNL     1       3.360  -0.670   1.596  0.00  0.00    -0.269 OA
ATOM     15  C   UNL     1       3.064  -2.151   3.332  0.00  0.00    +0.077 C 
ATOM     16  C   UNL     1       2.208  -1.476   4.153  0.00  0.00    +0.037 C 
ATOM     17  S   UNL     1       3.791  -3.772   3.533  0.00  0.00    -0.061 S 
ATOM     18  C   UNL     1       4.733  -3.798   2.015  0.00  0.00    +0.121 C 
ATOM     19  S   UNL     1       5.752  -5.031   1.406  0.00  0.00    -0.027 S 
BRANCH  12  20
ATOM     20  C   UNL     1       5.026  -2.223   0.183  0.00  0.00    +0.150 C 
BRANCH  20  24
ATOM     21  C   UNL     1       2.463  -3.504  -2.987  0.00  0.00    +0.120 A 
ATOM     22  C   UNL     1       2.303  -2.243  -2.430  0.00  0.00    +0.046 A 
ATOM     23  C   UNL     1       3.132  -1.832  -1.406  0.00  0.00    +0.009 A 
ATOM     24  C   UNL     1       4.122  -2.675  -0.935  0.00  0.00    -0.029 A 
ATOM     25  C   UNL     1       4.288  -3.929  -1.492  0.00  0.00    +0.009 A 
ATOM     26  C   UNL     1       3.457  -4.348  -2.513  0.00  0.00    +0.046 A 
BRANCH  21  28
ATOM     27  C   UNL     1       1.870  -5.222  -4.521  0.00  0.00    +0.277 C 
ATOM     28  O   UNL     1       1.647  -3.911  -3.995  0.00  0.00    -0.495 OA
ENDBRANCH  21  28
ENDBRANCH  20  24
ENDBRANCH  12  20
ENDBRANCH   1  16
BRANCH   2  29
ATOM     29  N   UNL     1       4.214  -2.106   6.053  0.00  0.00    -0.326 N 
ATOM     30  H   UNL     1       4.458  -1.743   5.187  0.00  0.00    +0.148 HD
BRANCH  29  31
ATOM     31  C   UNL     1       5.256  -2.430   7.031  0.00  0.00    +0.134 C 
BRANCH  31  32
ATOM     32  C   UNL     1       6.629  -2.103   6.440  0.00  0.00    +0.135 C 
ATOM     33  C   UNL     1       7.749  -2.552   7.404  0.00  0.00    +0.035 C 
ATOM     34  C   UNL     1       8.823  -1.448   7.272  0.00  0.00    +0.031 C 
ATOM     35  C   UNL     1       8.223  -0.463   6.244  0.00  0.00    +0.160 C 
ATOM     36  O   UNL     1       6.797  -0.673   6.319  0.00  0.00    -0.375 OA
ENDBRANCH  31  32
ENDBRANCH  29  31
ENDBRANCH   2  29
TORSDOF 7
