REMARK  Name = ZINC09886744
REMARK  10 active torsions:
REMARK  status: ('A' for Active; 'I' for Inactive)
REMARK    1  A    between atoms: C_1  and  C_2
REMARK    2  A    between atoms: C_2  and  C_3
REMARK    3  A    between atoms: C_2  and  C_4
REMARK    4  A    between atoms: C_4  and  C_6
REMARK    5  A    between atoms: C_4  and  N_26
REMARK    6  A    between atoms: N_8  and  N_9
REMARK    7  A    between atoms: C_10  and  C_11
REMARK    8  A    between atoms: C_13  and  N_23
REMARK    9  A    between atoms: C_16  and  N_17
REMARK   10  A    between atoms: C_27  and  C_29
REMARK                            x       y       z     vdW  Elec       q    Type
REMARK                         _______ _______ _______ _____ _____    ______ ____
ROOT
ATOM      1  C   UNL     1      -0.589   0.752  -1.715  0.00  0.00    +0.253 C 
ATOM      2  O   UNL     1      -1.062  -0.362  -1.797  0.00  0.00    -0.272 OA
ATOM      3  N   UNL     1       0.722   0.948  -1.963  0.00  0.00    -0.205 N 
ATOM      4  H   UNL     1       1.268   0.217  -2.292  0.00  0.00    +0.177 HD
ENDROOT
BRANCH   3   5
ATOM      5  N   UNL     1       1.294   2.209  -1.750  0.00  0.00    -0.188 NA
ATOM      6  C   UNL     1       2.576   2.368  -1.869  0.00  0.00    +0.140 C 
BRANCH   6   7
ATOM      7  C   UNL     1       3.457   1.193  -1.990  0.00  0.00    +0.018 A 
ATOM      8  C   UNL     1       3.068  -0.034  -1.448  0.00  0.00    +0.044 A 
ATOM      9  C   UNL     1       3.897  -1.131  -1.564  0.00  0.00    +0.127 A 
ATOM     10  C   UNL     1       5.113  -1.022  -2.218  0.00  0.00    +0.034 A 
ATOM     11  C   UNL     1       5.510   0.185  -2.760  0.00  0.00    +0.026 A 
ATOM     12  C   UNL     1       4.687   1.298  -2.656  0.00  0.00    +0.039 A 
BRANCH  12  13
ATOM     13  N   UNL     1       5.084   2.515  -3.207  0.00  0.00    -0.329 N 
ATOM     14  C   UNL     1       5.095   2.451  -4.673  0.00  0.00    +0.105 C 
ATOM     15  C   UNL     1       5.392   3.839  -5.244  0.00  0.00    +0.019 C 
ATOM     16  C   UNL     1       6.750   4.319  -4.726  0.00  0.00    +0.003 C 
ATOM     17  C   UNL     1       6.728   4.331  -3.195  0.00  0.00    +0.019 C 
ATOM     18  C   UNL     1       6.392   2.928  -2.683  0.00  0.00    +0.105 C 
ENDBRANCH  12  13
BRANCH   9  19
ATOM     19  N   UNL     1       3.484  -2.430  -0.989  0.00  0.00    +0.056 N 
ATOM     20  O   UNL     1       2.414  -2.529  -0.413  0.00  0.00    -0.126 OA
ATOM     21  O   UNL     1       4.213  -3.401  -1.090  0.00  0.00    -0.126 OA
ENDBRANCH   9  19
ENDBRANCH   6   7
ENDBRANCH   3   5
BRANCH   1  22
ATOM     22  C   UNL     1      -1.466   1.917  -1.335  0.00  0.00    +0.163 C 
BRANCH  22  23
ATOM     23  N   UNL     1      -2.849   1.634  -1.727  0.00  0.00    -0.300 N 
ATOM     24  C   UNL     1      -3.661   2.641  -2.107  0.00  0.00    +0.245 C 
ATOM     25  O   UNL     1      -3.221   3.769  -2.213  0.00  0.00    -0.270 OA
ATOM     26  H   UNL     1      -3.181   0.723  -1.714  0.00  0.00    +0.150 HD
BRANCH  24  27
ATOM     27  C   UNL     1      -5.086   2.373  -2.393  0.00  0.00    +0.038 A 
ATOM     28  C   UNL     1      -5.593   1.077  -2.277  0.00  0.00    +0.014 A 
ATOM     29  C   UNL     1      -6.924   0.834  -2.541  0.00  0.00    +0.022 A 
ATOM     30  C   UNL     1      -7.757   1.869  -2.931  0.00  0.00    +0.059 A 
ATOM     31  C   UNL     1      -7.259   3.157  -3.053  0.00  0.00    +0.060 A 
ATOM     32  C   UNL     1      -5.929   3.414  -2.787  0.00  0.00    +0.034 A 
ATOM     33 CL   UNL     1      -8.310   4.450  -3.542  0.00  0.00    -0.082 Cl
ATOM     34 CL   UNL     1      -9.430   1.554  -3.268  0.00  0.00    -0.082 Cl
ENDBRANCH  24  27
ENDBRANCH  22  23
BRANCH  22  36
ATOM     35  C   UNL     1       0.033   2.495   0.578  0.00  0.00    +0.009 C 
ATOM     36  C   UNL     1      -1.399   2.134   0.178  0.00  0.00    +0.012 C 
ATOM     37  C   UNL     1      -2.341   3.273   0.572  0.00  0.00    +0.009 C 
ENDBRANCH  22  36
ENDBRANCH   1  22
TORSDOF 8
