REMARK  Name = ZINC48951692
REMARK  7 active torsions:
REMARK  status: ('A' for Active; 'I' for Inactive)
REMARK    1  A    between atoms: C_1  and  C_2
REMARK    2  A    between atoms: C_2  and  N_3
REMARK    3  A    between atoms: N_3  and  C_4
REMARK    4  A    between atoms: C_4  and  C_5
REMARK    5  A    between atoms: C_5  and  C_7
REMARK    6  A    between atoms: C_5  and  C_8
REMARK    7  A    between atoms: C_10  and  C_12
REMARK                            x       y       z     vdW  Elec       q    Type
REMARK                         _______ _______ _______ _____ _____    ______ ____
ROOT
ATOM      1  N   UNL     1      -1.364  -0.529   0.011  0.00  0.00    -0.296 N 
ATOM      2  C   UNL     1      -1.958  -0.846   1.179  0.00  0.00    +0.253 C 
ATOM      3  O   UNL     1      -3.072  -1.336   1.182  0.00  0.00    -0.269 OA
ENDROOT
BRANCH   2   4
ATOM      4  C   UNL     1      -1.263  -0.601   2.445  0.00  0.00    +0.076 A 
ATOM      5  C   UNL     1      -1.639  -0.957   3.732  0.00  0.00    +0.037 A 
ATOM      6  C   UNL     1      -0.772  -0.586   4.731  0.00  0.00    +0.040 A 
ATOM      7  C   UNL     1       0.363   0.085   4.404  0.00  0.00    +0.070 A 
ATOM      8  S   UNL     1       0.291   0.225   2.731  0.00  0.00    -0.076 S 
ATOM      9 BR   UNL     1       1.718   0.711   5.565  0.00  0.00    -0.041 Br
ATOM     10 BR   UNL     1      -1.153  -1.002   6.536  0.00  0.00    -0.049 Br
ENDBRANCH   2   4
BRANCH   1  12
ATOM     11  C   UNL     1       0.034   1.471   0.171  0.00  0.00    +0.024 C 
ATOM     12  C   UNL     1       0.020  -0.049   0.000  0.00  0.00    +0.105 C 
ENDBRANCH   1  12
BRANCH   1  13
ATOM     13  C   UNL     1      -2.103  -0.664  -1.246  0.00  0.00    +0.126 C 
BRANCH  13  14
ATOM     14  C   UNL     1      -1.891  -2.069  -1.814  0.00  0.00    +0.106 C 
ATOM     15  C   UNL     1      -2.510  -3.100  -0.869  0.00  0.00    +0.025 C 
BRANCH  14  16
ATOM     16  C   UNL     1      -2.533  -2.166  -3.135  0.00  0.00    +0.067 C 
ATOM     17  N   UNL     1      -3.029  -2.242  -4.155  0.00  0.00    -0.196 NA
ENDBRANCH  14  16
ENDBRANCH  13  14
ENDBRANCH   1  13
TORSDOF 5
