REMARK  Name = ZINC38036950
REMARK  5 active torsions:
REMARK  status: ('A' for Active; 'I' for Inactive)
REMARK    1  A    between atoms: C_6  and  C_7
REMARK    2  A    between atoms: C_7  and  C_8
REMARK    3  A    between atoms: C_10  and  C_13
REMARK    4  A    between atoms: C_13  and  C_15
REMARK    5  A    between atoms: C_13  and  N_21
REMARK                            x       y       z     vdW  Elec       q    Type
REMARK                         _______ _______ _______ _____ _____    ______ ____
ROOT
ATOM      1  C   UNL     1      -1.738  -1.024  -1.407  0.00  0.00    +0.176 A 
ATOM      2  N   UNL     1      -2.521  -0.215  -2.130  0.00  0.00    -0.197 NA
ATOM      3  C   UNL     1      -2.716  -0.723  -3.316  0.00  0.00    +0.213 A 
ATOM      4  O   UNL     1      -2.057  -1.886  -3.387  0.00  0.00    -0.340 OA
ATOM      5  N   UNL     1      -1.420  -2.060  -2.130  0.00  0.00    -0.061 NA
ENDROOT
BRANCH   1   6
ATOM      6  C   UNL     1      -1.293  -0.775   0.011  0.00  0.00    +0.114 C 
BRANCH   6  12
ATOM      7  C   UNL     1      -0.017   1.378   0.010  0.00  0.00    +0.005 A 
ATOM      8  C   UNL     1       1.171   2.086   0.002  0.00  0.00    +0.020 A 
ATOM      9  C   UNL     1       2.378   1.410  -0.013  0.00  0.00    +0.041 A 
ATOM     10  C   UNL     1       2.396   0.027  -0.021  0.00  0.00    +0.020 A 
ATOM     11  C   UNL     1       1.208  -0.679  -0.013  0.00  0.00    +0.005 A 
ATOM     12  C   UNL     1       0.002  -0.004   0.002  0.00  0.00    -0.040 A 
ATOM     13 CL   UNL     1       3.870   2.298  -0.023  0.00  0.00    -0.084 Cl
ENDBRANCH   6  12
ENDBRANCH   1   6
BRANCH   3  14
ATOM     14  C   UNL     1      -3.542  -0.107  -4.415  0.00  0.00    +0.019 C 
BRANCH  14  15
ATOM     15  C   UNL     1      -2.615   0.481  -5.481  0.00  0.00    -0.017 C 
ATOM     16  C   UNL     1      -1.827  -0.648  -6.150  0.00  0.00    +0.002 C 
ATOM     17  C   UNL     1      -0.900  -0.060  -7.216  0.00  0.00    +0.000 C 
ATOM     18  C   UNL     1      -1.733   0.673  -8.269  0.00  0.00    +0.000 C 
ATOM     19  C   UNL     1      -2.521   1.802  -7.600  0.00  0.00    +0.000 C 
ATOM     20  C   UNL     1      -3.448   1.214  -6.534  0.00  0.00    +0.002 C 
ENDBRANCH  14  15
BRANCH  14  21
ATOM     21  N   UNL     1      -4.395  -1.137  -5.022  0.00  0.00    +0.386 N 
ATOM     22  H   UNL     1      -4.948  -0.724  -5.759  0.00  0.00    -0.089 HD
ATOM     23  H   UNL     1      -3.817  -1.869  -5.406  0.00  0.00    -0.089 HD
ATOM     24  H   UNL     1      -5.007  -1.524  -4.319  0.00  0.00    -0.089 HD
ENDBRANCH  14  21
ENDBRANCH   3  14
TORSDOF 5
