REMARK  Name = ZINC43726260
REMARK  4 active torsions:
REMARK  status: ('A' for Active; 'I' for Inactive)
REMARK    1  A    between atoms: C_4  and  C_7
REMARK    2  A    between atoms: C_7  and  C_9
REMARK    3  A    between atoms: C_11  and  C_34
REMARK    4  A    between atoms: C_34  and  C_36
REMARK                            x       y       z     vdW  Elec       q    Type
REMARK                         _______ _______ _______ _____ _____    ______ ____
ROOT
ATOM      1  C   UNL     1       3.573  -2.124  -0.047  0.00  0.00    +0.157 C 
ATOM      2  C   UNL     1       3.388  -2.734   1.367  0.00  0.00    +0.113 C 
ATOM      3  C   UNL     1       4.843  -2.790   1.881  0.00  0.00    +0.108 C 
ATOM      4  C   UNL     1       5.009  -3.783   2.977  0.00  0.00    -0.008 A 
ATOM      5  C   UNL     1       4.792  -5.143   3.035  0.00  0.00    +0.006 A 
ATOM      6  C   UNL     1       5.054  -5.776   4.245  0.00  0.00    +0.000 A 
ATOM      7  C   UNL     1       5.512  -5.072   5.340  0.00  0.00    +0.002 A 
ATOM      8  C   UNL     1       5.734  -3.704   5.292  0.00  0.00    +0.023 A 
ATOM      9  C   UNL     1       5.475  -3.056   4.083  0.00  0.00    +0.038 A 
ATOM     10  N   UNL     1       5.607  -1.717   3.758  0.00  0.00    -0.284 N 
ATOM     11  C   UNL     1       5.256  -1.470   2.476  0.00  0.00    +0.231 C 
ATOM     12  O   UNL     1       5.271  -0.395   1.914  0.00  0.00    -0.274 OA
ATOM     13  C   UNL     1       5.646  -3.134   0.631  0.00  0.00    +0.117 C 
ATOM     14  N   UNL     1       4.883  -2.580  -0.514  0.00  0.00    -0.311 N 
ATOM     15  C   UNL     1       5.452  -2.484  -1.779  0.00  0.00    +0.038 A 
ATOM     16  C   UNL     1       4.744  -2.600  -2.953  0.00  0.00    +0.024 A 
ATOM     17  C   UNL     1       5.410  -2.507  -4.164  0.00  0.00    +0.002 A 
ATOM     18  C   UNL     1       6.779  -2.299  -4.196  0.00  0.00    +0.001 A 
ATOM     19  C   UNL     1       7.500  -2.173  -3.024  0.00  0.00    +0.010 A 
ATOM     20  C   UNL     1       6.845  -2.257  -1.802  0.00  0.00    -0.004 A 
ATOM     21  C   UNL     1       7.556  -2.090  -0.519  0.00  0.00    +0.007 C 
ATOM     22  C   UNL     1       7.014  -2.508   0.638  0.00  0.00    -0.003 C 
ATOM     23  H   UNL     1       5.915  -1.036   4.377  0.00  0.00    +0.155 HD
ENDROOT
BRANCH   1  24
ATOM     24  C   UNL     1       3.543  -0.620   0.028  0.00  0.00    +0.184 C 
ATOM     25  O   UNL     1       4.575   0.012  -0.055  0.00  0.00    -0.290 OA
BRANCH  24  29
ATOM     26  C   UNL     1      -0.149   1.406   0.528  0.00  0.00    +0.000 A 
ATOM     27  C   UNL     1       1.026   2.131   0.435  0.00  0.00    +0.001 A 
ATOM     28  C   UNL     1       2.231   1.480   0.272  0.00  0.00    +0.011 A 
ATOM     29  C   UNL     1       2.262   0.083   0.202  0.00  0.00    +0.019 A 
ATOM     30  C   UNL     1       1.070  -0.642   0.298  0.00  0.00    +0.011 A 
ATOM     31  C   UNL     1      -0.126   0.024   0.460  0.00  0.00    +0.001 A 
ENDBRANCH  24  29
ENDBRANCH   1  24
BRANCH   2  32
ATOM     32  C   UNL     1       2.791  -4.116   1.285  0.00  0.00    +0.205 C 
ATOM     33  O   UNL     1       3.029  -4.824   0.327  0.00  0.00    -0.288 OA
BRANCH  32  34
ATOM     34  C   UNL     1       1.955  -4.587   2.322  0.00  0.00    +0.170 A 
ATOM     35  C   UNL     1       1.349  -5.827   2.379  0.00  0.00    +0.053 A 
ATOM     36  C   UNL     1       0.620  -5.859   3.575  0.00  0.00    +0.042 A 
ATOM     37  C   UNL     1       0.804  -4.668   4.189  0.00  0.00    +0.196 A 
ATOM     38  O   UNL     1       1.610  -3.909   3.437  0.00  0.00    -0.460 OA
ENDBRANCH  32  34
ENDBRANCH   2  32
TORSDOF 4
