REMARK  Name = ZINC63600732
REMARK  7 active torsions:
REMARK  status: ('A' for Active; 'I' for Inactive)
REMARK    1  A    between atoms: C_1  and  C_2
REMARK    2  A    between atoms: C_7  and  C_12
REMARK    3  A    between atoms: C_12  and  C_13
REMARK    4  A    between atoms: C_13  and  C_14
REMARK    5  A    between atoms: C_17  and  N_20
REMARK    6  A    between atoms: C_21  and  C_23
REMARK    7  A    between atoms: C_26  and  C_29
REMARK                            x       y       z     vdW  Elec       q    Type
REMARK                         _______ _______ _______ _____ _____    ______ ____
ROOT
ATOM      1  C   UNL     1      -2.316  -7.329   1.798  0.00  0.00    -0.047 A 
ATOM      2  C   UNL     1      -2.255  -8.190   2.879  0.00  0.00    +0.005 A 
ATOM      3  C   UNL     1      -3.377  -8.898   3.263  0.00  0.00    +0.023 A 
ATOM      4  C   UNL     1      -4.566  -8.745   2.564  0.00  0.00    +0.033 A 
ATOM      5  C   UNL     1      -4.625  -7.879   1.480  0.00  0.00    +0.023 A 
ATOM      6  C   UNL     1      -3.501  -7.170   1.103  0.00  0.00    +0.005 A 
ENDROOT
BRANCH   4   7
ATOM      7  N   UNL     1      -5.704  -9.461   2.951  0.00  0.00    -0.283 N 
ATOM      8  C   UNL     1      -5.914  -9.742   4.252  0.00  0.00    +0.248 C 
ATOM      9  O   UNL     1      -5.169  -9.292   5.097  0.00  0.00    -0.273 OA
ATOM     10  H   UNL     1      -6.342  -9.756   2.282  0.00  0.00    +0.155 HD
BRANCH   8  11
ATOM     11  C   UNL     1      -7.074 -10.614   4.658  0.00  0.00    +0.239 C 
ATOM     12  C   UNL     1      -8.355  -9.801   4.733  0.00  0.00    +0.041 C 
ATOM     13  C   UNL     1      -8.729  -9.908   6.026  0.00  0.00    +0.098 C 
ATOM     14  N   UNL     1      -7.840 -10.673   6.714  0.00  0.00    -0.153 NA
ATOM     15  N   UNL     1      -6.900 -11.103   6.035  0.00  0.00    -0.170 NA
BRANCH  13  16
ATOM     16  C   UNL     1      -9.934  -9.282   6.610  0.00  0.00    +0.039 A 
ATOM     17  C   UNL     1     -10.390  -9.328   7.901  0.00  0.00    +0.018 A 
ATOM     18  C   UNL     1     -11.552  -8.658   8.216  0.00  0.00    +0.008 A 
ATOM     19  C   UNL     1     -12.207  -7.975   7.243  0.00  0.00    +0.046 A 
ATOM     20  S   UNL     1     -11.168  -8.262   5.820  0.00  0.00    -0.095 S 
ENDBRANCH  13  16
ENDBRANCH   8  11
ENDBRANCH   4   7
BRANCH   1  21
ATOM     21  C   UNL     1      -1.090  -6.557   1.382  0.00  0.00    +0.039 C 
BRANCH  21  22
ATOM     22  C   UNL     1      -1.051  -5.221   2.126  0.00  0.00    +0.051 C 
BRANCH  22  29
ATOM     23  C   UNL     1       0.282   1.540   0.871  0.00  0.00    +0.044 C 
ATOM     24  C   UNL     1       0.229   0.045   0.686  0.00  0.00    -0.048 A 
ATOM     25  C   UNL     1       0.110  -0.470  -0.617  0.00  0.00    +0.005 A 
ATOM     26  C   UNL     1       0.054  -1.793  -0.873  0.00  0.00    +0.027 A 
ATOM     27  C   UNL     1       0.119  -2.750   0.239  0.00  0.00    +0.060 A 
ATOM     28  N   UNL     1       0.089  -4.051   0.291  0.00  0.00    -0.363 N 
ATOM     29  C   UNL     1       0.193  -4.438   1.703  0.00  0.00    +0.174 C 
ATOM     30  N   UNL     1       0.289  -3.189   2.469  0.00  0.00    -0.363 N 
ATOM     31  C   UNL     1       0.246  -2.205   1.618  0.00  0.00    +0.060 A 
ATOM     32  C   UNL     1       0.302  -0.745   1.776  0.00  0.00    +0.030 A 
ATOM     33  H   UNL     1       0.011  -4.653  -0.466  0.00  0.00    +0.162 HD
ATOM     34  H   UNL     1       0.369  -3.112   3.433  0.00  0.00    +0.162 HD
ENDBRANCH  22  29
ENDBRANCH  21  22
ENDBRANCH   1  21
TORSDOF 6
