REMARK  Name = ZINC64640338
REMARK  4 active torsions:
REMARK  status: ('A' for Active; 'I' for Inactive)
REMARK    1  A    between atoms: C_6  and  C_11
REMARK    2  A    between atoms: C_11  and  N_12
REMARK    3  A    between atoms: N_12  and  C_13
REMARK    4  A    between atoms: N_24  and  C_25
REMARK                            x       y       z     vdW  Elec       q    Type
REMARK                         _______ _______ _______ _____ _____    ______ ____
ROOT
ATOM      1  C   UNL     1       5.781  -3.282   2.199  0.00  0.00    -0.061 C 
ATOM      2  C   UNL     1       5.715  -4.769   1.795  0.00  0.00    -0.015 C 
ATOM      3  C   UNL     1       6.284  -5.678   2.880  0.00  0.00    +0.000 C 
ATOM      4  C   UNL     1       7.702  -5.256   3.305  0.00  0.00    +0.025 C 
ATOM      5  C   UNL     1       7.614  -3.816   3.750  0.00  0.00    +0.105 C 
ATOM      6  C   UNL     1       7.234  -2.986   2.490  0.00  0.00    +0.040 C 
ATOM      7  C   UNL     1       7.654  -1.617   2.900  0.00  0.00    +0.107 C 
ATOM      8  N   UNL     1       8.535  -1.742   3.837  0.00  0.00    -0.192 NA
ATOM      9  N   UNL     1       8.812  -3.102   4.162  0.00  0.00    -0.221 N 
ENDROOT
BRANCH   9  10
ATOM     10  C   UNL     1       9.965  -3.632   4.744  0.00  0.00    +0.057 A 
ATOM     11  C   UNL     1      11.217  -3.255   4.274  0.00  0.00    +0.063 A 
ATOM     12  C   UNL     1      12.358  -3.781   4.852  0.00  0.00    +0.128 A 
ATOM     13  C   UNL     1      12.254  -4.682   5.898  0.00  0.00    +0.076 A 
ATOM     14  C   UNL     1      11.007  -5.059   6.368  0.00  0.00    +0.128 A 
ATOM     15  C   UNL     1       9.863  -4.532   5.797  0.00  0.00    +0.063 A 
ATOM     16  F   UNL     1      10.909  -5.939   7.388  0.00  0.00    -0.205 F 
ATOM     17  F   UNL     1      13.576  -3.415   4.395  0.00  0.00    -0.205 F 
ENDBRANCH   9  10
BRANCH   1  18
ATOM     18  N   UNL     1       5.305  -2.438   1.095  0.00  0.00    +0.383 N 
ATOM     19  H   UNL     1       5.815  -2.664   0.255  0.00  0.00    -0.085 HD
ATOM     20  H   UNL     1       5.452  -1.467   1.327  0.00  0.00    -0.085 HD
BRANCH  18  21
ATOM     21  C   UNL     1       3.872  -2.677   0.879  0.00  0.00    -0.053 C 
BRANCH  21  27
ATOM     22  C   UNL     1      -0.072   1.291   0.069  0.00  0.00    +0.001 A 
ATOM     23  C   UNL     1       1.035   2.124   0.283  0.00  0.00    +0.002 A 
ATOM     24  C   UNL     1       2.304   1.665   0.278  0.00  0.00    +0.026 A 
ATOM     25  C   UNL     1       2.569   0.286   0.050  0.00  0.00    +0.043 A 
ATOM     26  N   UNL     1       3.691  -0.390  -0.003  0.00  0.00    -0.380 N 
ATOM     27  C   UNL     1       3.376  -1.798  -0.271  0.00  0.00    +0.086 C 
ATOM     28  C   UNL     1       1.869  -1.874  -0.374  0.00  0.00    +0.005 C 
ATOM     29  C   UNL     1       1.416  -0.614  -0.178  0.00  0.00    -0.004 A 
ATOM     30  C   UNL     1       0.068  -0.035  -0.157  0.00  0.00    +0.010 A 
ATOM     31  H   UNL     1       4.580  -0.022   0.116  0.00  0.00    +0.160 HD
ENDBRANCH  21  27
ENDBRANCH  18  21
ENDBRANCH   1  18
TORSDOF 4
