REMARK  Name = ZINC39362600
REMARK  10 active torsions:
REMARK  status: ('A' for Active; 'I' for Inactive)
REMARK    1  A    between atoms: C_1  and  C_2
REMARK    2  A    between atoms: C_2  and  O_3
REMARK    3  A    between atoms: O_3  and  C_4
REMARK    4  A    between atoms: C_7  and  N_10
REMARK    5  A    between atoms: C_11  and  C_25
REMARK    6  A    between atoms: C_15  and  S_16
REMARK    7  A    between atoms: S_16  and  C_17
REMARK    8  A    between atoms: C_17  and  C_18
REMARK    9  A    between atoms: C_23  and  C_24
REMARK   10  A    between atoms: C_25  and  C_26
REMARK                            x       y       z     vdW  Elec       q    Type
REMARK                         _______ _______ _______ _____ _____    ______ ____
ROOT
ATOM      1  N   UNL     1      -1.988  -5.989  -0.012  0.00  0.00    -0.258 N 
ATOM      2  C   UNL     1      -3.260  -6.725   0.088  0.00  0.00    +0.187 C 
ATOM      3  N   UNL     1      -2.855  -8.140   0.031  0.00  0.00    -0.246 N 
ATOM      4  N   UNL     1      -1.460  -8.142  -0.091  0.00  0.00    -0.162 NA
ATOM      5  C   UNL     1      -0.986  -6.942  -0.119  0.00  0.00    +0.180 C 
ATOM      6  H   UNL     1      -3.437  -8.915   0.070  0.00  0.00    +0.170 HD
ENDROOT
BRANCH   1  10
ATOM      7  C   UNL     1      -1.498  -1.849   0.007  0.00  0.00    +0.121 A 
ATOM      8  C   UNL     1      -1.008  -2.610   1.058  0.00  0.00    +0.047 A 
ATOM      9  C   UNL     1      -1.170  -3.981   1.053  0.00  0.00    +0.027 A 
ATOM     10  C   UNL     1      -1.824  -4.599  -0.005  0.00  0.00    +0.038 A 
ATOM     11  C   UNL     1      -2.314  -3.836  -1.057  0.00  0.00    +0.027 A 
ATOM     12  C   UNL     1      -2.156  -2.465  -1.048  0.00  0.00    +0.047 A 
BRANCH   7  13
ATOM     13  O   UNL     1      -1.337  -0.499   0.013  0.00  0.00    -0.492 OA
BRANCH  13  15
ATOM     14  C   UNL     1      -0.567   1.586   0.961  0.00  0.00    +0.048 C 
ATOM     15  C   UNL     1      -0.650   0.068   1.130  0.00  0.00    +0.225 C 
ENDBRANCH  13  15
ENDBRANCH   7  13
ENDBRANCH   1  10
BRANCH   5  16
ATOM     16  S   UNL     1       0.727  -6.560  -0.270  0.00  0.00    -0.084 S 
BRANCH  16  17
ATOM     17  C   UNL     1       1.531  -8.183  -0.370  0.00  0.00    +0.112 C 
BRANCH  17  18
ATOM     18  C   UNL     1       3.021  -7.999  -0.504  0.00  0.00    -0.034 A 
ATOM     19  C   UNL     1       3.594  -7.889  -1.757  0.00  0.00    +0.005 A 
ATOM     20  C   UNL     1       4.960  -7.720  -1.880  0.00  0.00    +0.000 A 
ATOM     21  C   UNL     1       5.754  -7.659  -0.750  0.00  0.00    +0.000 A 
ATOM     22  C   UNL     1       5.181  -7.768   0.503  0.00  0.00    +0.003 A 
ATOM     23  C   UNL     1       3.813  -7.933   0.626  0.00  0.00    -0.046 A 
ATOM     24  C   UNL     1       3.188  -8.046   1.993  0.00  0.00    +0.044 C 
ENDBRANCH  17  18
ENDBRANCH  16  17
ENDBRANCH   5  16
BRANCH   2  25
ATOM     25  C   UNL     1      -3.957  -6.417   1.414  0.00  0.00    +0.097 C 
BRANCH  25  26
ATOM     26  C   UNL     1      -5.253  -7.181   1.491  0.00  0.00    +0.029 A 
ATOM     27  N   UNL     1      -6.388  -6.670   0.922  0.00  0.00    -0.311 N 
ATOM     28  C   UNL     1      -7.550  -7.345   0.984  0.00  0.00    +0.327 A 
ATOM     29  O   UNL     1      -8.546  -6.872   0.471  0.00  0.00    -0.247 OA
ATOM     30  N   UNL     1      -7.625  -8.537   1.605  0.00  0.00    -0.275 N 
ATOM     31  C   UNL     1      -6.530  -9.075   2.179  0.00  0.00    +0.254 A 
ATOM     32  O   UNL     1      -6.597 -10.153   2.741  0.00  0.00    -0.268 OA
ATOM     33  C   UNL     1      -5.299  -8.377   2.116  0.00  0.00    +0.091 A 
ATOM     34  H   UNL     1      -8.471  -9.010   1.641  0.00  0.00    +0.173 HD
ATOM     35  H   UNL     1      -6.354  -5.813   0.469  0.00  0.00    +0.170 HD
ENDBRANCH  25  26
ENDBRANCH   2  25
TORSDOF 8
