REMARK  Name = ZINC16789754
REMARK  3 active torsions:
REMARK  status: ('A' for Active; 'I' for Inactive)
REMARK    1  A    between atoms: C_3  and  C_6
REMARK    2  A    between atoms: C_9  and  C_12
REMARK    3  A    between atoms: C_17  and  O_18
REMARK                            x       y       z     vdW  Elec       q    Type
REMARK                         _______ _______ _______ _____ _____    ______ ____
ROOT
ATOM      1  C   UNL     1      -1.860   3.869   1.584  0.00  0.00    +0.103 C 
ATOM      2  N   UNL     1      -1.501   4.401   0.465  0.00  0.00    -0.187 NA
ATOM      3  N   UNL     1      -1.169   3.477  -0.524  0.00  0.00    -0.261 N 
ATOM      4  C   UNL     1      -1.332   2.119   0.020  0.00  0.00    +0.129 C 
ATOM      5  C   UNL     1      -1.806   2.362   1.466  0.00  0.00    +0.089 C 
ATOM      6  H   UNL     1      -0.878   3.693  -1.424  0.00  0.00    +0.169 HD
ENDROOT
BRANCH   4   7
ATOM      7  C   UNL     1      -0.017   1.383   0.010  0.00  0.00    +0.017 A 
ATOM      8  C   UNL     1       1.171   2.089   0.002  0.00  0.00    +0.024 A 
ATOM      9  C   UNL     1       2.378   1.414  -0.013  0.00  0.00    +0.018 A 
ATOM     10  C   UNL     1       2.399   0.030  -0.021  0.00  0.00    +0.019 A 
ATOM     11  C   UNL     1       1.214  -0.679  -0.013  0.00  0.00    +0.047 A 
ATOM     12  C   UNL     1       0.002  -0.004   0.002  0.00  0.00    +0.122 A 
ATOM     13 BR   UNL     1       4.002   2.383  -0.025  0.00  0.00    -0.050 Br
BRANCH  12  14
ATOM     14  O   UNL     1      -1.165  -0.701   0.009  0.00  0.00    -0.506 OA
ATOM     15  H   UNL     1      -1.511  -0.897  -0.872  0.00  0.00    +0.292 HD
ENDBRANCH  12  14
ENDBRANCH   4   7
BRANCH   1  18
ATOM     16  C   UNL     1      -2.746   6.239   4.220  0.00  0.00    +0.042 A 
ATOM     17  C   UNL     1      -2.310   5.968   2.909  0.00  0.00    +0.051 A 
ATOM     18  C   UNL     1      -2.260   4.610   2.785  0.00  0.00    +0.150 A 
ATOM     19  O   UNL     1      -2.638   4.069   3.960  0.00  0.00    -0.462 OA
ATOM     20  C   UNL     1      -2.932   5.051   4.829  0.00  0.00    +0.196 A 
ENDBRANCH   1  18
TORSDOF 3
