REMARK  Name = ZINC63655006
REMARK  17 active torsions:
REMARK  status: ('A' for Active; 'I' for Inactive)
REMARK    1  A    between atoms: C_1  and  C_2
REMARK    2  A    between atoms: C_4  and  C_12
REMARK    3  A    between atoms: C_12  and  C_13
REMARK    4  A    between atoms: C_13  and  N_14
REMARK    5  A    between atoms: N_14  and  C_15
REMARK    6  A    between atoms: N_14  and  C_28
REMARK    7  A    between atoms: C_15  and  C_16
REMARK    8  A    between atoms: C_18  and  O_26
REMARK    9  A    between atoms: C_19  and  O_24
REMARK   10  A    between atoms: C_20  and  O_22
REMARK   11  A    between atoms: O_22  and  C_23
REMARK   12  A    between atoms: O_24  and  C_25
REMARK   13  A    between atoms: O_26  and  C_27
REMARK   14  A    between atoms: C_28  and  N_30
REMARK   15  A    between atoms: N_30  and  C_31
REMARK   16  A    between atoms: C_36  and  O_37
REMARK   17  A    between atoms: O_37  and  C_38
REMARK                            x       y       z     vdW  Elec       q    Type
REMARK                         _______ _______ _______ _____ _____    ______ ____
ROOT
ATOM      1  N   UNL     1      -5.072  -1.015  -1.326  0.00  0.00    -0.308 N 
ENDROOT
BRANCH   1   2
ATOM      2  C   UNL     1      -5.890   0.044  -1.167  0.00  0.00    +0.138 C 
ATOM      3  S   UNL     1      -7.403   0.084  -1.967  0.00  0.00    -0.018 S 
BRANCH   2   4
ATOM      4  N   UNL     1      -5.517   1.072  -0.380  0.00  0.00    -0.294 N 
ATOM      5  H   UNL     1      -4.697   1.016   0.136  0.00  0.00    +0.154 HD
BRANCH   4   6
ATOM      6  C   UNL     1      -6.313   2.223  -0.304  0.00  0.00    +0.075 A 
ATOM      7  C   UNL     1      -6.841   2.779  -1.460  0.00  0.00    +0.027 A 
ATOM      8  C   UNL     1      -7.627   3.914  -1.383  0.00  0.00    +0.002 A 
ATOM      9  C   UNL     1      -7.889   4.496  -0.157  0.00  0.00    +0.004 A 
ATOM     10  C   UNL     1      -7.366   3.947   0.999  0.00  0.00    +0.047 A 
ATOM     11  C   UNL     1      -6.582   2.807   0.931  0.00  0.00    +0.141 A 
BRANCH  11  12
ATOM     12  O   UNL     1      -6.072   2.262   2.068  0.00  0.00    -0.493 OA
ATOM     13  C   UNL     1      -6.389   2.914   3.299  0.00  0.00    +0.277 C 
ENDBRANCH  11  12
ENDBRANCH   4   6
ENDBRANCH   2   4
ENDBRANCH   1   2
BRANCH   1  14
ATOM     14  C   UNL     1      -3.777  -1.049  -0.641  0.00  0.00    +0.111 C 
BRANCH  14  15
ATOM     15  C   UNL     1      -2.710  -0.415  -1.536  0.00  0.00    +0.052 C 
BRANCH  15  18
ATOM     16  C   UNL     1      -0.151   1.573  -1.623  0.00  0.00    +0.035 C 
ATOM     17  C   UNL     1      -0.058   0.069  -1.357  0.00  0.00    +0.103 C 
ATOM     18  C   UNL     1      -1.378  -0.451  -0.832  0.00  0.00    -0.037 C 
ATOM     19  C   UNL     1      -1.121  -0.953   0.397  0.00  0.00    -0.001 A 
ATOM     20  C   UNL     1      -1.972  -1.592   1.408  0.00  0.00    +0.010 A 
ATOM     21  C   UNL     1      -1.415  -2.001   2.571  0.00  0.00    +0.001 A 
ATOM     22  C   UNL     1      -0.049  -1.829   2.834  0.00  0.00    +0.002 A 
ATOM     23  C   UNL     1       0.796  -1.250   1.955  0.00  0.00    +0.026 A 
ATOM     24  C   UNL     1       0.318  -0.783   0.700  0.00  0.00    +0.043 A 
ATOM     25  N   UNL     1       0.929  -0.199  -0.305  0.00  0.00    -0.378 N 
ATOM     26  H   UNL     1       1.873   0.020  -0.345  0.00  0.00    +0.160 HD
ENDBRANCH  15  18
ENDBRANCH  14  15
ENDBRANCH   1  14
BRANCH   1  27
ATOM     27  C   UNL     1      -5.477  -2.132  -2.182  0.00  0.00    +0.142 C 
BRANCH  27  28
ATOM     28  C   UNL     1      -6.223  -3.151  -1.359  0.00  0.00    -0.023 A 
ATOM     29  C   UNL     1      -5.532  -4.173  -0.737  0.00  0.00    +0.054 A 
ATOM     30  C   UNL     1      -6.215  -5.113   0.021  0.00  0.00    +0.165 A 
ATOM     31  C   UNL     1      -7.595  -5.025   0.154  0.00  0.00    +0.204 A 
ATOM     32  C   UNL     1      -8.286  -3.995  -0.474  0.00  0.00    +0.165 A 
ATOM     33  C   UNL     1      -7.596  -3.057  -1.225  0.00  0.00    +0.054 A 
BRANCH  32  34
ATOM     34  O   UNL     1      -9.637  -3.905  -0.347  0.00  0.00    -0.491 OA
ATOM     35  C   UNL     1     -10.281  -2.821  -1.019  0.00  0.00    +0.277 C 
ENDBRANCH  32  34
BRANCH  31  36
ATOM     36  O   UNL     1      -8.269  -5.946   0.896  0.00  0.00    -0.488 OA
ATOM     37  C   UNL     1      -8.444  -5.657   2.285  0.00  0.00    +0.277 C 
ENDBRANCH  31  36
BRANCH  30  38
ATOM     38  O   UNL     1      -5.534  -6.119   0.633  0.00  0.00    -0.491 OA
ATOM     39  C   UNL     1      -4.117  -6.147   0.452  0.00  0.00    +0.277 C 
ENDBRANCH  30  38
ENDBRANCH  27  28
ENDBRANCH   1  27
TORSDOF 12
