REMARK  Name = ZINC38659619
REMARK  15 active torsions:
REMARK  status: ('A' for Active; 'I' for Inactive)
REMARK    1  A    between atoms: C_1  and  C_2
REMARK    2  A    between atoms: C_2  and  O_3
REMARK    3  A    between atoms: O_3  and  C_4
REMARK    4  A    between atoms: C_7  and  C_12
REMARK    5  A    between atoms: C_9  and  O_10
REMARK    6  A    between atoms: O_10  and  C_11
REMARK    7  A    between atoms: C_17  and  O_26
REMARK    8  A    between atoms: C_21  and  N_25
REMARK    9  A    between atoms: C_22  and  C_23
REMARK   10  A    between atoms: O_26  and  C_27
REMARK   11  A    between atoms: C_27  and  C_29
REMARK   12  A    between atoms: C_29  and  O_30
REMARK   13  A    between atoms: O_30  and  C_31
REMARK   14  A    between atoms: C_34  and  C_38
REMARK   15  A    between atoms: C_35  and  C_37
REMARK                            x       y       z     vdW  Elec       q    Type
REMARK                         _______ _______ _______ _____ _____    ______ ____
ROOT
ATOM      1  C   UNL     1       1.137  -6.061   1.696  0.00  0.00    +0.098 C 
ATOM      2  C   UNL     1      -0.239  -6.665   1.784  0.00  0.00    +0.008 A 
ATOM      3  C   UNL     1      -0.919  -6.638   2.990  0.00  0.00    +0.012 A 
ATOM      4  C   UNL     1      -2.182  -7.188   3.089  0.00  0.00    +0.047 A 
ATOM      5  C   UNL     1      -2.774  -7.771   1.978  0.00  0.00    +0.135 A 
ATOM      6  C   UNL     1      -2.096  -7.800   0.770  0.00  0.00    +0.093 A 
ATOM      7  C   UNL     1      -0.826  -7.246   0.671  0.00  0.00    +0.138 A 
ATOM      8  O   UNL     1      -0.176  -7.283  -0.518  0.00  0.00    -0.441 OA
ATOM      9  C   UNL     1       1.157  -7.120  -0.558  0.00  0.00    +0.199 C 
ATOM     10  C   UNL     1       1.836  -6.547   0.459  0.00  0.00    +0.098 C 
ENDROOT
BRANCH   1  14
ATOM     11  C   UNL     1       0.800  -1.800   1.548  0.00  0.00    +0.162 A 
ATOM     12  C   UNL     1       0.214  -2.579   0.563  0.00  0.00    +0.050 A 
ATOM     13  C   UNL     1       0.325  -3.956   0.614  0.00  0.00    +0.008 A 
ATOM     14  C   UNL     1       1.019  -4.559   1.646  0.00  0.00    -0.031 A 
ATOM     15  C   UNL     1       1.606  -3.788   2.632  0.00  0.00    +0.054 A 
ATOM     16  C   UNL     1       1.504  -2.407   2.584  0.00  0.00    +0.162 A 
BRANCH  16  17
ATOM     17  O   UNL     1       2.086  -1.646   3.550  0.00  0.00    -0.491 OA
ATOM     18  C   UNL     1       2.792  -2.338   4.582  0.00  0.00    +0.277 C 
ENDBRANCH  16  17
BRANCH  11  19
ATOM     19  O   UNL     1       0.693  -0.445   1.499  0.00  0.00    -0.489 OA
BRANCH  19  21
ATOM     20  C   UNL     1      -0.056   1.634   0.522  0.00  0.00    +0.048 C 
ATOM     21  C   UNL     1      -0.044   0.109   0.407  0.00  0.00    +0.226 C 
ENDBRANCH  19  21
ENDBRANCH  11  19
ENDBRANCH   1  14
BRANCH   9  22
ATOM     22  N   UNL     1       1.847  -7.548  -1.665  0.00  0.00    -0.328 N 
ATOM     23  H   UNL     1       1.372  -7.961  -2.403  0.00  0.00    +0.145 HD
ATOM     24  H   UNL     1       2.810  -7.438  -1.709  0.00  0.00    +0.145 HD
ENDBRANCH   9  22
BRANCH  10  25
ATOM     25  C   UNL     1       3.257  -6.401   0.352  0.00  0.00    +0.101 C 
ATOM     26  N   UNL     1       4.384  -6.286   0.268  0.00  0.00    -0.191 NA
ENDBRANCH  10  25
BRANCH   5  27
ATOM     27  O   UNL     1      -4.016  -8.313   2.074  0.00  0.00    -0.423 OA
BRANCH  27  28
ATOM     28  C   UNL     1      -4.130  -9.648   1.987  0.00  0.00    +0.350 C 
ATOM     29  O   UNL     1      -3.139 -10.337   1.932  0.00  0.00    -0.247 OA
BRANCH  28  30
ATOM     30  C   UNL     1      -5.494 -10.288   1.958  0.00  0.00    +0.349 C 
BRANCH  30  31
ATOM     31  O   UNL     1      -5.353 -11.707   1.862  0.00  0.00    -0.481 OA
BRANCH  31  32
ATOM     32  C   UNL     1      -6.497 -12.440   1.825  0.00  0.00    +0.122 A 
ATOM     33  C   UNL     1      -7.731 -11.805   1.873  0.00  0.00    +0.046 A 
ATOM     34  C   UNL     1      -8.892 -12.552   1.834  0.00  0.00    +0.007 A 
ATOM     35  C   UNL     1      -8.826 -13.931   1.747  0.00  0.00    -0.047 A 
ATOM     36  C   UNL     1      -7.598 -14.565   1.700  0.00  0.00    -0.044 A 
ATOM     37  C   UNL     1      -6.434 -13.822   1.733  0.00  0.00    +0.049 A 
ATOM     38  C   UNL     1      -7.530 -16.068   1.606  0.00  0.00    +0.044 C 
ATOM     39  C   UNL     1     -10.095 -14.743   1.705  0.00  0.00    +0.044 C 
ENDBRANCH  31  32
ENDBRANCH  30  31
ENDBRANCH  28  30
ENDBRANCH  27  28
ENDBRANCH   5  27
TORSDOF 11
