REMARK  Name = ZINC44962948
REMARK  4 active torsions:
REMARK  status: ('A' for Active; 'I' for Inactive)
REMARK    1  A    between atoms: C_4  and  O_32
REMARK    2  A    between atoms: C_21  and  O_23
REMARK    3  A    between atoms: O_23  and  C_24
REMARK    4  A    between atoms: C_24  and  C_25
REMARK                            x       y       z     vdW  Elec       q    Type
REMARK                         _______ _______ _______ _____ _____    ______ ____
ROOT
ATOM      1  C   UNL     1      -0.013   1.076   0.008  0.00  0.00    +0.007 A 
ATOM      2  C   UNL     1      -1.219   1.742   0.029  0.00  0.00    +0.045 A 
ATOM      3  C   UNL     1      -1.241   3.129   0.035  0.00  0.00    +0.117 A 
ATOM      4  C   UNL     1      -0.048   3.832   0.014  0.00  0.00    +0.049 A 
ATOM      5  C   UNL     1       1.164   3.158  -0.010  0.00  0.00    -0.034 A 
ATOM      6  C   UNL     1       1.185   1.780   0.000  0.00  0.00    -0.042 A 
ATOM      7  C   UNL     1       2.464   0.986   0.014  0.00  0.00    +0.058 C 
ATOM      8  C   UNL     1       3.668   1.851  -0.327  0.00  0.00    +0.087 C 
ATOM      9  C   UNL     1       3.600   3.148   0.490  0.00  0.00    +0.020 C 
ATOM     10  C   UNL     1       2.428   3.977  -0.051  0.00  0.00    +0.002 C 
ATOM     11  C   UNL     1       2.260   5.244   0.785  0.00  0.00    +0.012 C 
ATOM     12  C   UNL     1       2.023   4.872   2.250  0.00  0.00    +0.001 C 
ATOM     13  C   UNL     1       3.221   4.072   2.767  0.00  0.00    +0.000 C 
ATOM     14  C   UNL     1       3.374   2.792   1.961  0.00  0.00    +0.006 C 
ATOM     15  C   UNL     1       2.704   4.365  -1.511  0.00  0.00    +0.031 C 
ATOM     16  C   UNL     1       2.721   3.082  -2.352  0.00  0.00    +0.112 C 
ATOM     17  N   UNL     1       3.705   2.170  -1.752  0.00  0.00    -0.264 N 
ATOM     18  C   UNL     1       4.640   1.609  -2.544  0.00  0.00    +0.403 C 
ATOM     19  O   UNL     1       5.453   0.839  -2.072  0.00  0.00    -0.226 OA
ENDROOT
BRANCH   3  20
ATOM     20  O   UNL     1      -2.426   3.794   0.062  0.00  0.00    -0.507 OA
ATOM     21  H   UNL     1      -2.751   3.983   0.953  0.00  0.00    +0.292 HD
ENDBRANCH   3  20
BRANCH  18  22
ATOM     22  O   UNL     1       4.674   1.903  -3.858  0.00  0.00    -0.445 OA
BRANCH  22  23
ATOM     23  C   UNL     1       5.692   1.272  -4.637  0.00  0.00    +0.269 C 
BRANCH  23  24
ATOM     24  C   UNL     1       5.574   1.717  -6.072  0.00  0.00    -0.010 A 
ATOM     25  C   UNL     1       4.777   1.009  -6.952  0.00  0.00    +0.007 A 
ATOM     26  C   UNL     1       4.669   1.418  -8.268  0.00  0.00    +0.000 A 
ATOM     27  C   UNL     1       5.357   2.534  -8.704  0.00  0.00    +0.000 A 
ATOM     28  C   UNL     1       6.153   3.243  -7.824  0.00  0.00    +0.000 A 
ATOM     29  C   UNL     1       6.258   2.837  -6.507  0.00  0.00    +0.007 A 
ENDBRANCH  23  24
ENDBRANCH  22  23
ENDBRANCH  18  22
TORSDOF 4
