REMARK  Name = ZINC22666406
REMARK  11 active torsions:
REMARK  status: ('A' for Active; 'I' for Inactive)
REMARK    1  A    between atoms: C_1  and  C_2
REMARK    2  A    between atoms: C_2  and  C_3
REMARK    3  A    between atoms: C_6  and  S_8
REMARK    4  A    between atoms: S_8  and  N_11
REMARK    5  A    between atoms: N_11  and  C_12
REMARK    6  A    between atoms: C_12  and  C_13
REMARK    7  A    between atoms: C_13  and  C_15
REMARK    8  A    between atoms: C_13  and  N_24
REMARK    9  A    between atoms: C_18  and  N_21
REMARK   10  A    between atoms: N_21  and  C_22
REMARK   11  A    between atoms: N_21  and  C_23
REMARK                            x       y       z     vdW  Elec       q    Type
REMARK                         _______ _______ _______ _____ _____    ______ ____
ROOT
ATOM      1  C   UNL     1       2.733   4.784   3.782  0.00  0.00    -0.021 C 
ENDROOT
BRANCH   1   2
ATOM      2  N   UNL     1       1.376   4.732   4.342  0.00  0.00    +0.388 N 
ATOM      3  C   UNL     1       1.273   5.563   5.553  0.00  0.00    -0.073 C 
ATOM      4  C   UNL     1      -0.207   5.769   5.875  0.00  0.00    +0.017 C 
ATOM      5  C   UNL     1      -0.922   4.442   5.882  0.00  0.00    -0.048 A 
ATOM      6  C   UNL     1      -2.166   4.364   6.490  0.00  0.00    +0.004 A 
ATOM      7  C   UNL     1      -2.856   3.168   6.516  0.00  0.00    +0.000 A 
ATOM      8  C   UNL     1      -2.304   2.043   5.932  0.00  0.00    +0.000 A 
ATOM      9  C   UNL     1      -1.065   2.120   5.328  0.00  0.00    +0.002 A 
ATOM     10  C   UNL     1      -0.370   3.320   5.303  0.00  0.00    -0.061 A 
ATOM     11  C   UNL     1       0.982   3.351   4.639  0.00  0.00    -0.042 C 
ATOM     12  H   UNL     1       0.687   5.132   3.583  0.00  0.00    -0.080 HD
ENDBRANCH   1   2
BRANCH   1  13
ATOM     13  C   UNL     1       3.700   4.152   4.750  0.00  0.00    -0.060 A 
ATOM     14  C   UNL     1       3.748   2.776   4.878  0.00  0.00    +0.004 A 
ATOM     15  C   UNL     1       4.637   2.193   5.760  0.00  0.00    +0.023 A 
ATOM     16  C   UNL     1       5.475   2.991   6.527  0.00  0.00    +0.029 A 
ATOM     17  C   UNL     1       5.420   4.374   6.401  0.00  0.00    +0.023 A 
ATOM     18  C   UNL     1       4.533   4.949   5.513  0.00  0.00    +0.004 A 
BRANCH  16  19
ATOM     19  N   UNL     1       6.371   2.406   7.425  0.00  0.00    -0.336 N 
ATOM     20  C   UNL     1       7.172   3.249   8.316  0.00  0.00    +0.129 C 
ATOM     21  C   UNL     1       6.510   0.948   7.475  0.00  0.00    +0.129 C 
ENDBRANCH  16  19
ENDBRANCH   1  13
BRANCH   1  22
ATOM     22  C   UNL     1       2.767   4.021   2.457  0.00  0.00    +0.095 C 
BRANCH  22  23
ATOM     23  N   UNL     1       1.744   4.559   1.557  0.00  0.00    -0.191 NA
ATOM     24  H   UNL     1       0.859   5.065   1.971  0.00  0.00    +0.148 HD
BRANCH  23  25
ATOM     25  S   UNL     1       1.786   4.195  -0.058  0.00  0.00    +0.065 S 
ATOM     26  O   UNL     1       3.116   4.437  -0.494  0.00  0.00    -0.153 OA
ATOM     27  O   UNL     1       0.662   4.834  -0.648  0.00  0.00    -0.153 OA
BRANCH  25  31
ATOM     28  C   UNL     1       1.568  -0.229  -0.406  0.00  0.00    -0.009 A 
ATOM     29  C   UNL     1       0.373   0.410  -0.447  0.00  0.00    +0.013 A 
ATOM     30  C   UNL     1       0.345   1.788  -0.345  0.00  0.00    +0.036 A 
ATOM     31  C   UNL     1       1.514   2.460  -0.208  0.00  0.00    +0.143 A 
ATOM     32  S   UNL     1       2.708   1.132  -0.218  0.00  0.00    -0.074 S 
BRANCH  28  34
ATOM     33  C   UNL     1       2.064  -2.096  -1.960  0.00  0.00    +0.009 C 
ATOM     34  C   UNL     1       1.859  -1.705  -0.495  0.00  0.00    +0.039 C 
ENDBRANCH  28  34
ENDBRANCH  25  31
ENDBRANCH  23  25
ENDBRANCH  22  23
ENDBRANCH   1  22
TORSDOF 8
