REMARK  Name = ZINC61271211
REMARK  4 active torsions:
REMARK  status: ('A' for Active; 'I' for Inactive)
REMARK    1  A    between atoms: N_6  and  C_8
REMARK    2  A    between atoms: C_8  and  C_9
REMARK    3  A    between atoms: N_11  and  C_12
REMARK    4  A    between atoms: C_15  and  C_18
REMARK                            x       y       z     vdW  Elec       q    Type
REMARK                         _______ _______ _______ _____ _____    ______ ____
ROOT
ATOM      1  C   UNL     1       0.821  -2.511   2.654  0.00  0.00    +0.197 C 
ATOM      2  O   UNL     1       1.567  -1.822   3.317  0.00  0.00    -0.278 OA
ATOM      3  N   UNL     1       0.539  -3.769   3.046  0.00  0.00    -0.314 N 
ATOM      4  H   UNL     1      -0.058  -4.320   2.516  0.00  0.00    +0.149 HD
ENDROOT
BRANCH   3   5
ATOM      5  C   UNL     1       1.135  -4.305   4.273  0.00  0.00    +0.073 C 
ATOM      6  C   UNL     1       0.281  -3.896   5.475  0.00  0.00    +0.023 C 
ATOM      7  C   UNL     1      -1.134  -4.454   5.309  0.00  0.00    +0.014 C 
ATOM      8  C   UNL     1      -1.073  -5.980   5.222  0.00  0.00    +0.093 C 
ATOM      9  C   UNL     1      -0.220  -6.389   4.020  0.00  0.00    +0.014 C 
ATOM     10  C   UNL     1       1.196  -5.831   4.186  0.00  0.00    +0.023 C 
BRANCH   8  11
ATOM     11  C   UNL     1      -2.488  -6.538   5.056  0.00  0.00    +0.393 C 
ATOM     12  F   UNL     1      -3.057  -6.027   3.885  0.00  0.00    -0.170 F 
ATOM     13  F   UNL     1      -2.433  -7.934   4.977  0.00  0.00    -0.170 F 
ATOM     14  F   UNL     1      -3.269  -6.164   6.155  0.00  0.00    -0.170 F 
ENDBRANCH   8  11
ENDBRANCH   3   5
BRANCH   1  15
ATOM     15  C   UNL     1       0.208  -1.960   1.392  0.00  0.00    +0.019 C 
BRANCH  15  21
ATOM     16  C   UNL     1      -0.018   1.458   0.010  0.00  0.00    -0.003 C 
ATOM     17  C   UNL     1       1.413   2.042  -0.001  0.00  0.00    +0.079 C 
ATOM     18  N   UNL     1       1.982   1.918   1.321  0.00  0.00    -0.318 NA
ATOM     19  C   UNL     1       2.764   0.680   1.542  0.00  0.00    +0.062 C 
ATOM     20  C   UNL     1       2.093  -0.571   0.952  0.00  0.00    -0.063 C 
ATOM     21  N   UNL     1       0.668  -0.580   1.187  0.00  0.00    +0.386 N 
ATOM     22  C   UNL     1       0.002  -0.004   0.002  0.00  0.00    -0.077 C 
ATOM     23  H   UNL     1       2.524   2.735   1.559  0.00  0.00    +0.122 HD
ATOM     24  H   UNL     1       0.455  -0.024   2.001  0.00  0.00    -0.081 HD
ENDBRANCH  15  21
ENDBRANCH   1  15
TORSDOF 4
