REMARK  Name = ZINC39881781
REMARK  3 active torsions:
REMARK  status: ('A' for Active; 'I' for Inactive)
REMARK    1  A    between atoms: C_1  and  C_2
REMARK    2  A    between atoms: N_12  and  N_15
REMARK    3  A    between atoms: C_16  and  C_18
REMARK                            x       y       z     vdW  Elec       q    Type
REMARK                         _______ _______ _______ _____ _____    ______ ____
ROOT
ATOM      1  N   UNL     1       0.089  -4.521   4.784  0.00  0.00    -0.229 N 
ATOM      2  C   UNL     1      -1.042  -4.045   5.340  0.00  0.00    +0.263 C 
ATOM      3  O   UNL     1      -2.064  -3.984   4.684  0.00  0.00    -0.269 OA
ATOM      4  H   UNL     1       0.904  -4.570   5.308  0.00  0.00    +0.173 HD
ENDROOT
BRANCH   1  16
ATOM      5  C   UNL     1      -0.018   1.503   0.010  0.00  0.00    +0.044 C 
ATOM      6  C   UNL     1       0.002  -0.004   0.002  0.00  0.00    -0.048 A 
ATOM      7  C   UNL     1       0.006  -0.682  -1.214  0.00  0.00    +0.004 A 
ATOM      8  C   UNL     1       0.024  -2.044  -1.254  0.00  0.00    +0.010 A 
ATOM      9  C   UNL     1       0.040  -2.772  -0.055  0.00  0.00    +0.001 A 
ATOM     10  C   UNL     1       0.060  -4.181  -0.050  0.00  0.00    +0.017 A 
ATOM     11  C   UNL     1       0.075  -4.824   1.149  0.00  0.00    -0.004 A 
ATOM     12  C   UNL     1       0.071  -4.100   2.349  0.00  0.00    +0.141 A 
ATOM     13  N   UNL     1       0.053  -2.773   2.328  0.00  0.00    -0.230 NA
ATOM     14  C   UNL     1       0.037  -2.086   1.184  0.00  0.00    +0.073 A 
ATOM     15  C   UNL     1       0.022  -0.680   1.183  0.00  0.00    +0.031 A 
ATOM     16  N   UNL     1       0.088  -4.946   3.449  0.00  0.00    -0.234 N 
ATOM     17  C   UNL     1       0.105  -6.346   3.018  0.00  0.00    +0.134 C 
ATOM     18  C   UNL     1       0.097  -6.299   1.481  0.00  0.00    +0.059 C 
ENDBRANCH   1  16
BRANCH   2  19
ATOM     19  C   UNL     1      -1.041  -3.597   6.747  0.00  0.00    +0.078 A 
ATOM     20  C   UNL     1      -0.751  -2.266   7.060  0.00  0.00    +0.074 A 
ATOM     21  C   UNL     1      -0.752  -1.854   8.378  0.00  0.00    +0.080 A 
ATOM     22  C   UNL     1      -1.040  -2.756   9.389  0.00  0.00    +0.080 A 
ATOM     23  C   UNL     1      -1.329  -4.077   9.086  0.00  0.00    +0.080 A 
ATOM     24  C   UNL     1      -1.336  -4.501   7.771  0.00  0.00    +0.074 A 
ATOM     25 CL   UNL     1      -1.705  -6.155   7.393  0.00  0.00    -0.081 Cl
ATOM     26 CL   UNL     1      -1.688  -5.200  10.361  0.00  0.00    -0.080 Cl
ATOM     27 CL   UNL     1      -1.039  -2.229  11.044  0.00  0.00    -0.080 Cl
ATOM     28 CL   UNL     1      -0.392  -0.201   8.769  0.00  0.00    -0.080 Cl
ATOM     29 CL   UNL     1      -0.390  -1.134   5.794  0.00  0.00    -0.081 Cl
ENDBRANCH   2  19
TORSDOF 2
