REMARK  Name = ZINC40338792
REMARK  8 active torsions:
REMARK  status: ('A' for Active; 'I' for Inactive)
REMARK    1  A    between atoms: C_5  and  S_8
REMARK    2  A    between atoms: C_6  and  N_7
REMARK    3  A    between atoms: S_8  and  N_11
REMARK    4  A    between atoms: N_11  and  C_12
REMARK    5  A    between atoms: N_11  and  C_15
REMARK    6  A    between atoms: C_12  and  C_13
REMARK    7  A    between atoms: C_13  and  O_14
REMARK    8  A    between atoms: C_15  and  C_16
REMARK                            x       y       z     vdW  Elec       q    Type
REMARK                         _______ _______ _______ _____ _____    ______ ____
ROOT
ATOM      1  S   UNL     1       1.193  -2.046  -1.532  0.00  0.00    +0.064 S 
ATOM      2  O   UNL     1       0.073  -2.025  -2.407  0.00  0.00    -0.153 OA
ATOM      3  O   UNL     1       2.519  -2.252  -1.998  0.00  0.00    -0.153 OA
ENDROOT
BRANCH   1   8
ATOM      4  C   UNL     1       2.390   1.275   0.408  0.00  0.00    +0.044 A 
ATOM      5  C   UNL     1       1.193   1.917   0.667  0.00  0.00    +0.044 A 
ATOM      6  C   UNL     1      -0.001   1.351   0.256  0.00  0.00    +0.042 A 
ATOM      7  C   UNL     1      -0.000   0.141  -0.416  0.00  0.00    +0.070 A 
ATOM      8  C   UNL     1       1.193  -0.505  -0.678  0.00  0.00    +0.144 A 
ATOM      9  C   UNL     1       2.393   0.061  -0.266  0.00  0.00    +0.054 A 
ATOM     10 CL   UNL     1      -1.500  -0.566  -0.931  0.00  0.00    -0.081 Cl
ATOM     11 CL   UNL     1       1.188   3.434   1.511  0.00  0.00    -0.083 Cl
BRANCH   9  12
ATOM     12  N   UNL     1       3.601  -0.590  -0.530  0.00  0.00    -0.356 N 
ATOM     13  H   UNL     1       4.417  -0.075  -0.631  0.00  0.00    +0.142 HD
ATOM     14  H   UNL     1       3.623  -1.556  -0.611  0.00  0.00    +0.142 HD
ENDBRANCH   9  12
ENDBRANCH   1   8
BRANCH   1  15
ATOM     15  N   UNL     1       0.896  -3.228  -0.411  0.00  0.00    -0.166 NA
BRANCH  15  16
ATOM     16  C   UNL     1      -0.482  -3.635  -0.123  0.00  0.00    +0.137 C 
BRANCH  16  17
ATOM     17  C   UNL     1      -0.840  -4.858  -0.970  0.00  0.00    +0.173 C 
BRANCH  17  18
ATOM     18  O   UNL     1      -0.028  -5.965  -0.574  0.00  0.00    -0.394 OA
ATOM     19  H   UNL     1      -0.201  -6.777  -1.070  0.00  0.00    +0.209 HD
ENDBRANCH  17  18
ENDBRANCH  16  17
ENDBRANCH  15  16
BRANCH  15  20
ATOM     20  C   UNL     1       2.010  -3.866   0.293  0.00  0.00    +0.222 C 
BRANCH  20  21
ATOM     21  C   UNL     1       2.238  -3.163   1.632  0.00  0.00    +0.404 C 
ATOM     22  F   UNL     1       1.079  -3.257   2.411  0.00  0.00    -0.169 F 
ATOM     23  F   UNL     1       3.302  -3.773   2.305  0.00  0.00    -0.169 F 
ATOM     24  F   UNL     1       2.540  -1.816   1.406  0.00  0.00    -0.169 F 
ENDBRANCH  20  21
ENDBRANCH  15  20
ENDBRANCH   1  15
TORSDOF 8
