REMARK  Name = ZINC39534436
REMARK  12 active torsions:
REMARK  status: ('A' for Active; 'I' for Inactive)
REMARK    1  A    between atoms: C_1  and  C_2
REMARK    2  A    between atoms: C_2  and  C_3
REMARK    3  A    between atoms: C_2  and  S_4
REMARK    4  A    between atoms: S_4  and  C_7
REMARK    5  A    between atoms: C_10  and  C_13
REMARK    6  A    between atoms: C_13  and  C_15
REMARK    7  A    between atoms: C_13  and  N_24
REMARK    8  A    between atoms: C_15  and  N_16
REMARK    9  A    between atoms: N_16  and  C_17
REMARK   10  A    between atoms: C_17  and  C_18
REMARK   11  A    between atoms: C_28  and  C_31
REMARK   12  A    between atoms: C_36  and  O_37
REMARK                            x       y       z     vdW  Elec       q    Type
REMARK                         _______ _______ _______ _____ _____    ______ ____
ROOT
ATOM      1  C   UNL     1       0.194  -6.318   0.683  0.00  0.00    -0.024 C 
ENDROOT
BRANCH   1   2
ATOM      2  N   UNL     1       0.982  -6.370   1.921  0.00  0.00    +0.383 N 
ATOM      3  C   UNL     1       2.150  -5.488   1.795  0.00  0.00    -0.097 C 
ATOM      4  C   UNL     1       2.971  -5.542   3.085  0.00  0.00    -0.101 C 
ATOM      5  N   UNL     1       3.422  -6.920   3.322  0.00  0.00    +0.381 N 
ATOM      6  C   UNL     1       2.254  -7.802   3.448  0.00  0.00    -0.054 C 
ATOM      7  C   UNL     1       1.433  -7.748   2.158  0.00  0.00    -0.089 C 
ATOM      8  H   UNL     1       3.992  -7.225   2.548  0.00  0.00    -0.085 HD
ATOM      9  H   UNL     1       0.412  -6.064   2.696  0.00  0.00    -0.081 HD
ATOM     10  H   UNL     1       3.963  -6.955   4.173  0.00  0.00    -0.085 HD
BRANCH   6  11
ATOM     11  C   UNL     1       2.715  -9.215   3.691  0.00  0.00    -0.022 A 
ATOM     12  C   UNL     1       3.996  -9.595   3.336  0.00  0.00    +0.005 A 
ATOM     13  C   UNL     1       4.420 -10.892   3.558  0.00  0.00    +0.000 A 
ATOM     14  C   UNL     1       3.564 -11.812   4.136  0.00  0.00    +0.004 A 
ATOM     15  C   UNL     1       2.284 -11.437   4.493  0.00  0.00    +0.045 A 
ATOM     16  C   UNL     1       1.857 -10.135   4.276  0.00  0.00    +0.118 A 
BRANCH  16  17
ATOM     17  O   UNL     1       0.600  -9.762   4.631  0.00  0.00    -0.507 OA
ATOM     18  H   UNL     1      -0.071  -9.954   3.962  0.00  0.00    +0.292 HD
ENDBRANCH  16  17
ENDBRANCH   6  11
ENDBRANCH   1   2
BRANCH   1  22
ATOM     19  C   UNL     1      -0.773  -2.257  -0.223  0.00  0.00    +0.088 A 
ATOM     20  C   UNL     1      -0.416  -3.126  -1.238  0.00  0.00    +0.027 A 
ATOM     21  C   UNL     1      -0.103  -4.440  -0.945  0.00  0.00    +0.004 A 
ATOM     22  C   UNL     1      -0.146  -4.885   0.363  0.00  0.00    -0.060 A 
ATOM     23  C   UNL     1      -0.502  -4.017   1.378  0.00  0.00    +0.004 A 
ATOM     24  C   UNL     1      -0.812  -2.702   1.085  0.00  0.00    +0.027 A 
BRANCH  19  25
ATOM     25  S   UNL     1      -1.173  -0.582  -0.597  0.00  0.00    -0.001 S 
ATOM     26  O   UNL     1      -2.035  -0.172   0.456  0.00  0.00    -0.169 OA
ATOM     27  O   UNL     1      -1.633  -0.610  -1.941  0.00  0.00    -0.169 OA
BRANCH  25  29
ATOM     28  C   UNL     1       0.159   1.806  -0.681  0.00  0.00    +0.032 C 
ATOM     29  C   UNL     1       0.405   0.307  -0.495  0.00  0.00    +0.130 C 
ATOM     30  C   UNL     1       1.042   0.061   0.875  0.00  0.00    +0.032 C 
ENDBRANCH  25  29
ENDBRANCH  19  25
ENDBRANCH   1  22
BRANCH   1  31
ATOM     31  C   UNL     1      -1.096  -7.120   0.865  0.00  0.00    +0.070 C 
BRANCH  31  32
ATOM     32  N   UNL     1      -0.769  -8.544   1.021  0.00  0.00    -0.313 NA
ATOM     33  H   UNL     1      -0.165  -8.860   0.278  0.00  0.00    +0.122 HD
BRANCH  32  34
ATOM     34  C   UNL     1      -1.989  -9.360   1.091  0.00  0.00    +0.116 C 
BRANCH  34  35
ATOM     35  C   UNL     1      -1.616 -10.819   1.125  0.00  0.00    -0.034 A 
ATOM     36  C   UNL     1      -1.389 -11.502  -0.056  0.00  0.00    +0.005 A 
ATOM     37  C   UNL     1      -1.047 -12.841  -0.026  0.00  0.00    +0.000 A 
ATOM     38  C   UNL     1      -0.932 -13.497   1.185  0.00  0.00    +0.000 A 
ATOM     39  C   UNL     1      -1.158 -12.815   2.366  0.00  0.00    +0.000 A 
ATOM     40  C   UNL     1      -1.496 -11.475   2.336  0.00  0.00    +0.005 A 
ENDBRANCH  34  35
ENDBRANCH  32  34
ENDBRANCH  31  32
ENDBRANCH   1  31
TORSDOF 10
