REMARK  Name = ZINC09379811
REMARK  11 active torsions:
REMARK  status: ('A' for Active; 'I' for Inactive)
REMARK    1  A    between atoms: C_1  and  N_63
REMARK    2  A    between atoms: C_12  and  C_15
REMARK    3  A    between atoms: C_20  and  O_21
REMARK    4  A    between atoms: O_21  and  C_22
REMARK    5  A    between atoms: C_22  and  C_24
REMARK    6  A    between atoms: C_26  and  O_34
REMARK    7  A    between atoms: C_27  and  O_32
REMARK    8  A    between atoms: C_28  and  O_30
REMARK    9  A    between atoms: O_30  and  C_31
REMARK   10  A    between atoms: O_32  and  C_33
REMARK   11  A    between atoms: O_34  and  C_35
REMARK                            x       y       z     vdW  Elec       q    Type
REMARK                         _______ _______ _______ _____ _____    ______ ____
ROOT
ATOM      1  C   UNL     1      -5.665   2.924   3.907  0.00  0.00    +0.033 A 
ATOM      2  C   UNL     1      -6.571   3.203   2.901  0.00  0.00    +0.011 A 
ATOM      3  C   UNL     1      -7.013   4.499   2.709  0.00  0.00    +0.001 A 
ATOM      4  C   UNL     1      -6.542   5.520   3.514  0.00  0.00    +0.004 A 
ATOM      5  C   UNL     1      -5.633   5.246   4.517  0.00  0.00    +0.047 A 
ATOM      6  C   UNL     1      -5.192   3.946   4.716  0.00  0.00    +0.138 A 
ENDROOT
BRANCH   1  18
ATOM      7  C   UNL     1       0.191   1.649  -2.404  0.00  0.00    -0.096 C 
ATOM      8  C   UNL     1       0.057   1.263  -0.017  0.00  0.00    -0.074 C 
ATOM      9  C   UNL     1      -0.669   1.719   1.252  0.00  0.00    +0.018 C 
ATOM     10  C   UNL     1      -2.136   1.334   1.129  0.00  0.00    -0.027 A 
ATOM     11  C   UNL     1      -2.656   1.032  -0.084  0.00  0.00    -0.021 A 
ATOM     12  S   UNL     1      -4.355   0.643   0.232  0.00  0.00    -0.080 S 
ATOM     13  C   UNL     1      -4.373   0.876   1.928  0.00  0.00    +0.080 A 
ATOM     14  C   UNL     1      -3.060   1.258   2.247  0.00  0.00    +0.068 A 
ATOM     15  C   UNL     1      -2.755   1.540   3.668  0.00  0.00    +0.248 C 
ATOM     16  O   UNL     1      -1.618   1.766   4.040  0.00  0.00    -0.270 OA
ATOM     17  N   UNL     1      -3.789   1.535   4.535  0.00  0.00    -0.289 N 
ATOM     18  C   UNL     1      -5.188   1.510   4.120  0.00  0.00    +0.194 C 
ATOM     19  N   UNL     1      -5.362   0.749   2.869  0.00  0.00    -0.316 N 
ATOM     20  C   UNL     1      -1.926   1.036  -1.390  0.00  0.00    -0.036 C 
ATOM     21  H   UNL     1      -3.593   1.550   5.485  0.00  0.00    +0.151 HD
ATOM     22  H   UNL     1      -6.137   0.185   2.720  0.00  0.00    +0.149 HD
ATOM     23  N   UNL     1      -0.658   1.782  -1.201  0.00  0.00    +0.381 N 
ATOM     24  H   UNL     1      -0.874   2.775  -1.052  0.00  0.00    -0.082 HD
ENDBRANCH   1  18
BRANCH   6  25
ATOM     25  O   UNL     1      -4.297   3.673   5.703  0.00  0.00    -0.422 OA
BRANCH  25  26
ATOM     26  C   UNL     1      -4.798   3.291   6.894  0.00  0.00    +0.345 C 
ATOM     27  O   UNL     1      -5.993   3.113   7.022  0.00  0.00    -0.245 OA
BRANCH  26  28
ATOM     28  C   UNL     1      -3.896   3.089   8.043  0.00  0.00    +0.067 A 
ATOM     29  C   UNL     1      -2.520   3.288   7.896  0.00  0.00    +0.064 A 
ATOM     30  C   UNL     1      -1.677   3.103   8.975  0.00  0.00    +0.166 A 
ATOM     31  C   UNL     1      -2.196   2.708  10.206  0.00  0.00    +0.204 A 
ATOM     32  C   UNL     1      -3.565   2.504  10.354  0.00  0.00    +0.166 A 
ATOM     33  C   UNL     1      -4.414   2.693   9.279  0.00  0.00    +0.064 A 
BRANCH  32  34
ATOM     34  O   UNL     1      -4.069   2.118  11.557  0.00  0.00    -0.491 OA
ATOM     35  C   UNL     1      -5.482   1.926  11.637  0.00  0.00    +0.277 C 
ENDBRANCH  32  34
BRANCH  31  36
ATOM     36  O   UNL     1      -1.364   2.522  11.264  0.00  0.00    -0.488 OA
ATOM     37  C   UNL     1      -0.821   1.212  11.440  0.00  0.00    +0.277 C 
ENDBRANCH  31  36
BRANCH  30  38
ATOM     38  O   UNL     1      -0.339   3.302   8.834  0.00  0.00    -0.491 OA
ATOM     39  C   UNL     1       0.124   3.706   7.545  0.00  0.00    +0.277 C 
ENDBRANCH  30  38
ENDBRANCH  26  28
ENDBRANCH  25  26
ENDBRANCH   6  25
TORSDOF 7
