REMARK  Name = ZINC16424279
REMARK  10 active torsions:
REMARK  status: ('A' for Active; 'I' for Inactive)
REMARK    1  A    between atoms: C_1  and  C_2
REMARK    2  A    between atoms: C_2  and  C_3
REMARK    3  A    between atoms: C_3  and  N_4
REMARK    4  A    between atoms: C_14  and  C_15
REMARK    5  A    between atoms: C_15  and  C_17
REMARK    6  A    between atoms: C_15  and  N_19
REMARK    7  A    between atoms: C_17  and  C_18
REMARK    8  A    between atoms: N_19  and  C_20
REMARK    9  A    between atoms: C_20  and  C_21
REMARK   10  A    between atoms: N_28  and  C_29
REMARK                            x       y       z     vdW  Elec       q    Type
REMARK                         _______ _______ _______ _____ _____    ______ ____
ROOT
ATOM      1  N   UNL     1       3.617  -0.833  -0.149  0.00  0.00    -0.268 N 
ATOM      2  C   UNL     1       2.538  -0.076  -0.428  0.00  0.00    +0.307 C 
ATOM      3  O   UNL     1       1.456  -0.603  -0.609  0.00  0.00    -0.252 OA
ATOM      4  N   UNL     1       2.656   1.264  -0.506  0.00  0.00    -0.268 N 
ATOM      5  H   UNL     1       3.530   1.679  -0.435  0.00  0.00    +0.156 HD
ENDROOT
BRANCH   4   6
ATOM      6  C   UNL     1       1.517   2.058  -0.691  0.00  0.00    +0.053 A 
ATOM      7  C   UNL     1       0.267   1.576  -0.328  0.00  0.00    +0.026 A 
ATOM      8  C   UNL     1      -0.856   2.358  -0.515  0.00  0.00    +0.022 A 
ATOM      9  C   UNL     1      -0.735   3.627  -1.056  0.00  0.00    +0.042 A 
ATOM     10  C   UNL     1       0.510   4.111  -1.418  0.00  0.00    +0.041 A 
ATOM     11  C   UNL     1       1.636   3.330  -1.237  0.00  0.00    +0.064 A 
ATOM     12 CL   UNL     1       3.197   3.937  -1.693  0.00  0.00    -0.082 Cl
ATOM     13 CL   UNL     1      -2.147   4.609  -1.285  0.00  0.00    -0.083 Cl
ENDBRANCH   4   6
BRANCH   1  14
ATOM     14  C   UNL     1       3.489  -2.290  -0.064  0.00  0.00    +0.144 C 
BRANCH  14  25
ATOM     15  N   UNL     1       3.308  -2.575   2.374  0.00  0.00    -0.295 N 
ATOM     16  C   UNL     1       3.766  -2.985   3.580  0.00  0.00    +0.262 A 
ATOM     17  O   UNL     1       3.113  -2.819   4.594  0.00  0.00    -0.267 OA
ATOM     18  C   UNL     1       5.082  -3.640   3.617  0.00  0.00    +0.065 A 
ATOM     19  C   UNL     1       5.643  -4.100   4.806  0.00  0.00    +0.015 A 
ATOM     20  C   UNL     1       6.880  -4.706   4.784  0.00  0.00    +0.001 A 
ATOM     21  C   UNL     1       7.568  -4.862   3.587  0.00  0.00    +0.002 A 
ATOM     22  C   UNL     1       7.031  -4.415   2.401  0.00  0.00    +0.028 A 
ATOM     23  C   UNL     1       5.779  -3.797   2.398  0.00  0.00    +0.078 A 
ATOM     24  N   UNL     1       5.210  -3.347   1.252  0.00  0.00    -0.232 NA
ATOM     25  C   UNL     1       4.048  -2.768   1.251  0.00  0.00    +0.134 A 
BRANCH  15  26
ATOM     26  C   UNL     1       2.002  -1.917   2.279  0.00  0.00    +0.126 C 
BRANCH  26  28
ATOM     27  C   UNL     1      -0.443  -2.287   1.923  0.00  0.00    +0.005 C 
ATOM     28  C   UNL     1       0.906  -2.975   2.140  0.00  0.00    +0.018 C 
ENDBRANCH  26  28
ENDBRANCH  15  26
ENDBRANCH  14  25
BRANCH  14  29
ATOM     29  C   UNL     1       4.263  -2.938  -1.214  0.00  0.00    +0.027 C 
ATOM     30  C   UNL     1       3.637  -2.526  -2.547  0.00  0.00    +0.006 C 
ENDBRANCH  14  29
ENDBRANCH   1  14
BRANCH   1  31
ATOM     31  C   UNL     1       4.920  -0.199   0.069  0.00  0.00    +0.184 C 
BRANCH  31  32
ATOM     32  C   UNL     1       5.014   0.277   1.496  0.00  0.00    +0.122 A 
ATOM     33  C   UNL     1       5.597  -0.388   2.509  0.00  0.00    +0.046 A 
ATOM     34  C   UNL     1       5.456   0.418   3.663  0.00  0.00    +0.041 A 
ATOM     35  C   UNL     1       4.797   1.527   3.284  0.00  0.00    +0.195 A 
ATOM     36  O   UNL     1       4.537   1.439   1.970  0.00  0.00    -0.466 OA
ENDBRANCH  31  32
ENDBRANCH   1  31
TORSDOF 8
