REMARK  Name = ZINC21006280
REMARK  12 active torsions:
REMARK  status: ('A' for Active; 'I' for Inactive)
REMARK    1  A    between atoms: C_1  and  C_2
REMARK    2  A    between atoms: C_7  and  C_8
REMARK    3  A    between atoms: N_10  and  C_11
REMARK    4  A    between atoms: C_11  and  C_13
REMARK    5  A    between atoms: C_11  and  C_17
REMARK    6  A    between atoms: C_13  and  C_14
REMARK    7  A    between atoms: C_14  and  C_15
REMARK    8  A    between atoms: C_14  and  C_16
REMARK    9  A    between atoms: N_19  and  C_20
REMARK   10  A    between atoms: C_22  and  S_27
REMARK   11  A    between atoms: C_25  and  O_26
REMARK   12  A    between atoms: S_27  and  N_30
REMARK                            x       y       z     vdW  Elec       q    Type
REMARK                         _______ _______ _______ _____ _____    ______ ____
ROOT
ATOM      1  C   UNL     1      -3.975  -0.557   3.010  0.00  0.00    +0.238 C 
ATOM      2  O   UNL     1      -3.333  -0.887   2.036  0.00  0.00    -0.273 OA
ATOM      3  N   UNL     1      -3.746   0.635   3.596  0.00  0.00    -0.281 N 
ATOM      4  H   UNL     1      -4.262   0.896   4.531  0.00  0.00    +0.155 HD
ENDROOT
BRANCH   3   5
ATOM      5  C   UNL     1      -2.849   1.541   3.014  0.00  0.00    +0.077 A 
ATOM      6  C   UNL     1      -2.586   1.481   1.653  0.00  0.00    +0.055 A 
ATOM      7  C   UNL     1      -1.702   2.376   1.081  0.00  0.00    +0.107 A 
ATOM      8  C   UNL     1      -1.074   3.328   1.863  0.00  0.00    +0.032 A 
ATOM      9  C   UNL     1      -1.335   3.397   3.219  0.00  0.00    +0.049 A 
ATOM     10  C   UNL     1      -2.220   2.503   3.800  0.00  0.00    +0.138 A 
BRANCH   7  11
ATOM     11  S   UNL     1      -1.368   2.299  -0.647  0.00  0.00    +0.061 S 
ATOM     12  O   UNL     1      -1.660   0.970  -1.058  0.00  0.00    -0.153 OA
ATOM     13  O   UNL     1      -0.092   2.894  -0.842  0.00  0.00    -0.153 OA
BRANCH  11  14
ATOM     14  N   UNL     1      -2.468   3.280  -1.402  0.00  0.00    -0.177 NA
ATOM     15  C   UNL     1      -3.786   2.864  -1.903  0.00  0.00    +0.109 C 
ATOM     16  C   UNL     1      -4.443   4.102  -2.548  0.00  0.00    +0.018 C 
ATOM     17  C   UNL     1      -3.226   5.003  -2.886  0.00  0.00    +0.018 C 
ATOM     18  C   UNL     1      -2.284   4.714  -1.690  0.00  0.00    +0.109 C 
ENDBRANCH  11  14
ENDBRANCH   7  11
BRANCH  10  19
ATOM     19  O   UNL     1      -2.474   2.566   5.134  0.00  0.00    -0.505 OA
ATOM     20  H   UNL     1      -1.977   3.327   5.754  0.00  0.00    +0.292 HD
ENDBRANCH  10  19
ENDBRANCH   3   5
BRANCH   1  21
ATOM     21  C   UNL     1      -5.030  -1.479   3.565  0.00  0.00    +0.160 C 
BRANCH  21  24
ATOM     22  C   UNL     1      -5.545  -3.846   3.299  0.00  0.00    +0.245 C 
ATOM     23  O   UNL     1      -5.914  -3.866   4.457  0.00  0.00    -0.270 OA
ATOM     24  N   UNL     1      -5.085  -2.700   2.758  0.00  0.00    -0.300 N 
ATOM     25  H   UNL     1      -4.752  -2.682   1.710  0.00  0.00    +0.150 HD
BRANCH  22  32
ATOM     26  C   UNL     1      -6.725  -6.243   4.409  0.00  0.00    +0.044 C 
ATOM     27  C   UNL     1      -6.167  -6.240   3.009  0.00  0.00    -0.038 A 
ATOM     28  C   UNL     1      -6.217  -7.387   2.243  0.00  0.00    +0.004 A 
ATOM     29  C   UNL     1      -5.706  -7.386   0.958  0.00  0.00    +0.000 A 
ATOM     30  C   UNL     1      -5.143  -6.237   0.431  0.00  0.00    +0.001 A 
ATOM     31  C   UNL     1      -5.092  -5.083   1.184  0.00  0.00    +0.013 A 
ATOM     32  C   UNL     1      -5.601  -5.078   2.484  0.00  0.00    +0.040 A 
ENDBRANCH  22  32
ENDBRANCH  21  24
BRANCH  21  33
ATOM     33  C   UNL     1      -6.390  -0.780   3.526  0.00  0.00    +0.034 C 
BRANCH  33  34
ATOM     34  C   UNL     1      -7.439  -1.665   4.203  0.00  0.00    -0.015 C 
ATOM     35  C   UNL     1      -7.101  -1.811   5.688  0.00  0.00    +0.007 C 
ATOM     36  C   UNL     1      -8.820  -1.025   4.054  0.00  0.00    +0.007 C 
ENDBRANCH  33  34
ENDBRANCH  21  33
ENDBRANCH   1  21
TORSDOF 9
