REMARK  Name = ZINC19810456
REMARK  7 active torsions:
REMARK  status: ('A' for Active; 'I' for Inactive)
REMARK    1  A    between atoms: C_3  and  C_6
REMARK    2  A    between atoms: C_6  and  N_7
REMARK    3  A    between atoms: C_8  and  C_24
REMARK    4  A    between atoms: C_11  and  S_12
REMARK    5  A    between atoms: S_12  and  C_13
REMARK    6  A    between atoms: C_13  and  C_14
REMARK    7  A    between atoms: N_16  and  C_17
REMARK                            x       y       z     vdW  Elec       q    Type
REMARK                         _______ _______ _______ _____ _____    ______ ____
ROOT
ATOM      1  N   UNL     1      -0.171   1.161  -4.050  0.00  0.00    -0.295 N 
ATOM      2  C   UNL     1       0.809   0.448  -4.702  0.00  0.00    +0.165 A 
ATOM      3  N   UNL     1       1.467  -0.227  -3.788  0.00  0.00    -0.128 NA
ATOM      4  N   UNL     1       0.975   0.016  -2.625  0.00  0.00    -0.122 NA
ATOM      5  C   UNL     1      -0.032   0.853  -2.727  0.00  0.00    +0.193 A 
ENDROOT
BRANCH   2   6
ATOM      6  C   UNL     1       1.072   0.443  -6.156  0.00  0.00    +0.019 A 
ATOM      7  C   UNL     1       1.853  -0.565  -6.724  0.00  0.00    +0.013 A 
ATOM      8  C   UNL     1       2.090  -0.567  -8.083  0.00  0.00    +0.021 A 
ATOM      9  C   UNL     1       1.565   0.434  -8.882  0.00  0.00    +0.041 A 
ATOM     10  C   UNL     1       0.794   1.440  -8.324  0.00  0.00    +0.021 A 
ATOM     11  C   UNL     1       0.545   1.450  -6.967  0.00  0.00    +0.013 A 
ATOM     12 CL   UNL     1       1.874   0.429 -10.590  0.00  0.00    -0.084 Cl
ENDBRANCH   2   6
BRANCH   1  13
ATOM     13  C   UNL     1      -1.158   2.061  -4.651  0.00  0.00    +0.200 C 
BRANCH  13  16
ATOM     14  C   UNL     1       0.249   5.450  -4.991  0.00  0.00    +0.041 A 
ATOM     15  C   UNL     1      -0.013   4.161  -5.507  0.00  0.00    +0.046 A 
ATOM     16  C   UNL     1      -0.669   3.483  -4.548  0.00  0.00    +0.125 A 
ATOM     17  O   UNL     1      -0.810   4.286  -3.481  0.00  0.00    -0.466 OA
ATOM     18  C   UNL     1      -0.254   5.481  -3.744  0.00  0.00    +0.195 A 
ENDBRANCH  13  16
ENDBRANCH   1  13
BRANCH   5  19
ATOM     19  S   UNL     1      -1.016   1.471  -1.401  0.00  0.00    -0.077 S 
BRANCH  19  20
ATOM     20  C   UNL     1      -0.233   0.623  -0.007  0.00  0.00    +0.173 C 
BRANCH  20  21
ATOM     21  C   UNL     1      -0.929   1.011   1.272  0.00  0.00    +0.227 C 
ATOM     22  O   UNL     1      -1.863   1.784   1.244  0.00  0.00    -0.275 OA
ATOM     23  N   UNL     1      -0.514   0.498   2.447  0.00  0.00    -0.285 N 
ATOM     24  H   UNL     1       0.283  -0.260   2.466  0.00  0.00    +0.155 HD
BRANCH  23  25
ATOM     25  C   UNL     1      -1.098   0.929   3.644  0.00  0.00    +0.033 A 
ATOM     26  C   UNL     1      -0.329   1.032   4.795  0.00  0.00    +0.024 A 
ATOM     27  C   UNL     1      -0.906   1.463   5.974  0.00  0.00    +0.017 A 
ATOM     28  C   UNL     1      -2.252   1.781   6.010  0.00  0.00    +0.018 A 
ATOM     29  C   UNL     1      -3.022   1.674   4.865  0.00  0.00    +0.017 A 
ATOM     30  C   UNL     1      -2.449   1.249   3.683  0.00  0.00    +0.024 A 
ATOM     31 BR   UNL     1      -3.041   2.365   7.627  0.00  0.00    -0.050 Br
ENDBRANCH  23  25
ENDBRANCH  20  21
ENDBRANCH  19  20
ENDBRANCH   5  19
TORSDOF 7
