REMARK  Name = ZINC19527970
REMARK  11 active torsions:
REMARK  status: ('A' for Active; 'I' for Inactive)
REMARK    1  A    between atoms: C_1  and  C_2
REMARK    2  A    between atoms: C_2  and  N_3
REMARK    3  A    between atoms: N_6  and  C_9
REMARK    4  A    between atoms: C_9  and  C_11
REMARK    5  A    between atoms: C_9  and  C_25
REMARK    6  A    between atoms: C_16  and  O_23
REMARK    7  A    between atoms: O_23  and  C_24
REMARK    8  A    between atoms: N_29  and  C_30
REMARK    9  A    between atoms: C_30  and  C_31
REMARK   10  A    between atoms: C_34  and  O_37
REMARK   11  A    between atoms: O_37  and  C_38
REMARK                            x       y       z     vdW  Elec       q    Type
REMARK                         _______ _______ _______ _____ _____    ______ ____
ROOT
ATOM      1  C   UNL     1       1.456   0.087   8.574  0.00  0.00    +0.162 C 
ENDROOT
BRANCH   1   2
ATOM      2  C   UNL     1       0.900   0.468   7.226  0.00  0.00    +0.042 A 
ATOM      3  C   UNL     1       1.518   0.041   6.095  0.00  0.00    +0.021 A 
ATOM      4  C   UNL     1       0.953   0.427   4.802  0.00  0.00    -0.001 A 
ATOM      5  C   UNL     1       1.548   0.018   3.603  0.00  0.00    +0.013 A 
ATOM      6  C   UNL     1       0.996   0.389   2.411  0.00  0.00    +0.046 A 
ATOM      7  C   UNL     1      -0.149   1.183   2.378  0.00  0.00    +0.122 A 
ATOM      8  C   UNL     1      -0.752   1.598   3.553  0.00  0.00    +0.072 A 
ATOM      9  C   UNL     1      -0.208   1.225   4.775  0.00  0.00    +0.053 A 
ATOM     10  N   UNL     1      -0.787   1.625   5.961  0.00  0.00    -0.322 N 
ATOM     11  H   UNL     1      -1.694   2.248   5.947  0.00  0.00    +0.169 HD
ATOM     12  C   UNL     1      -0.260   1.264   7.144  0.00  0.00    +0.254 A 
ATOM     13  O   UNL     1      -0.799   1.636   8.172  0.00  0.00    -0.268 OA
BRANCH   7  14
ATOM     14  O   UNL     1      -0.682   1.547   1.184  0.00  0.00    -0.495 OA
ATOM     15  C   UNL     1      -0.013   1.086   0.008  0.00  0.00    +0.277 C 
ENDBRANCH   7  14
ENDBRANCH   1   2
BRANCH   1  19
ATOM     16  N   UNL     1       3.284   3.179  10.798  0.00  0.00    +0.381 N 
ATOM     17  C   UNL     1       2.395   2.251  11.511  0.00  0.00    -0.063 C 
ATOM     18  C   UNL     1       2.237   0.969  10.690  0.00  0.00    +0.067 C 
ATOM     19  N   UNL     1       1.693   1.302   9.366  0.00  0.00    -0.292 NA
ATOM     20  C   UNL     1       2.582   2.230   8.653  0.00  0.00    +0.067 C 
ATOM     21  C   UNL     1       2.740   3.512   9.474  0.00  0.00    -0.063 C 
ATOM     22  H   UNL     1       4.252   2.678  10.652  0.00  0.00    -0.082 HD
BRANCH  16  24
ATOM     23  C   UNL     1       4.236   5.434  10.726  0.00  0.00    -0.017 C 
ATOM     24  C   UNL     1       3.521   4.394  11.590  0.00  0.00    -0.082 C 
ENDBRANCH  16  24
ENDBRANCH   1  19
BRANCH   1  25
ATOM     25  C   UNL     1       0.469  -0.796   9.293  0.00  0.00    +0.173 A 
ATOM     26  N   UNL     1      -0.645  -0.418   9.870  0.00  0.00    -0.111 NA
ATOM     27  N   UNL     1      -1.209  -1.463  10.370  0.00  0.00    -0.023 NA
ATOM     28  N   UNL     1      -0.479  -2.497  10.135  0.00  0.00    -0.044 NA
ATOM     29  N   UNL     1       0.565  -2.127   9.472  0.00  0.00    -0.223 N 
BRANCH  29  30
ATOM     30  C   UNL     1       1.650  -2.993   9.004  0.00  0.00    +0.182 C 
BRANCH  30  31
ATOM     31  C   UNL     1       2.719  -3.075  10.063  0.00  0.00    -0.026 A 
ATOM     32  C   UNL     1       3.762  -2.167  10.063  0.00  0.00    +0.009 A 
ATOM     33  C   UNL     1       4.740  -2.237  11.036  0.00  0.00    +0.046 A 
ATOM     34  C   UNL     1       4.682  -3.227  12.006  0.00  0.00    +0.120 A 
ATOM     35  C   UNL     1       3.638  -4.140  12.000  0.00  0.00    +0.046 A 
ATOM     36  C   UNL     1       2.659  -4.063  11.029  0.00  0.00    +0.009 A 
BRANCH  34  37
ATOM     37  O   UNL     1       5.646  -3.301  12.961  0.00  0.00    -0.495 OA
ATOM     38  C   UNL     1       6.691  -2.327  12.905  0.00  0.00    +0.277 C 
ENDBRANCH  34  37
ENDBRANCH  30  31
ENDBRANCH  29  30
ENDBRANCH   1  25
TORSDOF 8
