REMARK  Name = ZINC43947491
REMARK  5 active torsions:
REMARK  status: ('A' for Active; 'I' for Inactive)
REMARK    1  A    between atoms: C_4  and  C_7
REMARK    2  A    between atoms: C_7  and  C_9
REMARK    3  A    between atoms: C_7  and  N_12
REMARK    4  A    between atoms: N_15  and  C_16
REMARK    5  A    between atoms: C_19  and  N_22
REMARK                            x       y       z     vdW  Elec       q    Type
REMARK                         _______ _______ _______ _____ _____    ______ ____
ROOT
ATOM      1  N   UNL     1       3.648  -1.961  -0.804  0.00  0.00    -0.292 N 
ATOM      2  C   UNL     1       4.750  -2.482  -1.381  0.00  0.00    +0.304 C 
ATOM      3  O   UNL     1       5.852  -2.091  -1.048  0.00  0.00    -0.252 OA
ATOM      4  N   UNL     1       4.629  -3.435  -2.325  0.00  0.00    -0.269 N 
ATOM      5  H   UNL     1       2.769  -2.273  -1.069  0.00  0.00    +0.151 HD
ATOM      6  H   UNL     1       3.756  -3.802  -2.535  0.00  0.00    +0.156 HD
ENDROOT
BRANCH   4   7
ATOM      7  C   UNL     1       5.766  -3.897  -3.004  0.00  0.00    +0.035 A 
ATOM      8  C   UNL     1       5.837  -5.220  -3.418  0.00  0.00    +0.025 A 
ATOM      9  C   UNL     1       6.956  -5.675  -4.087  0.00  0.00    +0.026 A 
ATOM     10  C   UNL     1       8.010  -4.809  -4.346  0.00  0.00    +0.051 A 
ATOM     11  C   UNL     1       7.939  -3.485  -3.931  0.00  0.00    +0.026 A 
ATOM     12  C   UNL     1       6.817  -3.029  -3.267  0.00  0.00    +0.025 A 
BRANCH  10  13
ATOM     13  N   UNL     1       9.145  -5.269  -5.023  0.00  0.00    -0.207 N 
ATOM     14  C   UNL     1       9.634  -6.658  -5.094  0.00  0.00    +0.133 C 
ATOM     15  C   UNL     1      10.389  -6.906  -6.413  0.00  0.00    +0.045 C 
ATOM     16  C   UNL     1      11.328  -5.673  -6.580  0.00  0.00    +0.190 C 
ATOM     17  S   UNL     1      10.222  -4.356  -5.927  0.00  0.00    +0.046 S 
ATOM     18  O   UNL     1       9.448  -3.783  -6.972  0.00  0.00    -0.155 OA
ATOM     19  O   UNL     1      10.910  -3.542  -4.988  0.00  0.00    -0.155 OA
ENDBRANCH  10  13
ENDBRANCH   4   7
BRANCH   1  20
ATOM     20  C   UNL     1       3.779  -0.925   0.223  0.00  0.00    +0.108 C 
BRANCH  20  24
ATOM     21  C   UNL     1       0.210   1.420   0.340  0.00  0.00    +0.000 A 
ATOM     22  C   UNL     1       1.443   2.031   0.472  0.00  0.00    +0.000 A 
ATOM     23  C   UNL     1       2.598   1.272   0.434  0.00  0.00    +0.005 A 
ATOM     24  C   UNL     1       2.520  -0.098   0.265  0.00  0.00    -0.027 A 
ATOM     25  C   UNL     1       1.287  -0.709   0.134  0.00  0.00    +0.005 A 
ATOM     26  C   UNL     1       0.132   0.050   0.170  0.00  0.00    +0.000 A 
ENDBRANCH  20  24
BRANCH  20  27
ATOM     27  C   UNL     1       4.003  -1.582   1.586  0.00  0.00    +0.014 C 
ATOM     28  C   UNL     1       5.191  -1.096   2.419  0.00  0.00    +0.006 C 
ATOM     29  C   UNL     1       5.239  -2.470   1.748  0.00  0.00    +0.006 C 
ENDBRANCH  20  27
ENDBRANCH   1  20
TORSDOF 5
