REMARK  Name = ZINC40370942
REMARK  9 active torsions:
REMARK  status: ('A' for Active; 'I' for Inactive)
REMARK    1  A    between atoms: C_1  and  C_2
REMARK    2  A    between atoms: C_2  and  C_3
REMARK    3  A    between atoms: C_3  and  C_4
REMARK    4  A    between atoms: C_3  and  C_6
REMARK    5  A    between atoms: C_3  and  N_10
REMARK    6  A    between atoms: C_4  and  C_5
REMARK    7  A    between atoms: N_7  and  O_8
REMARK    8  A    between atoms: C_11  and  C_13
REMARK    9  A    between atoms: C_13  and  C_14
REMARK                            x       y       z     vdW  Elec       q    Type
REMARK                         _______ _______ _______ _____ _____    ______ ____
ROOT
ATOM      1  C   UNL     1       0.667  -0.615   1.249  0.00  0.00    +0.092 C 
ENDROOT
BRANCH   1   2
ATOM      2  C   UNL     1       2.078  -0.096   1.355  0.00  0.00    +0.155 C 
ATOM      3  N   UNL     1       3.075  -0.887   1.132  0.00  0.00    -0.075 NA
ATOM      4  N   UNL     1       2.305   1.221   1.688  0.00  0.00    -0.342 N 
ATOM      5  H   UNL     1       1.559   1.834   1.778  0.00  0.00    +0.144 HD
ATOM      6  H   UNL     1       3.211   1.535   1.834  0.00  0.00    +0.144 HD
BRANCH   3   7
ATOM      7  O   UNL     1       4.401  -0.400   1.232  0.00  0.00    -0.408 OA
ATOM      8  H   UNL     1       5.079  -1.064   1.048  0.00  0.00    +0.328 HD
ENDBRANCH   3   7
ENDBRANCH   1   2
BRANCH   1   9
ATOM      9  N   UNL     1      -0.052  -0.329   2.493  0.00  0.00    -0.303 N 
ATOM     10  C   UNL     1      -1.340  -0.704   2.628  0.00  0.00    +0.218 C 
ATOM     11  O   UNL     1      -1.903  -1.278   1.720  0.00  0.00    -0.275 OA
ATOM     12  H   UNL     1       0.398   0.130   3.219  0.00  0.00    +0.150 HD
BRANCH  10  13
ATOM     13  C   UNL     1      -2.080  -0.410   3.907  0.00  0.00    +0.130 C 
BRANCH  13  14
ATOM     14  C   UNL     1      -3.491  -0.928   3.801  0.00  0.00    -0.039 A 
ATOM     15  C   UNL     1      -4.490  -0.115   3.301  0.00  0.00    +0.005 A 
ATOM     16  C   UNL     1      -5.785  -0.590   3.204  0.00  0.00    +0.015 A 
ATOM     17  C   UNL     1      -6.080  -1.880   3.607  0.00  0.00    +0.018 A 
ATOM     18  C   UNL     1      -5.080  -2.694   4.107  0.00  0.00    +0.015 A 
ATOM     19  C   UNL     1      -3.784  -2.220   4.199  0.00  0.00    +0.005 A 
ATOM     20 BR   UNL     1      -7.851  -2.531   3.474  0.00  0.00    -0.050 Br
ENDBRANCH  13  14
ENDBRANCH  10  13
ENDBRANCH   1   9
BRANCH   1  22
ATOM     21  C   UNL     1       0.779  -0.118  -1.197  0.00  0.00    +0.006 C 
ATOM     22  C   UNL     1      -0.042   0.072   0.080  0.00  0.00    +0.030 C 
ENDBRANCH   1  22
BRANCH   1  23
ATOM     23  C   UNL     1       0.696  -2.126   1.012  0.00  0.00    +0.030 C 
ATOM     24  C   UNL     1       1.292  -2.823   2.236  0.00  0.00    +0.006 C 
ENDBRANCH   1  23
TORSDOF 7
