REMARK  Name = ZINC16225297
REMARK  9 active torsions:
REMARK  status: ('A' for Active; 'I' for Inactive)
REMARK    1  A    between atoms: C_1  and  C_2
REMARK    2  A    between atoms: C_2  and  C_3
REMARK    3  A    between atoms: C_3  and  C_4
REMARK    4  A    between atoms: C_4  and  N_5
REMARK    5  A    between atoms: C_6  and  C_8
REMARK    6  A    between atoms: C_8  and  N_19
REMARK    7  A    between atoms: C_9  and  C_10
REMARK    8  A    between atoms: C_14  and  N_16
REMARK    9  A    between atoms: C_20  and  C_22
REMARK                            x       y       z     vdW  Elec       q    Type
REMARK                         _______ _______ _______ _____ _____    ______ ____
ROOT
ATOM      1  C   UNL     1      -1.237   5.956  -0.041  0.00  0.00    +0.097 C 
ATOM      2  C   UNL     1      -0.071   5.311   0.196  0.00  0.00    +0.036 C 
ENDROOT
BRANCH   2   3
ATOM      3  C   UNL     1      -0.084   3.909   0.642  0.00  0.00    -0.021 A 
ATOM      4  C   UNL     1      -1.235   3.367   1.223  0.00  0.00    +0.008 A 
ATOM      5  C   UNL     1      -1.241   2.050   1.633  0.00  0.00    +0.003 A 
ATOM      6  C   UNL     1      -0.108   1.269   1.481  0.00  0.00    +0.033 A 
ATOM      7  C   UNL     1       1.034   1.799   0.907  0.00  0.00    +0.127 A 
ATOM      8  C   UNL     1       1.054   3.112   0.487  0.00  0.00    +0.040 A 
BRANCH   7   9
ATOM      9  N   UNL     1       2.238   0.953   0.744  0.00  0.00    +0.056 N 
ATOM     10  O   UNL     1       2.222  -0.207   1.114  0.00  0.00    -0.126 OA
ATOM     11  O   UNL     1       3.245   1.417   0.239  0.00  0.00    -0.126 OA
ENDBRANCH   7   9
ENDBRANCH   2   3
BRANCH   1  13
ATOM     12  N   UNL     1      -0.074   8.085  -0.315  0.00  0.00    -0.310 N 
ATOM     13  C   UNL     1      -1.236   7.402  -0.306  0.00  0.00    +0.258 C 
ATOM     14  O   UNL     1      -2.284   7.982  -0.519  0.00  0.00    -0.269 OA
ATOM     15  H   UNL     1       0.761   7.623  -0.145  0.00  0.00    +0.149 HD
BRANCH  12  16
ATOM     16  C   UNL     1      -0.073   9.526  -0.580  0.00  0.00    +0.104 C 
BRANCH  16  17
ATOM     17  C   UNL     1       1.363  10.053  -0.531  0.00  0.00    +0.018 C 
BRANCH  17  19
ATOM     18  C   UNL     1       2.799  12.084  -0.759  0.00  0.00    +0.004 C 
ATOM     19  C   UNL     1       1.363  11.557  -0.808  0.00  0.00    -0.002 C 
ENDBRANCH  17  19
ENDBRANCH  16  17
ENDBRANCH  12  16
ENDBRANCH   1  13
BRANCH   1  20
ATOM     20  N   UNL     1      -2.442   5.248  -0.032  0.00  0.00    -0.277 N 
ATOM     21  C   UNL     1      -3.443   5.630   0.786  0.00  0.00    +0.249 C 
ATOM     22  O   UNL     1      -3.267   6.534   1.579  0.00  0.00    -0.270 OA
ATOM     23  H   UNL     1      -2.558   4.481  -0.615  0.00  0.00    +0.155 HD
BRANCH  21  24
ATOM     24  C   UNL     1      -4.753   4.950   0.718  0.00  0.00    +0.050 A 
ATOM     25  C   UNL     1      -4.936   3.865  -0.142  0.00  0.00    +0.014 A 
ATOM     26  C   UNL     1      -6.160   3.232  -0.197  0.00  0.00    +0.001 A 
ATOM     27  C   UNL     1      -7.209   3.676   0.590  0.00  0.00    +0.001 A 
ATOM     28  C   UNL     1      -7.036   4.753   1.441  0.00  0.00    +0.015 A 
ATOM     29  C   UNL     1      -5.814   5.393   1.510  0.00  0.00    +0.025 A 
ATOM     30  I   UNL     1      -5.555   7.024   2.798  0.00  0.00    -0.043 I 
ENDBRANCH  21  24
ENDBRANCH   1  20
TORSDOF 8
