REMARK  Name = ZINC12599075
REMARK  3 active torsions:
REMARK  status: ('A' for Active; 'I' for Inactive)
REMARK    1  A    between atoms: C_8  and  C_10
REMARK    2  A    between atoms: C_16  and  C_18
REMARK    3  A    between atoms: C_19  and  C_20
REMARK                            x       y       z     vdW  Elec       q    Type
REMARK                         _______ _______ _______ _____ _____    ______ ____
ROOT
ATOM      1  C   UNL     1       0.002  -0.004   0.002  0.00  0.00    +0.132 C 
ATOM      2  C   UNL     1       1.481  -0.442  -0.042  0.00  0.00    +0.031 C 
ATOM      3  C   UNL     1       2.196   0.805  -0.627  0.00  0.00    +0.021 C 
ATOM      4  C   UNL     1       1.372   1.958  -0.001  0.00  0.00    +0.109 C 
ATOM      5  N   UNL     1      -0.018   1.466   0.010  0.00  0.00    -0.289 N 
ATOM      6  C   UNL     1      -1.124   2.236   0.020  0.00  0.00    +0.240 C 
ATOM      7  O   UNL     1      -2.226   1.720   0.022  0.00  0.00    -0.271 OA
ENDROOT
BRANCH   1  15
ATOM      8  C   UNL     1      -3.342  -3.162   4.117  0.00  0.00    +0.002 A 
ATOM      9  C   UNL     1      -2.879  -2.401   5.182  0.00  0.00    +0.001 A 
ATOM     10  C   UNL     1      -1.980  -1.378   4.945  0.00  0.00    +0.017 A 
ATOM     11  C   UNL     1      -1.560  -1.134   3.660  0.00  0.00    +0.039 A 
ATOM     12  C   UNL     1      -2.014  -1.893   2.557  0.00  0.00    +0.079 A 
ATOM     13  C   UNL     1      -2.932  -2.928   2.841  0.00  0.00    +0.029 A 
ATOM     14  N   UNL     1      -1.499  -1.516   1.368  0.00  0.00    -0.242 NA
ATOM     15  C   UNL     1      -0.652  -0.532   1.253  0.00  0.00    +0.100 A 
ATOM     16  S   UNL     1      -0.453   0.018   2.887  0.00  0.00    -0.070 S 
ENDBRANCH   1  15
BRANCH   6  17
ATOM     17  C   UNL     1      -0.999   3.694   0.027  0.00  0.00    +0.068 C 
ATOM     18  C   UNL     1      -2.107   4.465   0.037  0.00  0.00    +0.013 C 
BRANCH  18  19
ATOM     19  C   UNL     1      -1.982   5.930   0.044  0.00  0.00    -0.020 A 
ATOM     20  C   UNL     1      -3.130   6.732   0.048  0.00  0.00    +0.057 A 
ATOM     21  C   UNL     1      -3.002   8.106   0.060  0.00  0.00    +0.164 A 
ATOM     22  C   UNL     1      -1.741   8.692   0.057  0.00  0.00    +0.180 A 
ATOM     23  C   UNL     1      -0.600   7.901   0.048  0.00  0.00    +0.087 A 
ATOM     24  C   UNL     1      -0.716   6.526   0.041  0.00  0.00    +0.031 A 
ATOM     25 CL   UNL     1       0.971   8.640   0.044  0.00  0.00    -0.080 Cl
ATOM     26  O   UNL     1      -1.631  10.051   0.064  0.00  0.00    -0.487 OA
ATOM     27  C   UNL     1      -2.048  10.707   1.262  0.00  0.00    +0.232 C 
ATOM     28  C   UNL     1      -3.550  10.943   1.254  0.00  0.00    +0.082 C 
ATOM     29  C   UNL     1      -4.340   9.643   1.268  0.00  0.00    +0.232 C 
ATOM     30  O   UNL     1      -4.113   8.899   0.069  0.00  0.00    -0.488 OA
ENDBRANCH  18  19
ENDBRANCH   6  17
TORSDOF 3
