REMARK  Name = ZINC14965777
REMARK  12 active torsions:
REMARK  status: ('A' for Active; 'I' for Inactive)
REMARK    1  A    between atoms: C_1  and  C_2
REMARK    2  A    between atoms: C_2  and  N_65
REMARK    3  A    between atoms: C_6  and  C_8
REMARK    4  A    between atoms: C_8  and  N_9
REMARK    5  A    between atoms: C_10  and  C_12
REMARK    6  A    between atoms: C_12  and  C_13
REMARK    7  A    between atoms: C_13  and  C_14
REMARK    8  A    between atoms: C_19  and  C_20
REMARK    9  A    between atoms: C_19  and  N_67
REMARK   10  A    between atoms: C_22  and  C_25
REMARK   11  A    between atoms: C_25  and  C_26
REMARK   12  A    between atoms: C_25  and  C_27
REMARK                            x       y       z     vdW  Elec       q    Type
REMARK                         _______ _______ _______ _____ _____    ______ ____
ROOT
ATOM      1  C   UNL     1      -1.252   2.949   3.520  0.00  0.00    -0.014 C 
ATOM      2  C   UNL     1      -1.300   1.430   3.332  0.00  0.00    -0.015 C 
ATOM      3  C   UNL     1      -0.556   1.056   2.048  0.00  0.00    -0.078 C 
ATOM      4  C   UNL     1      -1.108   3.189   1.039  0.00  0.00    -0.078 C 
ATOM      5  C   UNL     1      -1.868   3.627   2.293  0.00  0.00    -0.015 C 
ATOM      6  N   UNL     1      -1.212   1.721   0.902  0.00  0.00    +0.384 N 
ATOM      7  H   UNL     1      -2.205   1.457   0.889  0.00  0.00    -0.081 HD
ENDROOT
BRANCH   1   8
ATOM      8  C   UNL     1      -2.046   3.335   4.770  0.00  0.00    +0.012 C 
BRANCH   8   9
ATOM      9  C   UNL     1      -1.895   4.836   5.027  0.00  0.00    +0.096 C 
BRANCH   9  11
ATOM     10  N   UNL     1      -2.690   6.496   6.679  0.00  0.00    -0.317 N 
ATOM     11  C   UNL     1      -2.677   5.216   6.258  0.00  0.00    +0.213 C 
ATOM     12  O   UNL     1      -3.295   4.370   6.869  0.00  0.00    -0.276 OA
ATOM     13  H   UNL     1      -2.196   7.173   6.190  0.00  0.00    +0.149 HD
BRANCH  10  14
ATOM     14  C   UNL     1      -3.450   6.865   7.875  0.00  0.00    +0.089 C 
BRANCH  14  18
ATOM     15  C   UNL     1      -3.133   9.163  10.455  0.00  0.00    -0.078 C 
ATOM     16  C   UNL     1      -1.816   9.583   9.755  0.00  0.00    -0.020 C 
ATOM     17  C   UNL     1      -1.723   8.542   8.605  0.00  0.00    -0.016 C 
ATOM     18  C   UNL     1      -3.199   8.338   8.205  0.00  0.00    -0.051 C 
ATOM     19  N   UNL     1      -4.024   8.761   9.348  0.00  0.00    +0.382 N 
ATOM     20  H   UNL     1      -4.604   9.562   9.071  0.00  0.00    -0.081 HD
BRANCH  19  22
ATOM     21  C   UNL     1      -5.676   8.069  11.036  0.00  0.00    -0.017 C 
ATOM     22  C   UNL     1      -4.908   7.648   9.782  0.00  0.00    -0.082 C 
ENDBRANCH  19  22
ENDBRANCH  14  18
ENDBRANCH  10  14
ENDBRANCH   9  11
ENDBRANCH   8   9
ENDBRANCH   1   8
BRANCH   6  23
ATOM     23  C   UNL     1      -0.583   1.285  -0.361  0.00  0.00    -0.015 C 
BRANCH  23  24
ATOM     24  C   UNL     1      -1.404   1.801  -1.515  0.00  0.00    +0.062 A 
ATOM     25  N   UNL     1      -1.288   2.933  -2.170  0.00  0.00    -0.251 NA
ATOM     26  C   UNL     1      -2.091   3.235  -3.168  0.00  0.00    +0.051 A 
ATOM     27  C   UNL     1      -3.062   2.349  -3.506  0.00  0.00    +0.070 A 
ATOM     28  S   UNL     1      -2.753   1.053  -2.314  0.00  0.00    -0.082 S 
BRANCH  26  29
ATOM     29  C   UNL     1      -1.940   4.536  -3.914  0.00  0.00    +0.032 C 
ATOM     30  C   UNL     1      -1.086   4.311  -5.164  0.00  0.00    +0.014 C 
ATOM     31  C   UNL     1      -3.320   5.051  -4.325  0.00  0.00    +0.014 C 
ENDBRANCH  26  29
ENDBRANCH  23  24
ENDBRANCH   6  23
TORSDOF 9
