REMARK  Name = ZINC02569036
REMARK  7 active torsions:
REMARK  status: ('A' for Active; 'I' for Inactive)
REMARK    1  A    between atoms: C_1  and  C_2
REMARK    2  A    between atoms: C_2  and  C_3
REMARK    3  A    between atoms: C_10  and  C_17
REMARK    4  A    between atoms: C_12  and  C_13
REMARK    5  A    between atoms: N_15  and  N_16
REMARK    6  A    between atoms: C_20  and  C_22
REMARK    7  A    between atoms: C_22  and  C_23
REMARK                            x       y       z     vdW  Elec       q    Type
REMARK                         _______ _______ _______ _____ _____    ______ ____
ROOT
ATOM      1  C   UNL     1      -0.019   1.503  -0.019  0.00  0.00    -0.022 A 
ATOM      2  C   UNL     1       1.149   2.203  -0.041  0.00  0.00    +0.006 A 
ATOM      3  C   UNL     1       1.153   3.595  -0.034  0.00  0.00    +0.001 A 
ATOM      4  C   UNL     1      -0.016   4.297  -0.005  0.00  0.00    +0.011 A 
ATOM      5  C   UNL     1      -1.234   3.610   0.018  0.00  0.00    +0.013 A 
ATOM      6  C   UNL     1      -1.245   2.192   0.005  0.00  0.00    +0.076 A 
ATOM      7  N   UNL     1      -2.405   1.533   0.033  0.00  0.00    -0.246 NA
ATOM      8  C   UNL     1      -3.568   2.155   0.061  0.00  0.00    +0.079 A 
ATOM      9  C   UNL     1      -3.668   3.557   0.070  0.00  0.00    +0.042 A 
ATOM     10  C   UNL     1      -2.513   4.322   0.049  0.00  0.00    +0.049 A 
ENDROOT
BRANCH   8  11
ATOM     11  C   UNL     1      -4.805   1.351   0.084  0.00  0.00    +0.038 A 
ATOM     12  C   UNL     1      -4.950  -0.012   0.075  0.00  0.00    +0.018 A 
ATOM     13  C   UNL     1      -6.219  -0.542   0.105  0.00  0.00    +0.012 A 
ATOM     14  C   UNL     1      -7.287   0.297   0.132  0.00  0.00    -0.010 A 
ATOM     15  S   UNL     1      -6.503   1.901   0.123  0.00  0.00    -0.092 S 
BRANCH  14  16
ATOM     16  C   UNL     1      -8.756  -0.039   0.162  0.00  0.00    +0.039 C 
ATOM     17  C   UNL     1      -9.222  -0.160   1.614  0.00  0.00    +0.009 C 
ENDBRANCH  14  16
ENDBRANCH   8  11
BRANCH  10  18
ATOM     18  C   UNL     1      -2.569   5.800   0.057  0.00  0.00    +0.258 C 
ATOM     19  O   UNL     1      -1.544   6.447   0.143  0.00  0.00    -0.269 OA
ATOM     20  N   UNL     1      -3.758   6.430  -0.031  0.00  0.00    -0.250 N 
ATOM     21  H   UNL     1      -4.576   5.914  -0.099  0.00  0.00    +0.169 HD
BRANCH  20  22
ATOM     22  N   UNL     1      -3.810   7.795  -0.023  0.00  0.00    -0.254 NA
ATOM     23  H   UNL     1      -3.239   8.183  -0.759  0.00  0.00    +0.140 HD
ATOM     24  H   UNL     1      -4.762   8.121  -0.095  0.00  0.00    +0.140 HD
ENDBRANCH  20  22
ENDBRANCH  10  18
BRANCH   1  26
ATOM     25  C   UNL     1      -0.148  -0.509  -1.463  0.00  0.00    +0.009 C 
ATOM     26  C   UNL     1       0.002  -0.004  -0.027  0.00  0.00    +0.034 C 
ENDBRANCH   1  26
TORSDOF 5
