REMARK  Name = ZINC60366528
REMARK  19 active torsions:
REMARK  status: ('A' for Active; 'I' for Inactive)
REMARK    1  A    between atoms: C_1  and  C_2
REMARK    2  A    between atoms: C_2  and  C_4
REMARK    3  A    between atoms: C_2  and  N_28
REMARK    4  A    between atoms: N_10  and  C_11
REMARK    5  A    between atoms: C_11  and  C_12
REMARK    6  A    between atoms: C_14  and  C_17
REMARK    7  A    between atoms: C_17  and  C_18
REMARK    8  A    between atoms: C_17  and  C_19
REMARK    9  A    between atoms: C_17  and  N_20
REMARK   10  A    between atoms: C_21  and  O_23
REMARK   11  A    between atoms: O_23  and  C_24
REMARK   12  A    between atoms: C_24  and  C_25
REMARK   13  A    between atoms: C_24  and  C_26
REMARK   14  A    between atoms: C_24  and  C_27
REMARK   15  A    between atoms: C_29  and  O_31
REMARK   16  A    between atoms: O_31  and  C_32
REMARK   17  A    between atoms: C_32  and  C_33
REMARK   18  A    between atoms: C_32  and  C_34
REMARK   19  A    between atoms: C_32  and  C_35
REMARK                            x       y       z     vdW  Elec       q    Type
REMARK                         _______ _______ _______ _____ _____    ______ ____
ROOT
ATOM      1  C   UNL     1       0.742  -0.511   1.242  0.00  0.00    -0.047 C 
ATOM      2  C   UNL     1      -0.043  -0.125   2.497  0.00  0.00    -0.014 C 
ATOM      3  C   UNL     1       0.701  -0.634   3.735  0.00  0.00    -0.003 C 
ATOM      4  C   UNL     1       2.120  -0.059   3.738  0.00  0.00    -0.019 C 
ATOM      5  C   UNL     1       2.825  -0.448   2.436  0.00  0.00    -0.078 C 
ATOM      6  N   UNL     1       2.080   0.091   1.292  0.00  0.00    +0.389 N 
ATOM      7  H   UNL     1       1.993   1.092   1.389  0.00  0.00    -0.081 HD
ENDROOT
BRANCH   1   9
ATOM      8  C   UNL     1      -0.019   1.526   0.010  0.00  0.00    +0.026 C 
ATOM      9  C   UNL     1       0.002  -0.004   0.002  0.00  0.00    +0.060 C 
BRANCH   9  10
ATOM     10  N   UNL     1      -1.372  -0.511   0.012  0.00  0.00    -0.280 N 
ATOM     11  C   UNL     1      -2.051  -0.643  -1.145  0.00  0.00    +0.401 C 
ATOM     12  O   UNL     1      -1.523  -0.341  -2.196  0.00  0.00    -0.226 OA
ATOM     13  H   UNL     1      -1.794  -0.752   0.852  0.00  0.00    +0.152 HD
BRANCH  11  14
ATOM     14  O   UNL     1      -3.314  -1.109  -1.135  0.00  0.00    -0.445 OA
BRANCH  14  15
ATOM     15  C   UNL     1      -3.973  -1.222  -2.398  0.00  0.00    +0.107 C 
ATOM     16  C   UNL     1      -3.189  -2.179  -3.298  0.00  0.00    +0.055 C 
ATOM     17  C   UNL     1      -5.388  -1.765  -2.188  0.00  0.00    +0.055 C 
ATOM     18  C   UNL     1      -4.048   0.155  -3.060  0.00  0.00    +0.055 C 
ENDBRANCH  14  15
ENDBRANCH  11  14
ENDBRANCH   9  10
ENDBRANCH   1   9
BRANCH   6  19
ATOM     19  C   UNL     1       2.801  -0.217   0.051  0.00  0.00    +0.022 C 
BRANCH  19  20
ATOM     20  C   UNL     1       4.126   0.502   0.048  0.00  0.00    +0.211 A 
ATOM     21  N   UNL     1       5.251   0.032   0.512  0.00  0.00    -0.195 NA
ATOM     22  C   UNL     1       6.226   0.933   0.349  0.00  0.00    +0.194 A 
ATOM     23  N   UNL     1       5.731   1.993  -0.222  0.00  0.00    -0.059 NA
ATOM     24  O   UNL     1       4.352   1.730  -0.435  0.00  0.00    -0.340 OA
BRANCH  22  25
ATOM     25  C   UNL     1       7.665   0.752   0.762  0.00  0.00    +0.095 C 
ATOM     26  C   UNL     1       7.736   0.515   2.272  0.00  0.00    +0.040 C 
ATOM     27  C   UNL     1       8.257  -0.453   0.028  0.00  0.00    +0.040 C 
BRANCH  25  28
ATOM     28  N   UNL     1       8.426   1.955   0.419  0.00  0.00    -0.269 N 
ATOM     29  C   UNL     1       9.744   2.021   0.697  0.00  0.00    +0.402 C 
ATOM     30  O   UNL     1      10.299   1.082   1.231  0.00  0.00    -0.226 OA
ATOM     31  H   UNL     1       7.983   2.705  -0.007  0.00  0.00    +0.153 HD
BRANCH  29  32
ATOM     32  O   UNL     1      10.444   3.127   0.382  0.00  0.00    -0.445 OA
BRANCH  32  33
ATOM     33  C   UNL     1      11.836   3.128   0.705  0.00  0.00    +0.107 C 
ATOM     34  C   UNL     1      12.530   1.979  -0.029  0.00  0.00    +0.055 C 
ATOM     35  C   UNL     1      12.458   4.458   0.276  0.00  0.00    +0.055 C 
ATOM     36  C   UNL     1      12.009   2.947   2.215  0.00  0.00    +0.055 C 
ENDBRANCH  32  33
ENDBRANCH  29  32
ENDBRANCH  25  28
ENDBRANCH  22  25
ENDBRANCH  19  20
ENDBRANCH   6  19
TORSDOF 10
