REMARK  Name = ZINC03464429
REMARK  6 active torsions:
REMARK  status: ('A' for Active; 'I' for Inactive)
REMARK    1  A    between atoms: C_1  and  C_2
REMARK    2  A    between atoms: C_2  and  C_3
REMARK    3  A    between atoms: C_3  and  C_20
REMARK    4  A    between atoms: N_6  and  C_10
REMARK    5  A    between atoms: C_10  and  C_11
REMARK    6  A    between atoms: N_13  and  C_14
REMARK                            x       y       z     vdW  Elec       q    Type
REMARK                         _______ _______ _______ _____ _____    ______ ____
ROOT
ATOM      1  C   UNL     1      -4.943   8.418   3.262  0.00  0.00    +0.138 C 
ATOM      2  C   UNL     1      -3.555   7.959   2.863  0.00  0.00    +0.251 C 
ATOM      3  O   UNL     1      -2.588   7.839   3.584  0.00  0.00    -0.272 OA
ATOM      4  N   UNL     1      -3.619   7.713   1.540  0.00  0.00    -0.215 N 
ATOM      5  C   UNL     1      -4.841   7.955   1.051  0.00  0.00    +0.310 C 
ATOM      6  O   UNL     1      -5.142   7.811  -0.117  0.00  0.00    -0.252 OA
ATOM      7  N   UNL     1      -5.699   8.374   1.999  0.00  0.00    -0.281 N 
ATOM      8  H   UNL     1      -6.762   8.657   1.984  0.00  0.00    +0.152 HD
ENDROOT
BRANCH   1   9
ATOM      9  C   UNL     1      -5.542   7.478   4.276  0.00  0.00    -0.015 A 
ATOM     10  C   UNL     1      -5.353   7.705   5.626  0.00  0.00    +0.007 A 
ATOM     11  C   UNL     1      -5.907   6.846   6.556  0.00  0.00    +0.020 A 
ATOM     12  C   UNL     1      -6.641   5.751   6.136  0.00  0.00    +0.041 A 
ATOM     13  C   UNL     1      -6.824   5.520   4.784  0.00  0.00    +0.020 A 
ATOM     14  C   UNL     1      -6.275   6.384   3.855  0.00  0.00    +0.007 A 
ATOM     15 CL   UNL     1      -7.330   4.667   7.303  0.00  0.00    -0.084 Cl
ENDBRANCH   1   9
BRANCH   1  17
ATOM     16  C   UNL     1      -4.457  10.806   2.709  0.00  0.00    +0.007 C 
ATOM     17  C   UNL     1      -4.901   9.845   3.814  0.00  0.00    +0.037 C 
ENDBRANCH   1  17
BRANCH   4  18
ATOM     18  C   UNL     1      -2.489   7.245   0.734  0.00  0.00    +0.213 C 
BRANCH  18  19
ATOM     19  C   UNL     1      -2.468   5.738   0.726  0.00  0.00    +0.231 C 
ATOM     20  O   UNL     1      -3.314   5.117   1.333  0.00  0.00    -0.274 OA
ATOM     21  N   UNL     1      -1.510   5.081   0.044  0.00  0.00    -0.311 N 
ATOM     22  H   UNL     1      -0.742   5.644  -0.507  0.00  0.00    +0.149 HD
BRANCH  21  23
ATOM     23  C   UNL     1      -1.490   3.616   0.036  0.00  0.00    +0.073 C 
ATOM     24  C   UNL     1      -0.773   3.123  -1.223  0.00  0.00    +0.022 C 
ATOM     25  C   UNL     1      -0.753   1.593  -1.232  0.00  0.00    +0.002 C 
ATOM     26  C   UNL     1      -0.013   1.086   0.008  0.00  0.00    +0.000 C 
ATOM     27  C   UNL     1      -0.729   1.579   1.267  0.00  0.00    +0.002 C 
ATOM     28  C   UNL     1      -0.750   3.109   1.275  0.00  0.00    +0.022 C 
ENDBRANCH  21  23
ENDBRANCH  18  19
ENDBRANCH   4  18
TORSDOF 5
