REMARK  Name = ZINC38984421
REMARK  5 active torsions:
REMARK  status: ('A' for Active; 'I' for Inactive)
REMARK    1  A    between atoms: C_1  and  C_2
REMARK    2  A    between atoms: C_7  and  N_8
REMARK    3  A    between atoms: N_8  and  C_9
REMARK    4  A    between atoms: N_12  and  S_13
REMARK    5  A    between atoms: S_13  and  C_16
REMARK                            x       y       z     vdW  Elec       q    Type
REMARK                         _______ _______ _______ _____ _____    ______ ____
ROOT
ATOM      1  C   UNL     1      -0.063  -0.754   3.677  0.00  0.00    +0.237 C 
ATOM      2  C   UNL     1       0.946  -0.158   4.633  0.00  0.00    +0.192 C 
ATOM      3  N   UNL     1       2.208  -0.118   4.319  0.00  0.00    -0.110 NA
ATOM      4  N   UNL     1       0.520   0.330   5.809  0.00  0.00    -0.226 NA
ATOM      5  C   UNL     1      -0.751   0.301   6.149  0.00  0.00    +0.089 A 
ATOM      6  C   UNL     1      -1.165   0.826   7.399  0.00  0.00    +0.030 A 
ATOM      7  C   UNL     1      -2.469   0.798   7.753  0.00  0.00    +0.002 A 
ATOM      8  C   UNL     1      -3.470   0.263   6.926  0.00  0.00    +0.002 A 
ATOM      9  C   UNL     1      -3.184  -0.263   5.715  0.00  0.00    +0.027 A 
ATOM     10  C   UNL     1      -1.788  -0.271   5.255  0.00  0.00    +0.063 A 
ATOM     11  N   UNL     1      -1.475  -0.768   4.091  0.00  0.00    -0.359 N 
ATOM     12  H   UNL     1      -2.158  -1.140   3.511  0.00  0.00    +0.162 HD
ENDROOT
BRANCH   3  13
ATOM     13  S   UNL     1       3.302   0.538   5.375  0.00  0.00    +0.103 S 
ATOM     14  O   UNL     1       2.999   1.923   5.466  0.00  0.00    -0.146 OA
ATOM     15  O   UNL     1       3.329  -0.313   6.513  0.00  0.00    -0.146 OA
BRANCH  13  16
ATOM     16  C   UNL     1       4.890   0.419   4.619  0.00  0.00    +0.141 A 
ATOM     17  C   UNL     1       5.564   1.544   4.285  0.00  0.00    +0.031 A 
ATOM     18  C   UNL     1       6.823   1.488   3.686  0.00  0.00    +0.004 A 
ATOM     19  C   UNL     1       7.424   0.306   3.413  0.00  0.00    +0.031 A 
ATOM     20  C   UNL     1       6.775  -0.916   3.736  0.00  0.00    +0.102 A 
ATOM     21  C   UNL     1       5.462  -0.857   4.368  0.00  0.00    +0.127 A 
ATOM     22  N   UNL     1       4.952  -2.062   4.630  0.00  0.00    -0.189 NA
ATOM     23  S   UNL     1       6.053  -3.119   4.122  0.00  0.00    +0.117 S 
ATOM     24  N   UNL     1       7.209  -2.162   3.543  0.00  0.00    -0.191 NA
ENDBRANCH  13  16
ENDBRANCH   3  13
BRANCH   1  25
ATOM     25  N   UNL     1       0.026  -0.016   2.415  0.00  0.00    -0.318 N 
ATOM     26  H   UNL     1      -0.017   0.954   2.416  0.00  0.00    +0.148 HD
BRANCH  25  33
ATOM     27  C   UNL     1       0.453   1.497   0.044  0.00  0.00    +0.045 C 
ATOM     28  C   UNL     1       0.381  -0.009   0.028  0.00  0.00    -0.029 A 
ATOM     29  C   UNL     1       0.530  -0.695  -1.161  0.00  0.00    +0.006 A 
ATOM     30  C   UNL     1       0.465  -2.076  -1.177  0.00  0.00    +0.020 A 
ATOM     31  C   UNL     1       0.249  -2.775  -0.002  0.00  0.00    +0.043 A 
ATOM     32  C   UNL     1       0.099  -2.094   1.191  0.00  0.00    +0.043 A 
ATOM     33  C   UNL     1       0.171  -0.707   1.210  0.00  0.00    +0.033 A 
ATOM     34 CL   UNL     1       0.168  -4.509  -0.028  0.00  0.00    -0.083 Cl
ENDBRANCH  25  33
ENDBRANCH   1  25
TORSDOF 4
