REMARK  Name = ZINC39666636
REMARK  7 active torsions:
REMARK  status: ('A' for Active; 'I' for Inactive)
REMARK    1  A    between atoms: C_1  and  C_2
REMARK    2  A    between atoms: C_2  and  C_4
REMARK    3  A    between atoms: C_2  and  O_31
REMARK    4  A    between atoms: C_4  and  N_5
REMARK    5  A    between atoms: C_6  and  C_8
REMARK    6  A    between atoms: C_19  and  C_21
REMARK    7  A    between atoms: O_31  and  C_32
REMARK                            x       y       z     vdW  Elec       q    Type
REMARK                         _______ _______ _______ _____ _____    ______ ____
ROOT
ATOM      1  C   UNL     1      -3.035  -4.303   0.046  0.00  0.00    +0.100 C 
ATOM      2  C   UNL     1      -2.615  -4.914   1.403  0.00  0.00    +0.121 C 
ATOM      3  N   UNL     1      -3.870  -4.977   2.189  0.00  0.00    -0.295 N 
ATOM      4  C   UNL     1      -4.901  -5.385   1.205  0.00  0.00    +0.115 C 
ATOM      5  C   UNL     1      -4.535  -4.618  -0.081  0.00  0.00    -0.004 C 
ATOM      6  C   UNL     1      -5.340  -3.325  -0.170  0.00  0.00    -0.010 C 
ATOM      7  C   UNL     1      -6.822  -3.664  -0.354  0.00  0.00    -0.082 C 
ATOM      8  N   UNL     1      -6.997  -4.458  -1.576  0.00  0.00    +0.379 N 
ATOM      9  C   UNL     1      -6.295  -5.740  -1.445  0.00  0.00    -0.082 C 
ATOM     10  C   UNL     1      -4.790  -5.489  -1.307  0.00  0.00    -0.010 C 
ATOM     11  C   UNL     1      -4.036  -4.722   3.502  0.00  0.00    +0.265 C 
ATOM     12  O   UNL     1      -3.107  -4.298   4.160  0.00  0.00    -0.268 OA
ATOM     13  H   UNL     1      -7.980  -4.628  -1.727  0.00  0.00    -0.086 HD
ATOM     14  H   UNL     1      -6.621  -3.950  -2.362  0.00  0.00    -0.086 HD
ENDROOT
BRANCH  11  15
ATOM     15  C   UNL     1      -5.352  -4.958   4.142  0.00  0.00    +0.126 A 
ATOM     16  C   UNL     1      -5.542  -4.577   5.479  0.00  0.00    +0.033 A 
ATOM     17  C   UNL     1      -6.749  -4.789   6.080  0.00  0.00    +0.012 A 
ATOM     18  C   UNL     1      -7.774  -5.390   5.324  0.00  0.00    +0.000 A 
ATOM     19  C   UNL     1      -9.040  -5.637   5.879  0.00  0.00    +0.010 A 
ATOM     20  C   UNL     1     -10.006  -6.220   5.118  0.00  0.00    +0.001 A 
ATOM     21  C   UNL     1      -9.757  -6.577   3.793  0.00  0.00    +0.002 A 
ATOM     22  C   UNL     1      -8.543  -6.353   3.222  0.00  0.00    +0.028 A 
ATOM     23  C   UNL     1      -7.517  -5.752   3.976  0.00  0.00    +0.072 A 
ATOM     24  N   UNL     1      -6.319  -5.517   3.440  0.00  0.00    -0.242 NA
ENDBRANCH  11  15
BRANCH   1  26
ATOM     25  N   UNL     1      -2.705  -2.145  -1.116  0.00  0.00    -0.312 N 
ATOM     26  C   UNL     1      -2.810  -2.813   0.050  0.00  0.00    +0.218 C 
ATOM     27  O   UNL     1      -2.723  -2.215   1.101  0.00  0.00    -0.275 OA
ATOM     28  H   UNL     1      -2.701  -2.631  -1.955  0.00  0.00    +0.149 HD
BRANCH  25  29
ATOM     29  C   UNL     1      -2.596  -0.684  -1.116  0.00  0.00    +0.148 C 
BRANCH  29  31
ATOM     30  C   UNL     1      -2.628   1.359  -2.553  0.00  0.00    +0.053 C 
ATOM     31  C   UNL     1      -2.616  -0.171  -2.557  0.00  0.00    +0.187 C 
BRANCH  31  32
ATOM     32  O   UNL     1      -1.452  -0.636  -3.244  0.00  0.00    -0.486 OA
BRANCH  32  33
ATOM     33  C   UNL     1      -1.535  -0.740  -4.597  0.00  0.00    +0.139 A 
ATOM     34  C   UNL     1      -2.670  -0.296  -5.260  0.00  0.00    +0.047 A 
ATOM     35  C   UNL     1      -2.752  -0.402  -6.635  0.00  0.00    +0.004 A 
ATOM     36  C   UNL     1      -1.703  -0.950  -7.351  0.00  0.00    +0.002 A 
ATOM     37  C   UNL     1      -0.571  -1.393  -6.694  0.00  0.00    +0.023 A 
ATOM     38  C   UNL     1      -0.481  -1.284  -5.318  0.00  0.00    +0.083 A 
ATOM     39 CL   UNL     1       0.944  -1.833  -4.494  0.00  0.00    -0.080 Cl
ENDBRANCH  32  33
ENDBRANCH  31  32
ENDBRANCH  29  31
ENDBRANCH  25  29
ENDBRANCH   1  26
TORSDOF 6
