REMARK  Name = ZINC36571266
REMARK  11 active torsions:
REMARK  status: ('A' for Active; 'I' for Inactive)
REMARK    1  A    between atoms: C_1  and  C_2
REMARK    2  A    between atoms: C_2  and  C_3
REMARK    3  A    between atoms: C_3  and  N_4
REMARK    4  A    between atoms: N_4  and  C_5
REMARK    5  A    between atoms: C_5  and  C_7
REMARK    6  A    between atoms: C_5  and  C_17
REMARK    7  A    between atoms: C_10  and  C_13
REMARK    8  A    between atoms: N_19  and  C_20
REMARK    9  A    between atoms: C_26  and  C_28
REMARK   10  A    between atoms: C_32  and  O_35
REMARK   11  A    between atoms: C_33  and  O_34
REMARK                            x       y       z     vdW  Elec       q    Type
REMARK                         _______ _______ _______ _____ _____    ______ ____
ROOT
ATOM      1  C   UNL     1      -1.460  -2.828   1.438  0.00  0.00    +0.192 C 
ENDROOT
BRANCH   1   2
ATOM      2  C   UNL     1      -0.323  -2.236   2.231  0.00  0.00    -0.018 A 
ATOM      3  C   UNL     1      -0.180  -0.864   2.315  0.00  0.00    +0.006 A 
ATOM      4  C   UNL     1       0.863  -0.321   3.042  0.00  0.00    +0.013 A 
ATOM      5  C   UNL     1       1.763  -1.150   3.685  0.00  0.00    +0.055 A 
ATOM      6  C   UNL     1       1.619  -2.523   3.601  0.00  0.00    +0.013 A 
ATOM      7  C   UNL     1       0.574  -3.065   2.878  0.00  0.00    +0.006 A 
BRANCH   5   8
ATOM      8  C   UNL     1       2.900  -0.559   4.477  0.00  0.00    +0.417 C 
ATOM      9  F   UNL     1       2.494  -0.361   5.801  0.00  0.00    -0.166 F 
ATOM     10  F   UNL     1       3.992  -1.433   4.449  0.00  0.00    -0.166 F 
ATOM     11  F   UNL     1       3.271   0.668   3.915  0.00  0.00    -0.166 F 
ENDBRANCH   5   8
ENDBRANCH   1   2
BRANCH   1  12
ATOM     12  C   UNL     1      -2.744  -2.678   2.213  0.00  0.00    +0.238 C 
ATOM     13  O   UNL     1      -3.697  -2.127   1.706  0.00  0.00    -0.273 OA
ATOM     14  N   UNL     1      -2.832  -3.157   3.470  0.00  0.00    -0.311 N 
ATOM     15  H   UNL     1      -2.069  -3.598   3.876  0.00  0.00    +0.149 HD
BRANCH  14  16
ATOM     16  C   UNL     1      -4.080  -3.011   4.223  0.00  0.00    +0.073 C 
ATOM     17  C   UNL     1      -4.110  -1.640   4.901  0.00  0.00    +0.022 C 
ATOM     18  C   UNL     1      -5.413  -1.488   5.687  0.00  0.00    +0.002 C 
ATOM     19  C   UNL     1      -5.497  -2.584   6.751  0.00  0.00    +0.000 C 
ATOM     20  C   UNL     1      -5.467  -3.956   6.074  0.00  0.00    +0.002 C 
ATOM     21  C   UNL     1      -4.164  -4.108   5.287  0.00  0.00    +0.022 C 
ENDBRANCH  14  16
ENDBRANCH   1  12
BRANCH   1  22
ATOM     22  N   UNL     1      -1.579  -2.127   0.157  0.00  0.00    -0.282 N 
ATOM     23  C   UNL     1      -0.636  -2.294  -0.792  0.00  0.00    +0.251 C 
ATOM     24  O   UNL     1      -0.778  -1.783  -1.886  0.00  0.00    -0.270 OA
BRANCH  23  25
ATOM     25  C   UNL     1       0.568  -3.096  -0.503  0.00  0.00    +0.082 A 
ATOM     26  C   UNL     1       0.681  -3.782   0.710  0.00  0.00    +0.017 A 
ATOM     27  C   UNL     1       1.806  -4.531   0.976  0.00  0.00    +0.005 A 
ATOM     28  C   UNL     1       2.830  -4.609   0.047  0.00  0.00    +0.049 A 
ATOM     29  C   UNL     1       2.734  -3.936  -1.159  0.00  0.00    +0.159 A 
ATOM     30  C   UNL     1       1.601  -3.180  -1.444  0.00  0.00    +0.171 A 
BRANCH  30  31
ATOM     31  O   UNL     1       1.499  -2.523  -2.628  0.00  0.00    -0.503 OA
ATOM     32  H   UNL     1       1.856  -1.624  -2.610  0.00  0.00    +0.292 HD
ENDBRANCH  30  31
BRANCH  29  33
ATOM     33  O   UNL     1       3.744  -4.017  -2.066  0.00  0.00    -0.503 OA
ATOM     34  H   UNL     1       3.651  -4.748  -2.693  0.00  0.00    +0.292 HD
ENDBRANCH  29  33
ENDBRANCH  23  25
BRANCH  22  35
ATOM     35  C   UNL     1      -2.722  -1.246  -0.093  0.00  0.00    +0.109 C 
BRANCH  35  37
ATOM     36  C   UNL     1      -5.132  -1.176  -0.749  0.00  0.00    +0.005 C 
ATOM     37  C   UNL     1      -3.901  -2.074  -0.607  0.00  0.00    +0.016 C 
ENDBRANCH  35  37
ENDBRANCH  22  35
ENDBRANCH   1  22
TORSDOF 10
