REMARK  Name = ZINC50359236
REMARK  2 active torsions:
REMARK  status: ('A' for Active; 'I' for Inactive)
REMARK    1  A    between atoms: C_5  and  C_6
REMARK    2  A    between atoms: C_8  and  C_11
REMARK                            x       y       z     vdW  Elec       q    Type
REMARK                         _______ _______ _______ _____ _____    ______ ____
ROOT
ATOM      1  C   UNK     1      -0.016   1.359   0.009  0.00  0.00    +0.068 A 
ATOM      2  C   UNK     1       1.326   1.782  -0.001  0.00  0.00    +0.071 A 
ATOM      3  C   UNK     1       2.092   0.670  -0.014  0.00  0.00    +0.185 A 
ATOM      4  O   UNK     1       1.289  -0.406  -0.012  0.00  0.00    -0.445 OA
ATOM      5  C   UNK     1       0.002  -0.004   0.002  0.00  0.00    +0.162 A 
ATOM      6 BR   UNK     1       3.983   0.635  -0.033  0.00  0.00    -0.007 Br
ATOM      7 BR   UNK     1       1.940   3.571   0.003  0.00  0.00    -0.046 Br
ENDROOT
BRANCH   5   8
ATOM      8  C   UNK     1      -1.177  -0.884   0.009  0.00  0.00    +0.144 A 
ATOM      9  N   UNK     1      -1.228  -2.204   0.007  0.00  0.00    -0.233 NA
ATOM     10  C   UNK     1      -2.425  -2.793   0.014  0.00  0.00    +0.111 A 
ATOM     11  C   UNK     1      -3.555  -1.994   0.022  0.00  0.00    +0.078 A 
ATOM     12  S   UNK     1      -2.905  -0.442   0.028  0.00  0.00    -0.072 S 
BRANCH  10  13
ATOM     13  C   UNK     1      -2.541  -4.253   0.013  0.00  0.00    +0.279 C 
ATOM     14  O   UNK     1      -1.541  -4.941   0.006  0.00  0.00    -0.294 OA
ENDBRANCH  10  13
ENDBRANCH   5   8
TORSDOF 2
