REMARK  Name = ZINC25460335
REMARK  13 active torsions:
REMARK  status: ('A' for Active; 'I' for Inactive)
REMARK    1  A    between atoms: C_1  and  C_2
REMARK    2  A    between atoms: C_2  and  O_3
REMARK    3  A    between atoms: O_3  and  C_4
REMARK    4  A    between atoms: C_4  and  C_6
REMARK    5  A    between atoms: C_9  and  S_13
REMARK    6  A    between atoms: C_11  and  N_12
REMARK    7  A    between atoms: S_13  and  C_14
REMARK    8  A    between atoms: C_14  and  C_15
REMARK    9  A    between atoms: C_16  and  C_32
REMARK   10  A    between atoms: C_17  and  C_26
REMARK   11  A    between atoms: N_22  and  C_23
REMARK   12  A    between atoms: C_32  and  O_34
REMARK   13  A    between atoms: O_34  and  C_35
REMARK                            x       y       z     vdW  Elec       q    Type
REMARK                         _______ _______ _______ _____ _____    ______ ____
ROOT
ATOM      1  C   UNL     1       0.943   3.515  -0.588  0.00  0.00    +0.037 C 
ATOM      2  C   UNL     1      -0.299   3.983  -0.340  0.00  0.00    +0.079 C 
ATOM      3  C   UNL     1      -1.408   2.970  -0.141  0.00  0.00    +0.144 C 
ATOM      4  N   UNL     1      -1.038   1.548  -0.240  0.00  0.00    -0.288 N 
ATOM      5  C   UNL     1       0.250   1.236  -0.490  0.00  0.00    +0.307 C 
ATOM      6  O   UNL     1       0.566   0.065  -0.570  0.00  0.00    -0.252 OA
ATOM      7  N   UNL     1       1.190   2.174  -0.657  0.00  0.00    -0.255 N 
ATOM      8  H   UNL     1      -1.804   0.770  -0.112  0.00  0.00    +0.151 HD
ENDROOT
BRANCH   3   9
ATOM      9  C   UNL     1      -2.475   3.241  -1.170  0.00  0.00    -0.023 A 
ATOM     10  C   UNL     1      -2.313   2.794  -2.468  0.00  0.00    +0.006 A 
ATOM     11  C   UNL     1      -3.294   3.039  -3.411  0.00  0.00    +0.000 A 
ATOM     12  C   UNL     1      -4.432   3.739  -3.058  0.00  0.00    +0.000 A 
ATOM     13  C   UNL     1      -4.592   4.190  -1.761  0.00  0.00    +0.000 A 
ATOM     14  C   UNL     1      -3.613   3.941  -0.817  0.00  0.00    +0.006 A 
ENDBRANCH   3   9
BRANCH   7  15
ATOM     15  C   UNL     1       2.562   1.737  -0.930  0.00  0.00    +0.083 C 
ATOM     16  C   UNL     1       3.091   0.538  -0.141  0.00  0.00    +0.025 C 
ATOM     17  C   UNL     1       3.602   1.947   0.172  0.00  0.00    +0.025 C 
ENDBRANCH   7  15
BRANCH   2  18
ATOM     18  C   UNL     1      -0.556   5.372  -0.268  0.00  0.00    +0.339 C 
ATOM     19  O   UNL     1      -0.582   5.931   0.812  0.00  0.00    -0.245 OA
BRANCH  18  20
ATOM     20  O   UNL     1      -0.774   6.077  -1.398  0.00  0.00    -0.465 OA
ATOM     21  C   UNL     1      -1.028   7.476  -1.251  0.00  0.00    +0.280 C 
ENDBRANCH  18  20
ENDBRANCH   2  18
BRANCH   1  22
ATOM     22  C   UNL     1       2.075   4.489  -0.791  0.00  0.00    +0.129 C 
BRANCH  22  23
ATOM     23  S   UNL     1       3.054   4.602   0.727  0.00  0.00    -0.080 S 
BRANCH  23  27
ATOM     24  C   UNL     1       6.120   7.558  -0.565  0.00  0.00    +0.116 A 
ATOM     25  C   UNL     1       5.107   7.140  -1.437  0.00  0.00    +0.132 A 
ATOM     26  N   UNL     1       4.221   6.258  -1.015  0.00  0.00    -0.229 NA
ATOM     27  C   UNL     1       4.271   5.772   0.221  0.00  0.00    +0.190 A 
ATOM     28  N   UNL     1       5.210   6.136   1.082  0.00  0.00    -0.206 NA
ATOM     29  C   UNL     1       6.143   7.014   0.739  0.00  0.00    +0.135 A 
BRANCH  29  30
ATOM     30  N   UNL     1       7.118   7.391   1.639  0.00  0.00    -0.342 N 
ATOM     31  H   UNL     1       7.127   6.961   2.651  0.00  0.00    +0.144 HD
ATOM     32  H   UNL     1       7.887   8.120   1.343  0.00  0.00    +0.144 HD
ENDBRANCH  29  30
BRANCH  24  33
ATOM     33  C   UNL     1       7.131   8.535  -0.994  0.00  0.00    +0.344 C 
ATOM     34  O   UNL     1       8.061   8.809  -0.261  0.00  0.00    -0.245 OA
BRANCH  33  35
ATOM     35  O   UNL     1       7.026   9.127  -2.201  0.00  0.00    -0.461 OA
BRANCH  35  37
ATOM     36  C   UNL     1       7.775  10.644  -3.953  0.00  0.00    +0.048 C 
ATOM     37  C   UNL     1       8.060  10.081  -2.559  0.00  0.00    +0.229 C 
ENDBRANCH  35  37
ENDBRANCH  33  35
ENDBRANCH  24  33
ENDBRANCH  23  27
ENDBRANCH  22  23
ENDBRANCH   1  22
TORSDOF 11
