REMARK  Name = ZINC05284783
REMARK  6 active torsions:
REMARK  status: ('A' for Active; 'I' for Inactive)
REMARK    1  A    between atoms: C_1  and  C_2
REMARK    2  A    between atoms: C_2  and  C_3
REMARK    3  A    between atoms: C_2  and  O_4
REMARK    4  A    between atoms: O_4  and  C_5
REMARK    5  A    between atoms: C_6  and  C_13
REMARK    6  A    between atoms: N_14  and  N_15
REMARK                            x       y       z     vdW  Elec       q    Type
REMARK                         _______ _______ _______ _____ _____    ______ ____
ROOT
ATOM      1  C   UNL     1       0.160  -2.852   0.279  0.00  0.00    +0.143 A 
ATOM      2  C   UNL     1      -1.065  -2.213   0.517  0.00  0.00    +0.039 A 
ATOM      3  C   UNL     1      -2.246  -2.960   0.514  0.00  0.00    +0.028 A 
ATOM      4  C   UNL     1      -2.199  -4.320   0.283  0.00  0.00    +0.020 A 
ATOM      5  C   UNL     1      -0.986  -4.948   0.053  0.00  0.00    +0.034 A 
ATOM      6  C   UNL     1       0.190  -4.219   0.054  0.00  0.00    +0.061 A 
ATOM      7 BR   UNL     1       1.839  -5.089  -0.261  0.00  0.00    -0.046 Br
ATOM      8 BR   UNL     1      -3.797  -5.330   0.280  0.00  0.00    -0.050 Br
ENDROOT
BRANCH   2   9
ATOM      9  C   UNL     1      -1.108  -0.761   0.762  0.00  0.00    +0.146 C 
ATOM     10  N   UNL     1      -0.025  -0.053   0.658  0.00  0.00    -0.152 NA
BRANCH  10  11
ATOM     11  N   UNL     1      -0.043   1.308   0.989  0.00  0.00    -0.095 N 
ATOM     12  C   UNL     1       1.014   2.167   1.022  0.00  0.00    +0.255 A 
ATOM     13  N   UNL     1       0.542   3.341   1.383  0.00  0.00    -0.091 NA
ATOM     14  N   UNL     1      -0.726   3.278   1.577  0.00  0.00    -0.020 NA
ATOM     15  N   UNL     1      -1.158   2.084   1.354  0.00  0.00    -0.020 NA
ATOM     16  N   UNL     1       2.332   1.863   0.730  0.00  0.00    -0.325 N 
ATOM     17  H   UNL     1       2.565   0.981   0.402  0.00  0.00    +0.145 HD
ATOM     18  H   UNL     1       3.023   2.533   0.855  0.00  0.00    +0.145 HD
ENDBRANCH  10  11
ENDBRANCH   2   9
BRANCH   1  19
ATOM     19  O   UNL     1       1.313  -2.135   0.274  0.00  0.00    -0.488 OA
BRANCH  19  21
ATOM     20  C   UNL     1       3.568  -1.897   1.109  0.00  0.00    +0.051 C 
ATOM     21  C   UNL     1       2.105  -2.171   1.462  0.00  0.00    +0.167 C 
ATOM     22  C   UNL     1       1.607  -1.103   2.439  0.00  0.00    +0.051 C 
ENDBRANCH  19  21
ENDBRANCH   1  19
TORSDOF 4
