REMARK  Name = ZINC08819583
REMARK  11 active torsions:
REMARK  status: ('A' for Active; 'I' for Inactive)
REMARK    1  A    between atoms: C_1  and  O_2
REMARK    2  A    between atoms: O_2  and  C_3
REMARK    3  A    between atoms: C_3  and  C_5
REMARK    4  A    between atoms: C_8  and  C_11
REMARK    5  A    between atoms: N_15  and  C_19
REMARK    6  A    between atoms: C_19  and  C_20
REMARK    7  A    between atoms: C_20  and  C_21
REMARK    8  A    between atoms: C_21  and  C_22
REMARK    9  A    between atoms: N_24  and  N_25
REMARK   10  A    between atoms: C_26  and  C_28
REMARK   11  A    between atoms: C_31  and  O_34
REMARK                            x       y       z     vdW  Elec       q    Type
REMARK                         _______ _______ _______ _____ _____    ______ ____
ROOT
ATOM      1  C   UNL     1       5.547   0.484   0.191  0.00  0.00    +0.115 C 
ENDROOT
BRANCH   1   6
ATOM      2  C   UNL     1       8.350   4.145   2.031  0.00  0.00    +0.028 C 
ATOM      3  C   UNL     1       7.863   3.292   1.095  0.00  0.00    +0.077 C 
ATOM      4  C   UNL     1       6.836   2.233   1.224  0.00  0.00    +0.258 C 
ATOM      5  O   UNL     1       6.279   2.008   2.282  0.00  0.00    -0.269 OA
ATOM      6  N   UNL     1       6.555   1.546   0.130  0.00  0.00    -0.255 N 
ATOM      7  C   UNL     1       7.178   1.796  -1.039  0.00  0.00    +0.121 C 
ATOM      8  S   UNL     1       6.959   1.018  -2.548  0.00  0.00    -0.027 S 
ATOM      9  S   UNL     1       8.286   3.137  -0.635  0.00  0.00    -0.061 S 
BRANCH   2  13
ATOM     10  C   UNL     1      11.651   6.633   1.117  0.00  0.00    +0.059 A 
ATOM     11  C   UNL     1      10.951   6.814   2.313  0.00  0.00    +0.015 A 
ATOM     12  C   UNL     1       9.886   6.012   2.609  0.00  0.00    +0.009 A 
ATOM     13  C   UNL     1       9.495   5.008   1.714  0.00  0.00    -0.024 A 
ATOM     14  C   UNL     1      10.201   4.825   0.518  0.00  0.00    +0.009 A 
ATOM     15  C   UNL     1      11.263   5.632   0.222  0.00  0.00    +0.015 A 
BRANCH  10  16
ATOM     16  C   UNL     1      12.802   7.501   0.797  0.00  0.00    +0.339 C 
ATOM     17  O   UNL     1      13.140   8.372   1.575  0.00  0.00    -0.245 OA
BRANCH  16  19
ATOM     18  C   UNL     1      14.598   8.217  -0.603  0.00  0.00    +0.280 C 
ATOM     19  O   UNL     1      13.477   7.328  -0.355  0.00  0.00    -0.464 OA
ENDBRANCH  16  19
ENDBRANCH  10  16
ENDBRANCH   2  13
ENDBRANCH   1   6
BRANCH   1  20
ATOM     20  C   UNL     1       4.170   1.070  -0.125  0.00  0.00    +0.029 C 
BRANCH  20  21
ATOM     21  C   UNL     1       3.117  -0.039  -0.061  0.00  0.00    +0.099 C 
BRANCH  21  22
ATOM     22  C   UNL     1       1.760   0.538  -0.372  0.00  0.00    +0.229 C 
ATOM     23  O   UNL     1       1.646   1.720  -0.620  0.00  0.00    -0.274 OA
ATOM     24  N   UNL     1       0.673  -0.259  -0.375  0.00  0.00    -0.234 N 
ATOM     25  H   UNL     1       0.765  -1.204  -0.177  0.00  0.00    +0.173 HD
BRANCH  24  26
ATOM     26  N   UNL     1      -0.587   0.277  -0.669  0.00  0.00    -0.230 N 
ATOM     27  C   UNL     1      -1.673  -0.522  -0.677  0.00  0.00    +0.260 C 
ATOM     28  O   UNL     1      -1.559  -1.706  -0.429  0.00  0.00    -0.269 OA
ATOM     29  H   UNL     1      -0.679   1.222  -0.867  0.00  0.00    +0.173 HD
BRANCH  27  30
ATOM     30  C   UNL     1      -3.002   0.042  -0.987  0.00  0.00    +0.038 A 
ATOM     31  C   UNL     1      -3.136   1.405  -1.267  0.00  0.00    +0.016 A 
ATOM     32  C   UNL     1      -4.376   1.926  -1.562  0.00  0.00    +0.046 A 
ATOM     33  C   UNL     1      -5.495   1.101  -1.569  0.00  0.00    +0.117 A 
ATOM     34  C   UNL     1      -5.366  -0.254  -1.286  0.00  0.00    +0.046 A 
ATOM     35  C   UNL     1      -4.129  -0.784  -0.996  0.00  0.00    +0.016 A 
BRANCH  33  36
ATOM     36  O   UNL     1      -6.716   1.619  -1.855  0.00  0.00    -0.507 OA
ATOM     37  H   UNL     1      -7.200   1.937  -1.080  0.00  0.00    +0.292 HD
ENDBRANCH  33  36
ENDBRANCH  27  30
ENDBRANCH  24  26
ENDBRANCH  21  22
ENDBRANCH  20  21
ENDBRANCH   1  20
TORSDOF 10
