REMARK  Name = ZINC36964797
REMARK  3 active torsions:
REMARK  status: ('A' for Active; 'I' for Inactive)
REMARK    1  A    between atoms: N_10  and  C_13
REMARK    2  A    between atoms: C_13  and  C_14
REMARK    3  A    between atoms: C_16  and  N_21
REMARK                            x       y       z     vdW  Elec       q    Type
REMARK                         _______ _______ _______ _____ _____    ______ ____
ROOT
ATOM      1  C   UNL     1       2.884   1.147  -0.656  0.00  0.00    +0.005 A 
ATOM      2  C   UNL     1       1.677   1.808  -0.850  0.00  0.00    +0.018 A 
ATOM      3  C   UNL     1       0.506   1.079  -0.893  0.00  0.00    +0.084 A 
ATOM      4  N   UNL     1       0.521  -0.233  -0.754  0.00  0.00    -0.350 N 
ATOM      5  C   UNL     1       1.649  -0.899  -0.567  0.00  0.00    +0.099 A 
ATOM      6  C   UNL     1       2.867  -0.228  -0.513  0.00  0.00    +0.042 A 
ATOM      7  N   UNL     1       1.618  -2.282  -0.424  0.00  0.00    -0.314 N 
ATOM      8  C   UNL     1       2.863  -3.060  -0.340  0.00  0.00    +0.122 C 
ATOM      9  C   UNL     1       2.787  -3.968   0.892  0.00  0.00    +0.103 C 
ATOM     10  N   UNL     1       1.557  -4.769   0.831  0.00  0.00    -0.295 NA
ATOM     11  C   UNL     1       0.363  -3.915   0.880  0.00  0.00    +0.103 C 
ATOM     12  C   UNL     1       0.339  -3.004  -0.346  0.00  0.00    +0.122 C 
ATOM     13  H   UNL     1      -0.317  -0.722  -0.788  0.00  0.00    +0.166 HD
ENDROOT
BRANCH  10  14
ATOM     14  C   UNL     1       1.529  -5.774   1.902  0.00  0.00    +0.121 C 
BRANCH  14  15
ATOM     15  C   UNL     1       0.480  -6.810   1.592  0.00  0.00    -0.013 A 
ATOM     16  C   UNL     1      -0.726  -6.793   2.264  0.00  0.00    +0.029 A 
ATOM     17  C   UNL     1      -1.693  -7.748   1.978  0.00  0.00    +0.025 A 
ATOM     18  C   UNL     1      -1.443  -8.718   1.015  0.00  0.00    +0.024 A 
ATOM     19  C   UNL     1      -0.236  -8.730   0.345  0.00  0.00    +0.022 A 
ATOM     20  C   UNL     1       0.724  -7.774   0.630  0.00  0.00    +0.045 A 
ATOM     21 CL   UNL     1       2.239  -7.788  -0.218  0.00  0.00    -0.083 Cl
BRANCH  17  22
ATOM     22  N   UNL     1      -2.914  -7.734   2.657  0.00  0.00    -0.358 N 
ATOM     23  H   UNL     1      -3.087  -7.057   3.329  0.00  0.00    +0.142 HD
ATOM     24  H   UNL     1      -3.589  -8.401   2.455  0.00  0.00    +0.142 HD
ENDBRANCH  17  22
ENDBRANCH  14  15
ENDBRANCH  10  14
TORSDOF 3
