REMARK  Name = ZINC43461099
REMARK  3 active torsions:
REMARK  status: ('A' for Active; 'I' for Inactive)
REMARK    1  A    between atoms: C_1  and  C_2
REMARK    2  A    between atoms: C_5  and  C_8
REMARK    3  A    between atoms: C_8  and  C_9
REMARK                            x       y       z     vdW  Elec       q    Type
REMARK                         _______ _______ _______ _____ _____    ______ ____
ROOT
ATOM      1  C   UNL     1       1.487  -4.759  -0.032  0.00  0.00    +0.114 A 
ATOM      2  N   UNL     1       2.386  -4.410  -0.906  0.00  0.00    -0.213 NA
ATOM      3  H   UNL     1       1.564  -6.024   1.626  0.00  0.00    +0.167 HD
ATOM      4  C   UNL     1       3.562  -5.026  -0.625  0.00  0.00    +0.178 A 
ATOM      5  C   UNL     1       3.343  -5.814   0.519  0.00  0.00    +0.086 A 
ATOM      6  N   UNL     1       2.024  -5.619   0.873  0.00  0.00    -0.340 N 
ATOM      7  C   UNL     1       4.388  -6.566   1.040  0.00  0.00    +0.046 A 
ATOM      8  C   UNL     1       5.616  -6.510   0.403  0.00  0.00    +0.038 A 
ATOM      9  C   UNL     1       5.765  -5.712  -0.722  0.00  0.00    +0.128 A 
ATOM     10  N   UNL     1       4.763  -5.007  -1.199  0.00  0.00    -0.233 NA
ATOM     11 BR   UNL     1       7.079  -7.510   1.062  0.00  0.00    -0.049 Br
ENDROOT
BRANCH   1  12
ATOM     12  C   UNL     1       0.059  -4.275  -0.021  0.00  0.00    +0.109 C 
BRANCH  12  17
ATOM     13  C   UNL     1      -0.018   1.503   0.010  0.00  0.00    +0.044 C 
ATOM     14  C   UNL     1       0.002  -0.004   0.002  0.00  0.00    -0.050 A 
ATOM     15  C   UNL     1       0.006  -0.689  -1.199  0.00  0.00    +0.003 A 
ATOM     16  C   UNL     1       0.025  -2.071  -1.206  0.00  0.00    +0.004 A 
ATOM     17  C   UNL     1       0.040  -2.768  -0.013  0.00  0.00    -0.040 A 
ATOM     18  C   UNL     1       0.037  -2.084   1.188  0.00  0.00    +0.004 A 
ATOM     19  C   UNL     1       0.023  -0.702   1.195  0.00  0.00    +0.003 A 
ENDBRANCH  12  17
ENDBRANCH   1  12
TORSDOF 2
