REMARK  Name = ZINC36321654
REMARK  8 active torsions:
REMARK  status: ('A' for Active; 'I' for Inactive)
REMARK    1  A    between atoms: C_1  and  O_2
REMARK    2  A    between atoms: O_2  and  C_3
REMARK    3  A    between atoms: C_6  and  O_22
REMARK    4  A    between atoms: C_7  and  C_9
REMARK    5  A    between atoms: C_10  and  C_19
REMARK    6  A    between atoms: C_19  and  C_20
REMARK    7  A    between atoms: C_20  and  N_21
REMARK    8  A    between atoms: O_22  and  C_23
REMARK                            x       y       z     vdW  Elec       q    Type
REMARK                         _______ _______ _______ _____ _____    ______ ____
ROOT
ATOM      1  C   UNL     1       1.154  -4.104  -2.373  0.00  0.00    +0.097 A 
ATOM      2  C   UNL     1       0.897  -4.955  -1.341  0.00  0.00    +0.050 A 
ATOM      3  N   UNL     1       1.305  -6.200  -1.735  0.00  0.00    -0.290 N 
ATOM      4  C   UNL     1       1.805  -6.079  -3.006  0.00  0.00    +0.139 A 
ATOM      5  N   UNL     1       1.701  -4.811  -3.375  0.00  0.00    -0.227 NA
ATOM      6  C   UNL     1       2.303  -7.219  -3.670  0.00  0.00    +0.047 A 
ATOM      7  C   UNL     1       2.279  -8.423  -3.038  0.00  0.00    +0.006 A 
ATOM      8  C   UNL     1       1.760  -8.515  -1.736  0.00  0.00    +0.034 A 
ATOM      9  C   UNL     1       1.287  -7.415  -1.112  0.00  0.00    +0.091 A 
ATOM     10 BR   UNL     1       0.592  -7.558   0.641  0.00  0.00    -0.030 Br
ENDROOT
BRANCH   1  15
ATOM     11  C   UNL     1      -0.629  -0.811  -2.004  0.00  0.00    +0.121 A 
ATOM     12  C   UNL     1       0.353   0.078  -2.419  0.00  0.00    +0.049 A 
ATOM     13  C   UNL     1       1.591  -0.389  -2.819  0.00  0.00    +0.050 A 
ATOM     14  C   UNL     1       1.858  -1.748  -2.806  0.00  0.00    +0.130 A 
ATOM     15  C   UNL     1       0.874  -2.648  -2.388  0.00  0.00    +0.047 A 
ATOM     16  C   UNL     1      -0.370  -2.171  -1.982  0.00  0.00    +0.059 A 
BRANCH  11  18
ATOM     17  C   UNL     1      -2.044   1.069  -1.661  0.00  0.00    +0.277 C 
ATOM     18  O   UNL     1      -1.845  -0.345  -1.613  0.00  0.00    -0.495 OA
ENDBRANCH  11  18
BRANCH  14  19
ATOM     19  O   UNL     1       3.076  -2.206  -3.200  0.00  0.00    -0.494 OA
ATOM     20  C   UNL     1       4.033  -1.230  -3.614  0.00  0.00    +0.277 C 
ENDBRANCH  14  19
ENDBRANCH   1  15
BRANCH   2  21
ATOM     21  C   UNL     1       0.279  -4.594  -0.015  0.00  0.00    +0.036 C 
BRANCH  21  22
ATOM     22  C   UNL     1       1.385  -4.335   1.010  0.00  0.00    -0.080 C 
BRANCH  22  23
ATOM     23  N   UNL     1       0.783  -3.982   2.303  0.00  0.00    +0.378 N 
ATOM     24  H   UNL     1       0.222  -3.151   2.197  0.00  0.00    -0.090 HD
ATOM     25  H   UNL     1       0.201  -4.743   2.621  0.00  0.00    -0.090 HD
ATOM     26  H   UNL     1       1.513  -3.812   2.978  0.00  0.00    -0.090 HD
ENDBRANCH  22  23
ENDBRANCH  21  22
ENDBRANCH   2  21
TORSDOF 6
