REMARK  Name = ZINC22310830
REMARK  5 active torsions:
REMARK  status: ('A' for Active; 'I' for Inactive)
REMARK    1  A    between atoms: C_1  and  C_2
REMARK    2  A    between atoms: N_10  and  C_14
REMARK    3  A    between atoms: C_14  and  N_15
REMARK    4  A    between atoms: N_18  and  S_21
REMARK    5  A    between atoms: S_21  and  C_24
REMARK                            x       y       z     vdW  Elec       q    Type
REMARK                         _______ _______ _______ _____ _____    ______ ____
ROOT
ATOM      1  N   UNL     1      -1.613  -1.117  -1.373  0.00  0.00    -0.284 NA
ATOM      2  C   UNL     1      -2.367   0.014  -1.930  0.00  0.00    +0.103 C 
ATOM      3  C   UNL     1      -2.624  -0.231  -3.420  0.00  0.00    +0.125 C 
ATOM      4  N   UNL     1      -3.269  -1.544  -3.573  0.00  0.00    -0.174 NA
ATOM      5  C   UNL     1      -2.643  -2.707  -2.925  0.00  0.00    +0.125 C 
ATOM      6  C   UNL     1      -2.386  -2.364  -1.454  0.00  0.00    +0.103 C 
ENDROOT
BRANCH   4   7
ATOM      7  S   UNL     1      -4.663  -1.709  -4.452  0.00  0.00    +0.061 S 
ATOM      8  O   UNL     1      -4.698  -0.622  -5.366  0.00  0.00    -0.153 OA
ATOM      9  O   UNL     1      -4.717  -3.064  -4.877  0.00  0.00    -0.153 OA
BRANCH   7  10
ATOM     10  C   UNL     1      -6.010  -1.476  -3.340  0.00  0.00    +0.107 A 
ATOM     11  C   UNL     1      -6.551  -2.559  -2.673  0.00  0.00    +0.028 A 
ATOM     12  C   UNL     1      -7.604  -2.376  -1.797  0.00  0.00    +0.003 A 
ATOM     13  C   UNL     1      -8.124  -1.111  -1.595  0.00  0.00    +0.015 A 
ATOM     14  C   UNL     1      -7.586  -0.028  -2.266  0.00  0.00    +0.020 A 
ATOM     15  C   UNL     1      -6.529  -0.211  -3.139  0.00  0.00    +0.043 A 
ATOM     16 BR   UNL     1      -8.297   1.703  -1.992  0.00  0.00    -0.050 Br
ENDBRANCH   7  10
ENDBRANCH   4   7
BRANCH   1  17
ATOM     17  C   UNL     1      -1.198  -0.844   0.009  0.00  0.00    +0.205 C 
BRANCH  17  27
ATOM     18  C   UNL     1       5.008   4.205  -0.023  0.00  0.00    +0.007 C 
ATOM     19  C   UNL     1       3.533   3.799  -0.011  0.00  0.00    -0.014 C 
ATOM     20  C   UNL     1       3.220   2.976  -1.262  0.00  0.00    +0.006 C 
ATOM     21  C   UNL     1       1.741   2.581  -1.255  0.00  0.00    +0.035 C 
ATOM     22  C   UNL     1       1.435   1.768  -0.002  0.00  0.00    +0.113 C 
ATOM     23  C   UNL     1       1.765   2.567   1.254  0.00  0.00    +0.035 C 
ATOM     24  C   UNL     1       3.244   2.962   1.237  0.00  0.00    +0.006 C 
ATOM     25  C   UNL     1      -0.016   1.345   0.009  0.00  0.00    +0.248 C 
ATOM     26  O   UNL     1      -0.991   2.066   0.018  0.00  0.00    -0.273 OA
ATOM     27  N   UNL     1       0.002  -0.004   0.002  0.00  0.00    -0.211 N 
ATOM     28  C   UNL     1       1.253  -0.480  -0.013  0.00  0.00    +0.310 C 
ATOM     29  O   UNL     1       1.526  -1.665  -0.021  0.00  0.00    -0.252 OA
ATOM     30  N   UNL     1       2.176   0.501  -0.016  0.00  0.00    -0.285 N 
ATOM     31  H   UNL     1       3.276   0.507  -0.027  0.00  0.00    +0.151 HD
ENDBRANCH  17  27
ENDBRANCH   1  17
TORSDOF 4
