REMARK  Name = ZINC22418200
REMARK  8 active torsions:
REMARK  status: ('A' for Active; 'I' for Inactive)
REMARK    1  A    between atoms: C_1  and  N_2
REMARK    2  A    between atoms: N_2  and  C_3
REMARK    3  A    between atoms: N_2  and  C_4
REMARK    4  A    between atoms: C_7  and  C_10
REMARK    5  A    between atoms: C_10  and  C_12
REMARK    6  A    between atoms: C_10  and  N_26
REMARK    7  A    between atoms: C_12  and  N_13
REMARK    8  A    between atoms: C_14  and  C_16
REMARK                            x       y       z     vdW  Elec       q    Type
REMARK                         _______ _______ _______ _____ _____    ______ ____
ROOT
ATOM      1  C   UNL     1      -6.143   2.801  -0.144  0.00  0.00    -0.020 C 
ENDROOT
BRANCH   1   2
ATOM      2  N   UNL     1      -5.976   1.818   0.935  0.00  0.00    +0.388 N 
ATOM      3  C   UNL     1      -6.968   0.737   0.822  0.00  0.00    -0.073 C 
ATOM      4  C   UNL     1      -6.529  -0.421   1.719  0.00  0.00    +0.017 C 
ATOM      5  C   UNL     1      -6.216   0.090   3.102  0.00  0.00    -0.048 A 
ATOM      6  C   UNL     1      -6.147  -0.822   4.144  0.00  0.00    +0.004 A 
ATOM      7  C   UNL     1      -5.860  -0.396   5.426  0.00  0.00    +0.000 A 
ATOM      8  C   UNL     1      -5.639   0.946   5.671  0.00  0.00    +0.000 A 
ATOM      9  C   UNL     1      -5.709   1.855   4.635  0.00  0.00    +0.002 A 
ATOM     10  C   UNL     1      -6.000   1.429   3.347  0.00  0.00    -0.061 A 
ATOM     11  C   UNL     1      -6.073   2.459   2.250  0.00  0.00    -0.042 C 
ATOM     12  H   UNL     1      -4.971   1.383   0.838  0.00  0.00    -0.080 HD
ENDBRANCH   1   2
BRANCH   1  16
ATOM     13  C   UNL     1      -9.905   4.779   0.299  0.00  0.00    +0.029 A 
ATOM     14  C   UNL     1      -9.830   3.569  -0.379  0.00  0.00    +0.023 A 
ATOM     15  C   UNL     1      -8.613   2.933  -0.521  0.00  0.00    +0.004 A 
ATOM     16  C   UNL     1      -7.469   3.498   0.013  0.00  0.00    -0.059 A 
ATOM     17  C   UNL     1      -7.541   4.700   0.694  0.00  0.00    +0.004 A 
ATOM     18  C   UNL     1      -8.754   5.344   0.834  0.00  0.00    +0.023 A 
BRANCH  13  20
ATOM     19  C   UNL     1     -12.325   4.895  -0.226  0.00  0.00    +0.129 C 
ATOM     20  N   UNL     1     -11.135   5.425   0.444  0.00  0.00    -0.336 N 
ATOM     21  C   UNL     1     -11.235   6.633   1.267  0.00  0.00    +0.129 C 
ENDBRANCH  13  20
ENDBRANCH   1  16
BRANCH   1  22
ATOM     22  C   UNL     1      -5.013   3.831  -0.074  0.00  0.00    +0.094 C 
BRANCH  22  23
ATOM     23  N   UNL     1      -3.721   3.142  -0.106  0.00  0.00    -0.313 N 
ATOM     24  C   UNL     1      -2.577   3.853  -0.055  0.00  0.00    +0.245 C 
ATOM     25  O   UNL     1      -2.618   5.066   0.018  0.00  0.00    -0.270 OA
ATOM     26  H   UNL     1      -3.684   2.044  -0.171  0.00  0.00    +0.149 HD
BRANCH  24  27
ATOM     27  C   UNL     1      -1.276   3.159  -0.087  0.00  0.00    +0.044 A 
ATOM     28  C   UNL     1      -1.218   1.774  -0.040  0.00  0.00    +0.013 A 
ATOM     29  C   UNL     1       0.004   1.115  -0.065  0.00  0.00    +0.001 A 
ATOM     30  C   UNL     1       1.176   1.805  -0.146  0.00  0.00    +0.008 A 
ATOM     31  C   UNL     1       1.165   3.210  -0.201  0.00  0.00    -0.017 A 
ATOM     32  C   UNL     1      -0.071   3.900  -0.172  0.00  0.00    -0.006 A 
ATOM     33  C   UNL     1      -0.080   5.300  -0.228  0.00  0.00    +0.009 A 
ATOM     34  C   UNL     1       1.098   5.980  -0.309  0.00  0.00    +0.001 A 
ATOM     35  C   UNL     1       2.315   5.303  -0.338  0.00  0.00    +0.001 A 
ATOM     36  C   UNL     1       2.361   3.944  -0.285  0.00  0.00    +0.008 A 
ENDBRANCH  24  27
ENDBRANCH  22  23
ENDBRANCH   1  22
TORSDOF 6
