REMARK  Name = ZINC08964756
REMARK  7 active torsions:
REMARK  status: ('A' for Active; 'I' for Inactive)
REMARK    1  A    between atoms: C_1  and  O_2
REMARK    2  A    between atoms: O_2  and  C_3
REMARK    3  A    between atoms: C_6  and  C_9
REMARK    4  A    between atoms: N_10  and  N_11
REMARK    5  A    between atoms: C_12  and  C_14
REMARK    6  A    between atoms: C_14  and  N_72
REMARK    7  A    between atoms: C_21  and  C_31
REMARK                            x       y       z     vdW  Elec       q    Type
REMARK                         _______ _______ _______ _____ _____    ______ ____
ROOT
ATOM      1  C   UNL     1      -3.140  -2.273  -1.357  0.00  0.00    -0.055 C 
ATOM      2  C   UNL     1      -4.459  -3.022  -1.579  0.00  0.00    +0.103 C 
ATOM      3  N   UNL     1      -5.293  -2.848  -0.380  0.00  0.00    -0.347 N 
ATOM      4  C   UNL     1      -6.623  -3.077  -0.193  0.00  0.00    +0.049 A 
ATOM      5  C   UNL     1      -7.624  -3.511  -1.059  0.00  0.00    +0.027 A 
ATOM      6  C   UNL     1      -8.897  -3.648  -0.536  0.00  0.00    +0.006 A 
ATOM      7  C   UNL     1      -9.184  -3.372   0.790  0.00  0.00    -0.044 A 
ATOM      8  C   UNL     1      -8.222  -2.943   1.669  0.00  0.00    +0.014 A 
ATOM      9  C   UNL     1      -6.923  -2.790   1.173  0.00  0.00    +0.003 A 
ATOM     10  C   UNL     1      -5.688  -2.364   1.771  0.00  0.00    -0.020 A 
ATOM     11  C   UNL     1      -4.757  -2.404   0.797  0.00  0.00    +0.009 A 
ATOM     12  C   UNL     1      -3.318  -2.013   1.047  0.00  0.00    -0.020 C 
ATOM     13  C   UNL     1      -2.895  -2.598   2.385  0.00  0.00    -0.009 C 
ATOM     14  C   UNL     1      -3.925  -2.560   3.486  0.00  0.00    +0.003 C 
ATOM     15  C   UNL     1      -5.274  -1.937   3.152  0.00  0.00    +0.037 C 
ATOM     16  N   UNL     1      -2.546  -2.641  -0.055  0.00  0.00    +0.392 N 
ATOM     17  H   UNL     1      -2.581  -3.662   0.052  0.00  0.00    -0.080 HD
ENDROOT
BRANCH   7  18
ATOM     18  C   UNL     1     -10.597  -3.549   1.284  0.00  0.00    +0.019 C 
ATOM     19  C   UNL     1     -11.025  -5.005   1.094  0.00  0.00    +0.008 C 
ATOM     20  C   UNL     1     -12.460  -5.185   1.595  0.00  0.00    +0.001 C 
ATOM     21  C   UNL     1     -13.395  -4.271   0.801  0.00  0.00    +0.000 C 
ATOM     22  C   UNL     1     -12.967  -2.814   0.991  0.00  0.00    +0.001 C 
ATOM     23  C   UNL     1     -11.533  -2.635   0.490  0.00  0.00    +0.008 C 
ENDBRANCH   7  18
BRANCH  16  24
ATOM     24  C   UNL     1      -1.135  -2.201   0.001  0.00  0.00    +0.021 C 
BRANCH  24  26
ATOM     25  N   UNL     1       0.968  -2.725  -1.191  0.00  0.00    -0.209 N 
ATOM     26  C   UNL     1      -0.331  -3.015  -0.979  0.00  0.00    +0.216 C 
ATOM     27  O   UNL     1      -0.853  -3.933  -1.577  0.00  0.00    -0.276 OA
ATOM     28  H   UNL     1       1.385  -1.992  -0.713  0.00  0.00    +0.177 HD
BRANCH  25  30
ATOM     29  C   UNL     1       2.966  -3.203  -2.306  0.00  0.00    +0.138 C 
ATOM     30  N   UNL     1       1.715  -3.483  -2.102  0.00  0.00    -0.188 NA
BRANCH  29  34
ATOM     31  C   UNL     1       5.231  -5.498  -5.067  0.00  0.00    +0.120 A 
ATOM     32  C   UNL     1       5.831  -4.449  -4.383  0.00  0.00    +0.046 A 
ATOM     33  C   UNL     1       5.099  -3.701  -3.486  0.00  0.00    +0.013 A 
ATOM     34  C   UNL     1       3.752  -4.000  -3.265  0.00  0.00    -0.005 A 
ATOM     35  C   UNL     1       3.155  -5.061  -3.951  0.00  0.00    +0.013 A 
ATOM     36  C   UNL     1       3.893  -5.800  -4.850  0.00  0.00    +0.046 A 
BRANCH  31  38
ATOM     37  C   UNL     1       5.277  -7.298  -6.620  0.00  0.00    +0.277 C 
ATOM     38  O   UNL     1       5.956  -6.233  -5.951  0.00  0.00    -0.495 OA
ENDBRANCH  31  38
ENDBRANCH  29  34
ENDBRANCH  25  30
ENDBRANCH  24  26
ENDBRANCH  16  24
TORSDOF 6
