REMARK  Name = ZINC08709147
REMARK  17 active torsions:
REMARK  status: ('A' for Active; 'I' for Inactive)
REMARK    1  A    between atoms: C_1  and  C_2
REMARK    2  A    between atoms: C_2  and  C_4
REMARK    3  A    between atoms: C_2  and  N_14
REMARK    4  A    between atoms: C_8  and  S_10
REMARK    5  A    between atoms: S_10  and  N_13
REMARK    6  A    between atoms: C_15  and  C_17
REMARK    7  A    between atoms: C_17  and  C_18
REMARK    8  A    between atoms: C_18  and  C_19
REMARK    9  A    between atoms: C_21  and  C_30
REMARK   10  A    between atoms: C_22  and  O_29
REMARK   11  A    between atoms: C_23  and  C_25
REMARK   12  A    between atoms: C_25  and  C_26
REMARK   13  A    between atoms: C_25  and  C_27
REMARK   14  A    between atoms: C_25  and  C_28
REMARK   15  A    between atoms: C_30  and  C_31
REMARK   16  A    between atoms: C_30  and  C_32
REMARK   17  A    between atoms: C_30  and  C_33
REMARK                            x       y       z     vdW  Elec       q    Type
REMARK                         _______ _______ _______ _____ _____    ______ ____
ROOT
ATOM      1  N   UNL     1      -2.575   5.492  -4.044  0.00  0.00    -0.309 N 
ATOM      2  C   UNL     1      -2.728   6.829  -4.125  0.00  0.00    +0.214 C 
ATOM      3  O   UNL     1      -1.796   7.562  -3.873  0.00  0.00    -0.276 OA
ATOM      4  H   UNL     1      -3.321   4.905  -4.246  0.00  0.00    +0.149 HD
ENDROOT
BRANCH   1   6
ATOM      5  C   UNL     1      -0.383   4.807  -4.884  0.00  0.00    +0.033 C 
ATOM      6  C   UNL     1      -1.282   4.925  -3.652  0.00  0.00    +0.100 C 
BRANCH   6   7
ATOM      7  C   UNL     1      -1.494   3.559  -3.052  0.00  0.00    -0.026 A 
ATOM      8  C   UNL     1      -2.423   2.698  -3.604  0.00  0.00    +0.005 A 
ATOM      9  C   UNL     1      -2.617   1.445  -3.054  0.00  0.00    +0.002 A 
ATOM     10  C   UNL     1      -1.879   1.052  -1.952  0.00  0.00    +0.028 A 
ATOM     11  C   UNL     1      -0.954   1.915  -1.397  0.00  0.00    +0.105 A 
ATOM     12  C   UNL     1      -0.759   3.168  -1.948  0.00  0.00    +0.034 A 
BRANCH  11  13
ATOM     13  S   UNL     1      -0.017   1.417   0.010  0.00  0.00    +0.056 S 
ATOM     14  O   UNL     1       0.002  -0.004   0.002  0.00  0.00    -0.153 OA
ATOM     15  O   UNL     1       1.172   2.195   0.003  0.00  0.00    -0.153 OA
BRANCH  13  16
ATOM     16  N   UNL     1      -0.872   1.871   1.353  0.00  0.00    -0.204 NA
ATOM     17  H   UNL     1      -0.728   2.746   1.747  0.00  0.00    +0.144 HD
ATOM     18  H   UNL     1      -1.517   1.263   1.747  0.00  0.00    +0.144 HD
ENDBRANCH  13  16
ENDBRANCH  11  13
ENDBRANCH   6   7
ENDBRANCH   1   6
BRANCH   2  19
ATOM     19  C   UNL     1      -4.058   7.412  -4.528  0.00  0.00    +0.100 C 
BRANCH  19  20
ATOM     20  C   UNL     1      -3.962   8.939  -4.541  0.00  0.00    +0.044 C 
BRANCH  20  21
ATOM     21  C   UNL     1      -5.292   9.522  -4.944  0.00  0.00    -0.046 A 
ATOM     22  C   UNL     1      -5.564   9.763  -6.278  0.00  0.00    +0.011 A 
ATOM     23  C   UNL     1      -6.784  10.293  -6.650  0.00  0.00    -0.000 A 
ATOM     24  C   UNL     1      -7.733  10.592  -5.684  0.00  0.00    +0.124 A 
ATOM     25  C   UNL     1      -7.456  10.354  -4.346  0.00  0.00    -0.000 A 
ATOM     26  C   UNL     1      -6.236   9.820  -3.979  0.00  0.00    +0.011 A 
BRANCH  25  27
ATOM     27  C   UNL     1      -8.484  10.679  -3.293  0.00  0.00    -0.009 C 
ATOM     28  C   UNL     1      -7.930  10.324  -1.912  0.00  0.00    +0.015 C 
ATOM     29  C   UNL     1      -8.810  12.173  -3.343  0.00  0.00    +0.015 C 
ATOM     30  C   UNL     1      -9.756   9.870  -3.555  0.00  0.00    +0.015 C 
ENDBRANCH  25  27
BRANCH  23  31
ATOM     31  C   UNL     1      -7.082  10.550  -8.105  0.00  0.00    -0.009 C 
ATOM     32  C   UNL     1      -5.879  10.134  -8.954  0.00  0.00    +0.015 C 
ATOM     33  C   UNL     1      -8.308   9.737  -8.526  0.00  0.00    +0.015 C 
ATOM     34  C   UNL     1      -7.363  12.040  -8.313  0.00  0.00    +0.015 C 
ENDBRANCH  23  31
BRANCH  24  35
ATOM     35  O   UNL     1      -8.933  11.118  -6.047  0.00  0.00    -0.506 OA
ATOM     36  H   UNL     1      -8.946  12.084  -6.077  0.00  0.00    +0.292 HD
ENDBRANCH  24  35
ENDBRANCH  20  21
ENDBRANCH  19  20
ENDBRANCH   2  19
TORSDOF 10
