REMARK  Name = ZINC39576704
REMARK  8 active torsions:
REMARK  status: ('A' for Active; 'I' for Inactive)
REMARK    1  A    between atoms: C_9  and  O_37
REMARK    2  A    between atoms: C_10  and  C_11
REMARK    3  A    between atoms: N_12  and  N_13
REMARK    4  A    between atoms: C_14  and  C_16
REMARK    5  A    between atoms: C_19  and  C_22
REMARK    6  A    between atoms: C_27  and  O_28
REMARK    7  A    between atoms: O_28  and  C_29
REMARK    8  A    between atoms: C_29  and  C_30
REMARK                            x       y       z     vdW  Elec       q    Type
REMARK                         _______ _______ _______ _____ _____    ______ ____
ROOT
ATOM      1  C   UNL     1      10.167   0.816  -0.372  0.00  0.00    +0.240 C 
ATOM      2  C   UNL     1      10.515   1.173   1.063  0.00  0.00    +0.041 C 
ATOM      3  C   UNL     1      11.555   0.366   1.352  0.00  0.00    +0.095 C 
ATOM      4  N   UNL     1      11.862  -0.414   0.283  0.00  0.00    -0.153 NA
ATOM      5  N   UNL     1      11.147  -0.229  -0.709  0.00  0.00    -0.170 NA
ENDROOT
BRANCH   3   6
ATOM      6  C   UNL     1      12.264   0.334   2.655  0.00  0.00    +0.044 A 
ATOM      7  C   UNL     1      13.404  -0.451   2.811  0.00  0.00    +0.014 A 
ATOM      8  C   UNL     1      14.061  -0.477   4.025  0.00  0.00    +0.001 A 
ATOM      9  C   UNL     1      13.590   0.273   5.088  0.00  0.00    +0.004 A 
ATOM     10  C   UNL     1      12.459   1.054   4.944  0.00  0.00    +0.046 A 
ATOM     11  C   UNL     1      11.794   1.095   3.729  0.00  0.00    +0.130 A 
BRANCH  11  12
ATOM     12  O   UNL     1      10.685   1.867   3.584  0.00  0.00    -0.487 OA
BRANCH  12  13
ATOM     13  C   UNL     1      10.322   2.694   4.691  0.00  0.00    +0.266 C 
BRANCH  13  14
ATOM     14  C   UNL     1       8.994   3.350   4.414  0.00  0.00    +0.008 A 
ATOM     15  C   UNL     1       8.319   3.074   3.240  0.00  0.00    +0.008 A 
ATOM     16  C   UNL     1       7.100   3.675   2.985  0.00  0.00    +0.000 A 
ATOM     17  C   UNL     1       6.557   4.554   3.904  0.00  0.00    +0.001 A 
ATOM     18  C   UNL     1       7.231   4.831   5.078  0.00  0.00    +0.020 A 
ATOM     19  C   UNL     1       8.448   4.225   5.336  0.00  0.00    +0.047 A 
ATOM     20 CL   UNL     1       9.293   4.567   6.814  0.00  0.00    -0.083 Cl
ENDBRANCH  13  14
ENDBRANCH  12  13
ENDBRANCH  11  12
ENDBRANCH   3   6
BRANCH   1  22
ATOM     21  N   UNL     1       7.717   1.125  -0.514  0.00  0.00    -0.205 N 
ATOM     22  C   UNL     1       8.763   0.277  -0.460  0.00  0.00    +0.263 C 
ATOM     23  O   UNL     1       8.573  -0.921  -0.481  0.00  0.00    -0.271 OA
ATOM     24  H   UNL     1       7.868   2.083  -0.496  0.00  0.00    +0.177 HD
BRANCH  21  26
ATOM     25  C   UNL     1       5.403   1.442  -0.648  0.00  0.00    +0.142 C 
ATOM     26  N   UNL     1       6.411   0.624  -0.596  0.00  0.00    -0.188 NA
BRANCH  25  36
ATOM     27  C   UNL     1       0.676   3.486  -0.909  0.00  0.00    +0.001 A 
ATOM     28  C   UNL     1       1.959   4.022  -0.828  0.00  0.00    +0.001 A 
ATOM     29  C   UNL     1       3.054   3.212  -0.771  0.00  0.00    +0.009 A 
ATOM     30  C   UNL     1       2.888   1.822  -0.794  0.00  0.00    -0.006 A 
ATOM     31  C   UNL     1       1.585   1.273  -0.876  0.00  0.00    -0.017 A 
ATOM     32  C   UNL     1       0.479   2.139  -0.933  0.00  0.00    +0.008 A 
ATOM     33  C   UNL     1       1.420  -0.122  -0.898  0.00  0.00    +0.012 A 
ATOM     34  C   UNL     1       2.497  -0.951  -0.841  0.00  0.00    +0.046 A 
ATOM     35  C   UNL     1       3.798  -0.459  -0.759  0.00  0.00    +0.126 A 
ATOM     36  C   UNL     1       4.033   0.916  -0.734  0.00  0.00    +0.044 A 
BRANCH  35  37
ATOM     37  O   UNL     1       4.844  -1.323  -0.704  0.00  0.00    -0.506 OA
ATOM     38  H   UNL     1       5.199  -1.566  -1.570  0.00  0.00    +0.292 HD
ENDBRANCH  35  37
ENDBRANCH  25  36
ENDBRANCH  21  26
ENDBRANCH   1  22
TORSDOF 8
