REMARK  Name = ZINC36556522
REMARK  18 active torsions:
REMARK  status: ('A' for Active; 'I' for Inactive)
REMARK    1  A    between atoms: C_1  and  C_2
REMARK    2  A    between atoms: C_7  and  C_8
REMARK    3  A    between atoms: C_8  and  C_9
REMARK    4  A    between atoms: N_11  and  C_12
REMARK    5  A    between atoms: N_11  and  C_19
REMARK    6  A    between atoms: C_12  and  C_13
REMARK    7  A    between atoms: C_16  and  C_18
REMARK    8  A    between atoms: C_19  and  C_21
REMARK    9  A    between atoms: C_19  and  C_28
REMARK   10  A    between atoms: C_25  and  O_27
REMARK   11  A    between atoms: N_30  and  C_31
REMARK   12  A    between atoms: C_31  and  C_32
REMARK   13  A    between atoms: C_31  and  C_33
REMARK   14  A    between atoms: C_31  and  C_34
REMARK   15  A    between atoms: C_34  and  C_35
REMARK   16  A    between atoms: C_35  and  C_36
REMARK   17  A    between atoms: C_35  and  C_37
REMARK   18  A    between atoms: C_35  and  C_38
REMARK                            x       y       z     vdW  Elec       q    Type
REMARK                         _______ _______ _______ _____ _____    ______ ____
ROOT
ATOM      1  C   UNL     1      -2.103   0.710   5.816  0.00  0.00    +0.193 C 
ENDROOT
BRANCH   1   2
ATOM      2  C   UNL     1      -1.787   2.001   6.527  0.00  0.00    -0.015 A 
ATOM      3  C   UNL     1      -1.397   1.981   7.854  0.00  0.00    +0.006 A 
ATOM      4  C   UNL     1      -1.107   3.164   8.509  0.00  0.00    +0.004 A 
ATOM      5  C   UNL     1      -1.205   4.368   7.839  0.00  0.00    +0.045 A 
ATOM      6  C   UNL     1      -1.595   4.390   6.508  0.00  0.00    +0.117 A 
ATOM      7  C   UNL     1      -1.881   3.202   5.851  0.00  0.00    +0.051 A 
BRANCH   6   8
ATOM      8  O   UNL     1      -1.693   5.574   5.847  0.00  0.00    -0.507 OA
ATOM      9  H   UNL     1      -0.876   5.847   5.407  0.00  0.00    +0.292 HD
ENDBRANCH   6   8
ENDBRANCH   1   2
BRANCH   1  10
ATOM     10  C   UNL     1      -3.446   0.202   6.271  0.00  0.00    +0.239 C 
ATOM     11  O   UNL     1      -3.513  -0.744   7.028  0.00  0.00    -0.273 OA
ATOM     12  N   UNL     1      -4.574   0.798   5.837  0.00  0.00    -0.308 N 
ATOM     13  H   UNL     1      -4.521   1.554   5.232  0.00  0.00    +0.149 HD
BRANCH  12  14
ATOM     14  C   UNL     1      -5.881   0.304   6.279  0.00  0.00    +0.030 C 
ATOM     15  C   UNL     1      -6.102  -1.109   5.736  0.00  0.00    +0.031 C 
ATOM     16  C   UNL     1      -5.924   0.276   7.809  0.00  0.00    +0.031 C 
BRANCH  14  17
ATOM     17  C   UNL     1      -6.980   1.230   5.755  0.00  0.00    +0.031 C 
BRANCH  17  18
ATOM     18  C   UNL     1      -6.505   2.682   5.836  0.00  0.00    -0.036 C 
ATOM     19  C   UNL     1      -5.785   3.056   4.539  0.00  0.00    +0.010 C 
ATOM     20  C   UNL     1      -7.712   3.603   6.034  0.00  0.00    +0.010 C 
ATOM     21  C   UNL     1      -5.545   2.840   7.016  0.00  0.00    +0.010 C 
ENDBRANCH  17  18
ENDBRANCH  14  17
ENDBRANCH  12  14
ENDBRANCH   1  10
BRANCH   1  24
ATOM     22  C   UNL     1       0.227   0.005   5.923  0.00  0.00    +0.221 C 
ATOM     23  O   UNL     1       0.545   1.088   5.480  0.00  0.00    -0.275 OA
ATOM     24  N   UNL     1      -1.073  -0.284   6.129  0.00  0.00    -0.278 N 
BRANCH  22  25
ATOM     25  C   UNL     1       1.286  -1.018   6.245  0.00  0.00    +0.131 C 
BRANCH  25  32
ATOM     26  C   UNL     1       2.662   0.612   8.193  0.00  0.00    +0.044 C 
ATOM     27  C   UNL     1       3.304   0.330   6.859  0.00  0.00    -0.047 A 
ATOM     28  C   UNL     1       4.554   0.845   6.570  0.00  0.00    +0.003 A 
ATOM     29  C   UNL     1       5.142   0.586   5.347  0.00  0.00    +0.000 A 
ATOM     30  C   UNL     1       4.481  -0.190   4.412  0.00  0.00    +0.000 A 
ATOM     31  C   UNL     1       3.233  -0.707   4.702  0.00  0.00    +0.004 A 
ATOM     32  C   UNL     1       2.646  -0.451   5.927  0.00  0.00    -0.036 A 
ENDBRANCH  25  32
ENDBRANCH  22  25
BRANCH  24  33
ATOM     33  C   UNL     1      -1.457  -1.593   6.664  0.00  0.00    +0.183 C 
BRANCH  33  34
ATOM     34  C   UNL     1      -1.385  -1.560   8.169  0.00  0.00    +0.122 A 
ATOM     35  C   UNL     1      -2.424  -1.368   9.002  0.00  0.00    +0.046 A 
ATOM     36  C   UNL     1      -1.907  -1.413  10.318  0.00  0.00    +0.045 A 
ATOM     37  C   UNL     1      -0.584  -1.630  10.210  0.00  0.00    +0.102 A 
ATOM     38  O   UNL     1      -0.275  -1.724   8.906  0.00  0.00    -0.463 OA
ATOM     39  C   UNL     1       0.385  -1.752  11.357  0.00  0.00    +0.086 C 
ENDBRANCH  33  34
ENDBRANCH  24  33
ENDBRANCH   1  24
TORSDOF 11
