REMARK  Name = ZINC13030152
REMARK  12 active torsions:
REMARK  status: ('A' for Active; 'I' for Inactive)
REMARK    1  A    between atoms: C_1  and  C_2
REMARK    2  A    between atoms: C_2  and  C_3
REMARK    3  A    between atoms: C_2  and  N_4
REMARK    4  A    between atoms: N_4  and  S_5
REMARK    5  A    between atoms: S_5  and  C_8
REMARK    6  A    between atoms: C_11  and  N_17
REMARK    7  A    between atoms: C_12  and  N_14
REMARK    8  A    between atoms: N_17  and  C_18
REMARK    9  A    between atoms: C_18  and  C_19
REMARK   10  A    between atoms: C_19  and  C_21
REMARK   11  A    between atoms: C_19  and  N_26
REMARK   12  A    between atoms: N_29  and  C_32
REMARK                            x       y       z     vdW  Elec       q    Type
REMARK                         _______ _______ _______ _____ _____    ______ ____
ROOT
ATOM      1  C   UNL     1       0.800   2.770  -0.191  0.00  0.00    +0.108 A 
ATOM      2  C   UNL     1       0.703   1.403  -0.377  0.00  0.00    +0.030 A 
ATOM      3  C   UNL     1      -0.521   0.774  -0.261  0.00  0.00    +0.027 A 
ATOM      4  C   UNL     1      -1.656   1.517   0.038  0.00  0.00    +0.058 A 
ATOM      5  C   UNL     1      -1.554   2.889   0.230  0.00  0.00    +0.149 A 
ATOM      6  C   UNL     1      -0.327   3.512   0.113  0.00  0.00    +0.063 A 
ENDROOT
BRANCH   1   7
ATOM      7  S   UNL     1       2.364   3.568  -0.339  0.00  0.00    +0.059 S 
ATOM      8  O   UNL     1       2.281   4.768   0.418  0.00  0.00    -0.153 OA
ATOM      9  O   UNL     1       3.351   2.577  -0.091  0.00  0.00    -0.153 OA
BRANCH   7  10
ATOM     10  N   UNL     1       2.535   4.019  -1.923  0.00  0.00    -0.187 NA
ATOM     11  H   UNL     1       3.212   3.447  -2.575  0.00  0.00    +0.148 HD
BRANCH  10  13
ATOM     12  C   UNL     1       2.404   5.875  -3.511  0.00  0.00    +0.025 C 
ATOM     13  C   UNL     1       1.635   5.021  -2.501  0.00  0.00    +0.070 C 
ATOM     14  C   UNL     1       0.474   4.318  -3.207  0.00  0.00    +0.025 C 
ENDBRANCH  10  13
ENDBRANCH   7  10
ENDBRANCH   1   7
BRANCH   5  15
ATOM     15  N   UNL     1      -2.760   3.684   0.554  0.00  0.00    +0.058 N 
ATOM     16  O   UNL     1      -2.654   4.866   0.830  0.00  0.00    -0.126 OA
ATOM     17  O   UNL     1      -3.857   3.156   0.546  0.00  0.00    -0.126 OA
ENDBRANCH   5  15
BRANCH   4  18
ATOM     18  N   UNL     1      -2.897   0.886   0.150  0.00  0.00    -0.340 N 
ATOM     19  H   UNL     1      -3.809   1.485   0.285  0.00  0.00    +0.146 HD
BRANCH  18  20
ATOM     20  C   UNL     1      -2.983  -0.576   0.089  0.00  0.00    +0.125 C 
BRANCH  20  21
ATOM     21  C   UNL     1      -4.453  -1.001   0.108  0.00  0.00    +0.110 C 
BRANCH  21  22
ATOM     22  N   UNL     1      -5.119  -0.406   1.274  0.00  0.00    -0.297 NA
ATOM     23  C   UNL     1      -4.381  -0.700   2.510  0.00  0.00    +0.066 C 
ATOM     24  C   UNL     1      -5.062   0.003   3.687  0.00  0.00    -0.064 C 
ATOM     25  N   UNL     1      -6.455  -0.455   3.788  0.00  0.00    +0.379 N 
ATOM     26  C   UNL     1      -7.193  -0.161   2.551  0.00  0.00    -0.064 C 
ATOM     27  C   UNL     1      -6.512  -0.863   1.375  0.00  0.00    +0.066 C 
ATOM     28  C   UNL     1      -7.122   0.141   4.953  0.00  0.00    -0.096 C 
ATOM     29  H   UNL     1      -6.445  -1.546   3.926  0.00  0.00    -0.082 HD
ENDBRANCH  21  22
BRANCH  21  30
ATOM     30  C   UNL     1      -5.129  -0.529  -1.153  0.00  0.00    +0.008 A 
ATOM     31  C   UNL     1      -5.418  -1.226  -2.279  0.00  0.00    +0.013 A 
ATOM     32  C   UNL     1      -6.051  -0.579  -3.324  0.00  0.00    +0.008 A 
ATOM     33  C   UNL     1      -6.365   0.733  -3.191  0.00  0.00    +0.045 A 
ATOM     34  S   UNL     1      -5.765   1.092  -1.549  0.00  0.00    -0.100 S 
ENDBRANCH  21  30
ENDBRANCH  20  21
ENDBRANCH  18  20
ENDBRANCH   4  18
TORSDOF 9
