REMARK  Name = ZINC21582709
REMARK  6 active torsions:
REMARK  status: ('A' for Active; 'I' for Inactive)
REMARK    1  A    between atoms: C_9  and  C_12
REMARK    2  A    between atoms: C_12  and  N_13
REMARK    3  A    between atoms: C_14  and  C_16
REMARK    4  A    between atoms: C_16  and  N_17
REMARK    5  A    between atoms: N_20  and  C_23
REMARK    6  A    between atoms: C_23  and  C_24
REMARK                            x       y       z     vdW  Elec       q    Type
REMARK                         _______ _______ _______ _____ _____    ______ ____
ROOT
ATOM      1  C   UNL     1       1.284   9.960   1.256  0.00  0.00    +0.019 C 
ENDROOT
BRANCH   1   2
ATOM      2  N   UNL     1       1.336  11.380   0.883  0.00  0.00    +0.387 N 
ATOM      3  C   UNL     1       1.683  11.541  -0.535  0.00  0.00    -0.063 C 
ATOM      4  C   UNL     1       1.648  13.026  -0.902  0.00  0.00    +0.066 C 
ATOM      5  N   UNL     1       2.590  13.761  -0.046  0.00  0.00    -0.302 NA
ATOM      6  C   UNL     1       2.244  13.601   1.373  0.00  0.00    +0.066 C 
ATOM      7  C   UNL     1       2.278  12.115   1.739  0.00  0.00    -0.063 C 
ATOM      8  H   UNL     1       0.334  11.806   1.038  0.00  0.00    -0.081 HD
BRANCH   5   9
ATOM      9  C   UNL     1       2.642  15.181  -0.418  0.00  0.00    +0.119 C 
BRANCH   9  10
ATOM     10  C   UNL     1       2.755  15.304  -1.916  0.00  0.00    -0.033 A 
ATOM     11  C   UNL     1       4.001  15.346  -2.514  0.00  0.00    +0.006 A 
ATOM     12  C   UNL     1       4.105  15.454  -3.888  0.00  0.00    +0.020 A 
ATOM     13  C   UNL     1       2.962  15.530  -4.664  0.00  0.00    +0.041 A 
ATOM     14  C   UNL     1       1.716  15.494  -4.064  0.00  0.00    +0.020 A 
ATOM     15  C   UNL     1       1.613  15.381  -2.691  0.00  0.00    +0.006 A 
ATOM     16 CL   UNL     1       3.092  15.672  -6.389  0.00  0.00    -0.084 Cl
ENDBRANCH   9  10
ENDBRANCH   5   9
ENDBRANCH   1   2
BRANCH   1  18
ATOM     17  N   UNL     1      -0.099   7.980   0.722  0.00  0.00    -0.313 N 
ATOM     18  C   UNL     1       0.142   9.293   0.533  0.00  0.00    +0.197 C 
ATOM     19  O   UNL     1      -0.559   9.937  -0.217  0.00  0.00    -0.278 OA
ATOM     20  H   UNL     1       0.537   7.396   1.403  0.00  0.00    +0.149 HD
BRANCH  17  21
ATOM     21  C   UNL     1      -1.209   7.332   0.019  0.00  0.00    +0.152 C 
BRANCH  21  30
ATOM     22  C   UNL     1      -0.013   1.076   0.008  0.00  0.00    +0.004 A 
ATOM     23  C   UNL     1       1.176   1.782   0.000  0.00  0.00    +0.004 A 
ATOM     24  C   UNL     1       1.161   3.164   0.007  0.00  0.00    +0.049 A 
ATOM     25  C   UNL     1      -0.046   3.846   0.020  0.00  0.00    +0.163 A 
ATOM     26  C   UNL     1      -1.241   3.136   0.030  0.00  0.00    +0.162 A 
ATOM     27  C   UNL     1      -1.219   1.749   0.017  0.00  0.00    +0.049 A 
ATOM     28  O   UNL     1      -2.437   3.785   0.048  0.00  0.00    -0.485 OA
ATOM     29  C   UNL     1      -2.424   5.167  -0.326  0.00  0.00    +0.275 C 
ATOM     30  C   UNL     1      -1.263   5.852   0.407  0.00  0.00    +0.228 C 
ATOM     31  O   UNL     1      -0.045   5.207   0.019  0.00  0.00    -0.480 OA
ENDBRANCH  21  30
ENDBRANCH  17  21
ENDBRANCH   1  18
TORSDOF 6
