REMARK  Name = ZINC59372784
REMARK  10 active torsions:
REMARK  status: ('A' for Active; 'I' for Inactive)
REMARK    1  A    between atoms: C_1  and  C_2
REMARK    2  A    between atoms: C_2  and  C_3
REMARK    3  A    between atoms: C_2  and  C_4
REMARK    4  A    between atoms: C_7  and  N_10
REMARK    5  A    between atoms: N_10  and  C_11
REMARK    6  A    between atoms: N_10  and  S_29
REMARK    7  A    between atoms: C_11  and  C_12
REMARK    8  A    between atoms: N_14  and  N_15
REMARK    9  A    between atoms: C_16  and  C_17
REMARK   10  A    between atoms: S_29  and  C_32
REMARK                            x       y       z     vdW  Elec       q    Type
REMARK                         _______ _______ _______ _____ _____    ______ ____
ROOT
ATOM      1  N   UNL     1      -5.318  -1.967   0.043  0.00  0.00    -0.194 N 
ENDROOT
BRANCH   1   5
ATOM      2  C   UNL     1      -1.314  -0.984   0.624  0.00  0.00    -0.045 A 
ATOM      3  C   UNL     1      -2.114  -1.290   1.710  0.00  0.00    +0.006 A 
ATOM      4  C   UNL     1      -3.442  -1.616   1.521  0.00  0.00    +0.025 A 
ATOM      5  C   UNL     1      -3.975  -1.637   0.238  0.00  0.00    +0.052 A 
ATOM      6  C   UNL     1      -3.168  -1.329  -0.851  0.00  0.00    +0.025 A 
ATOM      7  C   UNL     1      -1.842  -0.998  -0.653  0.00  0.00    +0.006 A 
BRANCH   2   9
ATOM      8  C   UNL     1       0.232   0.607   1.733  0.00  0.00    +0.012 C 
ATOM      9  C   UNL     1       0.135  -0.628   0.835  0.00  0.00    +0.013 C 
ATOM     10  C   UNL     1       0.857  -1.801   1.502  0.00  0.00    +0.012 C 
ENDBRANCH   2   9
ENDBRANCH   1   5
BRANCH   1  11
ATOM     11  S   UNL     1      -5.721  -3.284  -0.877  0.00  0.00    +0.075 S 
ATOM     12  O   UNL     1      -7.051  -3.069  -1.332  0.00  0.00    -0.150 OA
ATOM     13  O   UNL     1      -4.637  -3.504  -1.769  0.00  0.00    -0.150 OA
BRANCH  11  14
ATOM     14  C   UNL     1      -5.777  -4.676   0.201  0.00  0.00    +0.109 A 
ATOM     15  C   UNL     1      -4.638  -5.428   0.419  0.00  0.00    +0.029 A 
ATOM     16  C   UNL     1      -4.681  -6.520   1.265  0.00  0.00    +0.002 A 
ATOM     17  C   UNL     1      -5.864  -6.860   1.894  0.00  0.00    +0.000 A 
ATOM     18  C   UNL     1      -7.003  -6.108   1.677  0.00  0.00    +0.002 A 
ATOM     19  C   UNL     1      -6.959  -5.013   0.834  0.00  0.00    +0.029 A 
ENDBRANCH  11  14
ENDBRANCH   1  11
BRANCH   1  20
ATOM     20  C   UNL     1      -6.369  -1.149   0.652  0.00  0.00    +0.228 C 
BRANCH  20  21
ATOM     21  C   UNL     1      -6.677   0.023  -0.245  0.00  0.00    +0.251 C 
ATOM     22  O   UNL     1      -6.077   0.161  -1.290  0.00  0.00    -0.272 OA
ATOM     23  N   UNL     1      -7.619   0.917   0.114  0.00  0.00    -0.206 N 
ATOM     24  H   UNL     1      -8.099   0.807   0.950  0.00  0.00    +0.177 HD
BRANCH  23  25
ATOM     25  N   UNL     1      -7.905   2.006  -0.719  0.00  0.00    -0.188 NA
ATOM     26  C   UNL     1      -8.813   2.869  -0.373  0.00  0.00    +0.139 C 
BRANCH  26  27
ATOM     27  C   UNL     1      -9.113   4.012  -1.248  0.00  0.00    +0.002 A 
ATOM     28  C   UNL     1     -10.078   4.954  -0.897  0.00  0.00    +0.010 A 
ATOM     29  C   UNL     1     -10.374   6.041  -1.712  0.00  0.00    +0.005 A 
ATOM     30  C   UNL     1      -9.730   6.234  -2.899  0.00  0.00    -0.039 A 
ATOM     31  C   UNL     1      -8.758   5.318  -3.290  0.00  0.00    -0.011 A 
ATOM     32  C   UNL     1      -8.405   4.202  -2.512  0.00  0.00    -0.009 A 
ATOM     33  C   UNL     1      -7.409   3.348  -2.996  0.00  0.00    +0.009 A 
ATOM     34  C   UNL     1      -6.821   3.637  -4.196  0.00  0.00    +0.001 A 
ATOM     35  C   UNL     1      -7.181   4.754  -4.952  0.00  0.00    +0.004 A 
ATOM     36  C   UNL     1      -8.156   5.598  -4.513  0.00  0.00    -0.039 A 
ATOM     37  C   UNL     1      -8.782   6.863  -5.045  0.00  0.00    +0.040 C 
ATOM     38  C   UNL     1      -9.819   7.284  -3.982  0.00  0.00    +0.040 C 
ENDBRANCH  26  27
ENDBRANCH  23  25
ENDBRANCH  20  21
ENDBRANCH   1  20
TORSDOF 8
