REMARK  Name = ZINC32506816
REMARK  9 active torsions:
REMARK  status: ('A' for Active; 'I' for Inactive)
REMARK    1  A    between atoms: C_1  and  C_2
REMARK    2  A    between atoms: C_9  and  N_32
REMARK    3  A    between atoms: C_10  and  C_30
REMARK    4  A    between atoms: C_11  and  C_13
REMARK    5  A    between atoms: C_16  and  O_28
REMARK    6  A    between atoms: C_18  and  O_19
REMARK    7  A    between atoms: O_19  and  C_20
REMARK    8  A    between atoms: C_20  and  C_21
REMARK    9  A    between atoms: O_28  and  C_29
REMARK                            x       y       z     vdW  Elec       q    Type
REMARK                         _______ _______ _______ _____ _____    ______ ____
ROOT
ATOM      1  C   UNL     1      -1.367   0.105  -2.954  0.00  0.00    +0.007 A 
ATOM      2  C   UNL     1      -2.481  -0.701  -2.814  0.00  0.00    +0.012 A 
ATOM      3  C   UNL     1      -3.731  -0.221  -3.155  0.00  0.00    +0.046 A 
ATOM      4  C   UNL     1      -3.871   1.072  -3.639  0.00  0.00    +0.124 A 
ATOM      5  C   UNL     1      -2.755   1.882  -3.780  0.00  0.00    +0.091 A 
ATOM      6  C   UNL     1      -1.502   1.400  -3.432  0.00  0.00    +0.129 A 
ENDROOT
BRANCH   1  17
ATOM      7  C   UNL     1      -0.018   1.503   0.010  0.00  0.00    +0.068 C 
ATOM      8  C   UNL     1       0.002  -0.004   0.002  0.00  0.00    +0.068 A 
ATOM      9  C   UNL     1       0.008  -0.813  -1.126  0.00  0.00    +0.049 A 
ATOM     10  C   UNL     1       0.028  -2.116  -0.713  0.00  0.00    +0.222 A 
ATOM     11  N   UNL     1       0.033  -2.116   0.629  0.00  0.00    -0.246 N 
ATOM     12  H   UNL     1       0.046  -2.900   1.201  0.00  0.00    +0.192 HD
ATOM     13  N   UNL     1       0.023  -0.780   1.060  0.00  0.00    -0.176 NA
ATOM     14  O   UNL     1       0.042  -3.159  -1.580  0.00  0.00    -0.423 OA
ATOM     15  C   UNL     1       0.311  -2.892  -2.874  0.00  0.00    +0.200 C 
ATOM     16  C   UNL     1       0.309  -1.648  -3.402  0.00  0.00    +0.098 C 
ATOM     17  C   UNL     1      -0.005  -0.421  -2.581  0.00  0.00    +0.105 C 
BRANCH  15  18
ATOM     18  N   UNL     1       0.605  -3.945  -3.704  0.00  0.00    -0.328 N 
ATOM     19  H   UNL     1       0.615  -4.850  -3.354  0.00  0.00    +0.145 HD
ATOM     20  H   UNL     1       0.803  -3.785  -4.640  0.00  0.00    +0.145 HD
ENDBRANCH  15  18
BRANCH  16  21
ATOM     21  C   UNL     1       0.616  -1.487  -4.791  0.00  0.00    +0.101 C 
ATOM     22  N   UNL     1       0.860  -1.360  -5.894  0.00  0.00    -0.191 NA
ENDBRANCH  16  21
ENDBRANCH   1  17
BRANCH   4  23
ATOM     23  O   UNL     1      -5.101   1.543  -3.975  0.00  0.00    -0.495 OA
ATOM     24  C   UNL     1      -6.205   0.653  -3.803  0.00  0.00    +0.277 C 
ENDBRANCH   4  23
BRANCH   6  25
ATOM     25  O   UNL     1      -0.408   2.195  -3.564  0.00  0.00    -0.487 OA
BRANCH  25  26
ATOM     26  C   UNL     1      -0.621   3.517  -4.063  0.00  0.00    +0.266 C 
BRANCH  26  27
ATOM     27  C   UNL     1       0.697   4.244  -4.140  0.00  0.00    +0.008 A 
ATOM     28  C   UNL     1       1.862   3.604  -3.760  0.00  0.00    +0.008 A 
ATOM     29  C   UNL     1       3.071   4.271  -3.831  0.00  0.00    +0.000 A 
ATOM     30  C   UNL     1       3.115   5.577  -4.282  0.00  0.00    +0.001 A 
ATOM     31  C   UNL     1       1.951   6.217  -4.663  0.00  0.00    +0.020 A 
ATOM     32  C   UNL     1       0.741   5.548  -4.597  0.00  0.00    +0.047 A 
ATOM     33 CL   UNL     1      -0.721   6.349  -5.081  0.00  0.00    -0.083 Cl
ENDBRANCH  26  27
ENDBRANCH  25  26
ENDBRANCH   6  25
TORSDOF 7
