REMARK  Name = ZINC39710552
REMARK  15 active torsions:
REMARK  status: ('A' for Active; 'I' for Inactive)
REMARK    1  A    between atoms: C_1  and  C_2
REMARK    2  A    between atoms: C_2  and  C_3
REMARK    3  A    between atoms: C_10  and  C_15
REMARK    4  A    between atoms: C_15  and  C_17
REMARK    5  A    between atoms: C_15  and  N_27
REMARK    6  A    between atoms: N_22  and  C_23
REMARK    7  A    between atoms: C_23  and  C_24
REMARK    8  A    between atoms: C_23  and  C_25
REMARK    9  A    between atoms: C_23  and  C_26
REMARK   10  A    between atoms: N_27  and  C_28
REMARK   11  A    between atoms: N_27  and  C_37
REMARK   12  A    between atoms: C_28  and  C_29
REMARK   13  A    between atoms: C_32  and  O_35
REMARK   14  A    between atoms: O_35  and  C_36
REMARK   15  A    between atoms: C_37  and  C_38
REMARK                            x       y       z     vdW  Elec       q    Type
REMARK                         _______ _______ _______ _____ _____    ______ ____
ROOT
ATOM      1  C   UNL     1       5.444  -0.345  -4.486  0.00  0.00    -0.009 C 
ENDROOT
BRANCH   1   9
ATOM      2  C   UNL     1       3.128  -4.951  -7.219  0.00  0.00    -0.047 A 
ATOM      3  C   UNL     1       4.238  -5.744  -6.926  0.00  0.00    +0.005 A 
ATOM      4  C   UNL     1       5.191  -5.369  -6.033  0.00  0.00    +0.024 A 
ATOM      5  C   UNL     1       5.091  -4.140  -5.356  0.00  0.00    +0.040 A 
ATOM      6  N   UNL     1       6.032  -3.783  -4.482  0.00  0.00    -0.285 N 
ATOM      7  C   UNL     1       6.000  -2.643  -3.812  0.00  0.00    +0.223 C 
ATOM      8  O   UNL     1       6.888  -2.371  -3.026  0.00  0.00    -0.275 OA
ATOM      9  C   UNL     1       4.854  -1.679  -4.025  0.00  0.00    +0.088 C 
ATOM     10  C   UNL     1       3.782  -2.081  -5.018  0.00  0.00    -0.006 C 
ATOM     11  C   UNL     1       3.929  -3.283  -5.646  0.00  0.00    -0.007 A 
ATOM     12  C   UNL     1       2.943  -3.745  -6.623  0.00  0.00    +0.013 A 
ATOM     13  H   UNL     1       6.776  -4.387  -4.330  0.00  0.00    +0.155 HD
BRANCH   2  15
ATOM     14  C   UNL     1       2.518  -4.968  -9.623  0.00  0.00    +0.009 C 
ATOM     15  C   UNL     1       2.117  -5.441  -8.223  0.00  0.00    +0.032 C 
ENDBRANCH   2  15
ENDBRANCH   1   9
BRANCH   1  16
ATOM     16  C   UNL     1       6.481   0.133  -3.468  0.00  0.00    +0.205 C 
ATOM     17  N   UNL     1       7.494  -0.907  -3.242  0.00  0.00    -0.152 NA
ATOM     18  N   UNL     1       7.465  -1.240  -2.055  0.00  0.00    -0.070 NA
ATOM     19  N   UNL     1       6.506  -0.545  -1.320  0.00  0.00    -0.179 N 
ATOM     20  N   UNL     1       5.852   0.336  -2.146  0.00  0.00    -0.183 NA
ATOM     21  H   UNL     1       6.329  -0.664  -0.374  0.00  0.00    +0.191 HD
BRANCH  20  22
ATOM     22  C   UNL     1       4.414   0.043  -2.197  0.00  0.00    +0.035 C 
ATOM     23  C   UNL     1       4.179  -1.425  -1.835  0.00  0.00    +0.029 C 
ATOM     24  C   UNL     1       3.675   0.938  -1.201  0.00  0.00    +0.029 C 
ATOM     25  C   UNL     1       3.889   0.309  -3.609  0.00  0.00    +0.029 C 
ENDBRANCH  20  22
ENDBRANCH   1  16
BRANCH   1  26
ATOM     26  N   UNL     1       6.086  -0.519  -5.795  0.00  0.00    +0.389 N 
ATOM     27  H   UNL     1       6.640   0.296  -6.009  0.00  0.00    -0.081 HD
BRANCH  26  28
ATOM     28  C   UNL     1       6.952  -1.705  -5.762  0.00  0.00    -0.042 C 
BRANCH  28  29
ATOM     29  C   UNL     1       7.794  -1.747  -7.011  0.00  0.00    -0.064 A 
ATOM     30  C   UNL     1       7.326  -2.399  -8.137  0.00  0.00    +0.005 A 
ATOM     31  C   UNL     1       8.097  -2.439  -9.283  0.00  0.00    +0.046 A 
ATOM     32  C   UNL     1       9.341  -1.825  -9.303  0.00  0.00    +0.120 A 
ATOM     33  C   UNL     1       9.807  -1.171  -8.172  0.00  0.00    +0.046 A 
ATOM     34  C   UNL     1       9.031  -1.129  -7.030  0.00  0.00    +0.005 A 
BRANCH  32  35
ATOM     35  O   UNL     1      10.101  -1.863 -10.430  0.00  0.00    -0.495 OA
ATOM     36  C   UNL     1      11.370  -1.210 -10.378  0.00  0.00    +0.277 C 
ENDBRANCH  32  35
ENDBRANCH  28  29
ENDBRANCH  26  28
BRANCH  26  37
ATOM     37  C   UNL     1       5.055  -0.694  -6.827  0.00  0.00    -0.046 C 
BRANCH  37  38
ATOM     38  C   UNL     1       4.296   0.620  -7.018  0.00  0.00    +0.102 C 
ATOM     39  C   UNL     1       3.065   0.388  -7.921  0.00  0.00    +0.032 C 
ATOM     40  C   UNL     1       3.051   1.672  -8.795  0.00  0.00    +0.030 C 
ATOM     41  C   UNL     1       4.569   1.948  -8.937  0.00  0.00    +0.160 C 
ATOM     42  O   UNL     1       5.139   1.578  -7.669  0.00  0.00    -0.378 OA
ENDBRANCH  37  38
ENDBRANCH  26  37
ENDBRANCH   1  26
TORSDOF 10
