REMARK  Name = ZINC63686401
REMARK  7 active torsions:
REMARK  status: ('A' for Active; 'I' for Inactive)
REMARK    1  A    between atoms: C_1  and  C_2
REMARK    2  A    between atoms: C_4  and  C_29
REMARK    3  A    between atoms: C_9  and  C_13
REMARK    4  A    between atoms: C_13  and  S_14
REMARK    5  A    between atoms: S_14  and  C_15
REMARK    6  A    between atoms: C_19  and  C_23
REMARK    7  A    between atoms: N_21  and  C_22
REMARK                            x       y       z     vdW  Elec       q    Type
REMARK                         _______ _______ _______ _____ _____    ______ ____
ROOT
ATOM      1  C   UNL     1       1.058  -4.777   3.640  0.00  0.00    +0.125 C 
ENDROOT
BRANCH   1  10
ATOM      2  C   UNL     1      -0.520   1.451   0.038  0.00  0.00    +0.044 C 
ATOM      3  C   UNL     1      -0.237  -0.029   0.015  0.00  0.00    -0.048 A 
ATOM      4  C   UNL     1      -0.231  -0.708  -1.195  0.00  0.00    +0.007 A 
ATOM      5  C   UNL     1       0.024  -2.051  -1.237  0.00  0.00    -0.037 A 
ATOM      6  C   UNL     1       0.281  -2.742  -0.053  0.00  0.00    +0.048 A 
ATOM      7  C   UNL     1       0.277  -2.059   1.176  0.00  0.00    +0.051 A 
ATOM      8  C   UNL     1       0.020  -0.691   1.195  0.00  0.00    +0.029 A 
ATOM      9  N   UNL     1       0.532  -2.752   2.338  0.00  0.00    -0.357 N 
ATOM     10  C   UNL     1       0.788  -4.083   2.330  0.00  0.00    +0.030 A 
ATOM     11  C   UNL     1       0.810  -4.810   1.194  0.00  0.00    +0.073 A 
ATOM     12  C   UNL     1       0.560  -4.189  -0.052  0.00  0.00    +0.190 A 
ATOM     13  O   UNL     1       0.576  -4.829  -1.090  0.00  0.00    -0.287 OA
ATOM     14  C   UNL     1       0.027  -2.780  -2.556  0.00  0.00    +0.044 C 
ATOM     15  H   UNL     1       0.528  -2.276   3.183  0.00  0.00    +0.166 HD
ENDBRANCH   1  10
BRANCH   1  16
ATOM     16  S   UNL     1       2.728  -4.360   4.212  0.00  0.00    -0.119 S 
BRANCH  16  17
ATOM     17  C   UNL     1       2.894  -5.261   5.778  0.00  0.00    +0.200 C 
ATOM     18  N   UNL     1       1.824  -4.851   6.715  0.00  0.00    -0.229 NA
ATOM     19  N   UNL     1       0.773  -5.866   6.542  0.00  0.00    -0.233 NA
ATOM     20  C   UNL     1       1.547  -7.121   6.356  0.00  0.00    +0.171 C 
ATOM     21  N   UNL     1       2.720  -6.711   5.548  0.00  0.00    -0.260 NA
ATOM     22  C   UNL     1       3.922  -7.455   5.947  0.00  0.00    +0.109 C 
ATOM     23  H   UNL     1       2.162  -4.839   7.666  0.00  0.00    +0.143 HD
ATOM     24  H   UNL     1       0.208  -5.666   5.730  0.00  0.00    +0.143 HD
BRANCH  20  25
ATOM     25  C   UNL     1       0.724  -8.143   5.614  0.00  0.00    -0.015 A 
ATOM     26  C   UNL     1       1.344  -9.061   4.787  0.00  0.00    +0.006 A 
ATOM     27  C   UNL     1       0.589  -9.998   4.107  0.00  0.00    +0.000 A 
ATOM     28  C   UNL     1      -0.785 -10.018   4.254  0.00  0.00    +0.000 A 
ATOM     29  C   UNL     1      -1.405  -9.100   5.082  0.00  0.00    +0.000 A 
ATOM     30  C   UNL     1      -0.650  -8.166   5.765  0.00  0.00    +0.006 A 
ENDBRANCH  20  25
ENDBRANCH  16  17
ENDBRANCH   1  16
TORSDOF 4
