REMARK  Name = ZINC08336652
REMARK  8 active torsions:
REMARK  status: ('A' for Active; 'I' for Inactive)
REMARK    1  A    between atoms: C_1  and  C_2
REMARK    2  A    between atoms: C_4  and  C_24
REMARK    3  A    between atoms: C_6  and  S_8
REMARK    4  A    between atoms: S_8  and  C_9
REMARK    5  A    between atoms: C_9  and  C_10
REMARK    6  A    between atoms: N_12  and  N_13
REMARK    7  A    between atoms: C_14  and  C_15
REMARK    8  A    between atoms: C_20  and  O_21
REMARK                            x       y       z     vdW  Elec       q    Type
REMARK                         _______ _______ _______ _____ _____    ______ ____
ROOT
ATOM      1  C   UNL     1       0.056  -2.148   5.299  0.00  0.00    +0.242 C 
ATOM      2  O   UNL     1       0.073  -3.354   5.431  0.00  0.00    -0.273 OA
ATOM      3  N   UNL     1       0.050  -1.351   6.386  0.00  0.00    -0.206 N 
ATOM      4  H   UNL     1       0.036  -0.387   6.280  0.00  0.00    +0.177 HD
ENDROOT
BRANCH   3   5
ATOM      5  N   UNL     1       0.064  -1.915   7.668  0.00  0.00    -0.188 NA
ATOM      6  C   UNL     1       0.058  -1.147   8.715  0.00  0.00    +0.142 C 
BRANCH   6   7
ATOM      7  C   UNL     1       0.072  -1.740  10.064  0.00  0.00    +0.039 A 
ATOM      8  C   UNL     1       0.061  -0.917  11.193  0.00  0.00    +0.033 A 
ATOM      9  C   UNL     1       0.074  -1.478  12.453  0.00  0.00    +0.043 A 
ATOM     10  C   UNL     1       0.100  -2.855  12.604  0.00  0.00    +0.043 A 
ATOM     11  C   UNL     1       0.112  -3.680  11.494  0.00  0.00    +0.084 A 
ATOM     12  C   UNL     1       0.092  -3.132  10.221  0.00  0.00    +0.144 A 
ATOM     13 CL   UNL     1       0.145  -5.404  11.696  0.00  0.00    -0.080 Cl
ATOM     14 CL   UNL     1       0.060  -0.455  13.855  0.00  0.00    -0.083 Cl
BRANCH  12  15
ATOM     15  O   UNL     1       0.097  -3.941   9.130  0.00  0.00    -0.505 OA
ATOM     16  H   UNL     1       0.982  -4.164   8.810  0.00  0.00    +0.292 HD
ENDBRANCH  12  15
ENDBRANCH   6   7
ENDBRANCH   3   5
BRANCH   1  17
ATOM     17  C   UNL     1       0.041  -1.542   3.919  0.00  0.00    +0.174 C 
BRANCH  17  18
ATOM     18  S   UNL     1       0.053  -2.864   2.678  0.00  0.00    -0.077 S 
BRANCH  18  24
ATOM     19  C   UNL     1      -0.018   1.503   0.010  0.00  0.00    +0.066 C 
ATOM     20  C   UNL     1       0.002  -0.004   0.002  0.00  0.00    +0.043 A 
ATOM     21  C   UNL     1       0.006  -0.699  -1.198  0.00  0.00    +0.046 A 
ATOM     22  C   UNL     1       0.025  -2.084  -1.161  0.00  0.00    +0.043 A 
ATOM     23  N   UNL     1       0.039  -2.699   0.010  0.00  0.00    -0.227 NA
ATOM     24  C   UNL     1       0.035  -2.005   1.140  0.00  0.00    +0.189 A 
ATOM     25  N   UNL     1       0.022  -0.679   1.139  0.00  0.00    -0.227 NA
ATOM     26  C   UNL     1       0.029  -2.881  -2.440  0.00  0.00    +0.066 C 
ENDBRANCH  18  24
ENDBRANCH  17  18
ENDBRANCH   1  17
TORSDOF 6
