REMARK  Name = ZINC50631462
REMARK  4 active torsions:
REMARK  status: ('A' for Active; 'I' for Inactive)
REMARK    1  A    between atoms: C_1  and  C_2
REMARK    2  A    between atoms: C_12  and  C_20
REMARK    3  A    between atoms: C_23  and  O_26
REMARK    4  A    between atoms: O_26  and  C_27
REMARK                            x       y       z     vdW  Elec       q    Type
REMARK                         _______ _______ _______ _____ _____    ______ ____
ROOT
ATOM      1  C   UNL     1       0.541   1.836   0.785  0.00  0.00    +0.044 C 
ATOM      2  C   UNL     1       0.511   0.340   0.612  0.00  0.00    -0.050 A 
ATOM      3  C   UNL     1       0.607  -0.212  -0.655  0.00  0.00    +0.007 A 
ATOM      4  C   UNL     1       0.577  -1.581  -0.834  0.00  0.00    +0.046 A 
ATOM      5  C   UNL     1       0.452  -2.424   0.261  0.00  0.00    +0.129 A 
ATOM      6  C   UNL     1       0.364  -1.862   1.548  0.00  0.00    +0.039 A 
ATOM      7  C   UNL     1       0.396  -0.479   1.717  0.00  0.00    +0.016 A 
ATOM      8  C   UNL     1       0.254  -2.775   2.692  0.00  0.00    +0.064 C 
ATOM      9  C   UNL     1      -0.171  -4.202   2.384  0.00  0.00    +0.105 C 
ATOM     10  C   UNL     1       0.683  -4.629   1.190  0.00  0.00    +0.241 C 
ATOM     11  O   UNL     1       0.412  -3.765   0.084  0.00  0.00    -0.491 OA
ATOM     12  C   UNL     1       0.029  -5.212   3.527  0.00  0.00    +0.153 C 
ATOM     13  N   UNL     1       0.368  -4.626   4.833  0.00  0.00    -0.221 N 
ATOM     14  C   UNL     1       0.556  -3.288   4.959  0.00  0.00    +0.249 A 
ATOM     15  N   UNL     1       0.798  -3.054   6.244  0.00  0.00    -0.198 NA
ATOM     16  C   UNL     1       0.793  -4.197   6.922  0.00  0.00    +0.247 A 
ATOM     17  N   UNL     1       0.545  -5.187   6.104  0.00  0.00    -0.156 NA
ATOM     18  N   UNL     1       0.519  -2.432   3.908  0.00  0.00    -0.215 NA
ENDROOT
BRANCH  12  19
ATOM     19  C   UNL     1       1.136  -6.157   3.136  0.00  0.00    -0.022 A 
ATOM     20  C   UNL     1       2.454  -5.745   3.210  0.00  0.00    +0.009 A 
ATOM     21  C   UNL     1       3.470  -6.610   2.851  0.00  0.00    +0.046 A 
ATOM     22  C   UNL     1       3.167  -7.892   2.417  0.00  0.00    +0.120 A 
ATOM     23  C   UNL     1       1.844  -8.303   2.345  0.00  0.00    +0.046 A 
ATOM     24  C   UNL     1       0.832  -7.437   2.709  0.00  0.00    +0.009 A 
BRANCH  22  25
ATOM     25  O   UNL     1       4.165  -8.744   2.064  0.00  0.00    -0.495 OA
ATOM     26  C   UNL     1       3.780 -10.049   1.626  0.00  0.00    +0.277 C 
ENDBRANCH  22  25
ENDBRANCH  12  19
TORSDOF 2
