REMARK  Name = ZINC66926707
REMARK  8 active torsions:
REMARK  status: ('A' for Active; 'I' for Inactive)
REMARK    1  A    between atoms: C_1  and  C_2
REMARK    2  A    between atoms: C_2  and  C_27
REMARK    3  A    between atoms: C_3  and  C_4
REMARK    4  A    between atoms: C_4  and  N_5
REMARK    5  A    between atoms: C_8  and  N_11
REMARK    6  A    between atoms: N_14  and  C_15
REMARK    7  A    between atoms: C_15  and  C_16
REMARK    8  A    between atoms: C_16  and  O_26
REMARK                            x       y       z     vdW  Elec       q    Type
REMARK                         _______ _______ _______ _____ _____    ______ ____
ROOT
ATOM      1  N   UNL     1      -3.720  -1.384   6.268  0.00  0.00    -0.297 N 
ATOM      2  C   UNL     1      -4.357  -0.717   7.251  0.00  0.00    +0.300 C 
ATOM      3  O   UNL     1      -4.163   0.474   7.402  0.00  0.00    -0.253 OA
ATOM      4  N   UNL     1      -5.209  -1.369   8.066  0.00  0.00    -0.296 N 
ATOM      5  H   UNL     1      -3.875  -2.334   6.148  0.00  0.00    +0.151 HD
ATOM      6  H   UNL     1      -5.364  -2.319   7.946  0.00  0.00    +0.150 HD
ENDROOT
BRANCH   1  10
ATOM      7  N   UNL     1      -0.356  -0.718   3.818  0.00  0.00    +0.382 N 
ATOM      8  C   UNL     1      -1.666  -0.715   3.156  0.00  0.00    -0.077 C 
ATOM      9  C   UNL     1      -2.694  -1.416   4.046  0.00  0.00    +0.004 C 
ATOM     10  C   UNL     1      -2.794  -0.674   5.382  0.00  0.00    +0.071 C 
ATOM     11  C   UNL     1      -1.407  -0.618   6.029  0.00  0.00    +0.004 C 
ATOM     12  C   UNL     1      -0.427   0.053   5.065  0.00  0.00    -0.077 C 
ATOM     13  H   UNL     1      -0.089  -1.668   4.027  0.00  0.00    -0.081 HD
BRANCH   7  14
ATOM     14  C   UNL     1       0.643  -0.114   2.927  0.00  0.00    -0.051 C 
BRANCH  14  17
ATOM     15  C   UNL     1       0.454   1.038   0.360  0.00  0.00    +0.038 C 
ATOM     16  C   UNL     1       0.660  -0.447   0.508  0.00  0.00    -0.081 C 
ATOM     17  C   UNL     1       0.806  -0.973   1.700  0.00  0.00    -0.047 C 
ATOM     18  C   UNL     1       0.700  -1.328  -0.714  0.00  0.00    +0.038 C 
ENDBRANCH  14  17
ENDBRANCH   7  14
ENDBRANCH   1  10
BRANCH   4  19
ATOM     19  C   UNL     1      -5.901  -0.644   9.135  0.00  0.00    +0.145 C 
BRANCH  19  20
ATOM     20  C   UNL     1      -6.897  -1.579   9.823  0.00  0.00    +0.107 C 
ATOM     21  C   UNL     1      -7.873  -2.128   8.785  0.00  0.00    +0.041 C 
ATOM     22  C   UNL     1      -8.988  -2.883   9.519  0.00  0.00    +0.008 C 
ATOM     23  C   UNL     1      -9.850  -1.864  10.262  0.00  0.00    +0.035 C 
ATOM     24  C   UNL     1      -8.991  -0.951  11.097  0.00  0.00    -0.041 A 
ATOM     25  C   UNL     1      -7.636  -0.818  10.893  0.00  0.00    -0.011 A 
ATOM     26  C   UNL     1      -6.902   0.047  11.695  0.00  0.00    +0.007 A 
ATOM     27  C   UNL     1      -7.519   0.769  12.695  0.00  0.00    +0.000 A 
ATOM     28  C   UNL     1      -8.878   0.632  12.902  0.00  0.00    +0.000 A 
ATOM     29  C   UNL     1      -9.610  -0.225  12.106  0.00  0.00    +0.004 A 
BRANCH  20  30
ATOM     30  O   UNL     1      -6.188  -2.665  10.423  0.00  0.00    -0.382 OA
ATOM     31  H   UNL     1      -5.542  -2.393  11.088  0.00  0.00    +0.211 HD
ENDBRANCH  20  30
ENDBRANCH  19  20
ENDBRANCH   4  19
TORSDOF 6
