REMARK  Name = ZINC38650887
REMARK  12 active torsions:
REMARK  status: ('A' for Active; 'I' for Inactive)
REMARK    1  A    between atoms: C_1  and  C_2
REMARK    2  A    between atoms: C_2  and  C_3
REMARK    3  A    between atoms: C_3  and  C_4
REMARK    4  A    between atoms: C_4  and  O_5
REMARK    5  A    between atoms: O_5  and  C_6
REMARK    6  A    between atoms: C_9  and  C_12
REMARK    7  A    between atoms: C_17  and  O_26
REMARK    8  A    between atoms: C_21  and  N_25
REMARK    9  A    between atoms: C_22  and  C_23
REMARK   10  A    between atoms: O_26  and  C_27
REMARK   11  A    between atoms: C_27  and  C_29
REMARK   12  A    between atoms: C_33  and  N_35
REMARK                            x       y       z     vdW  Elec       q    Type
REMARK                         _______ _______ _______ _____ _____    ______ ____
ROOT
ATOM      1  C   UNL     1       1.857  -8.028  -3.060  0.00  0.00    +0.098 C 
ATOM      2  C   UNL     1       3.309  -8.422  -3.127  0.00  0.00    +0.008 A 
ATOM      3  C   UNL     1       4.079  -8.380  -1.978  0.00  0.00    +0.012 A 
ATOM      4  C   UNL     1       5.412  -8.737  -2.021  0.00  0.00    +0.047 A 
ATOM      5  C   UNL     1       5.984  -9.140  -3.220  0.00  0.00    +0.135 A 
ATOM      6  C   UNL     1       5.216  -9.183  -4.372  0.00  0.00    +0.093 A 
ATOM      7  C   UNL     1       3.875  -8.823  -4.327  0.00  0.00    +0.138 A 
ATOM      8  O   UNL     1       3.137  -8.870  -5.463  0.00  0.00    -0.441 OA
ATOM      9  C   UNL     1       1.796  -8.909  -5.390  0.00  0.00    +0.199 C 
ATOM     10  C   UNL     1       1.131  -8.523  -4.279  0.00  0.00    +0.098 C 
ENDROOT
BRANCH   1  14
ATOM     11  C   UNL     1       1.552  -3.770  -2.861  0.00  0.00    +0.121 A 
ATOM     12  C   UNL     1       1.044  -4.552  -1.834  0.00  0.00    +0.046 A 
ATOM     13  C   UNL     1       1.144  -5.928  -1.900  0.00  0.00    +0.008 A 
ATOM     14  C   UNL     1       1.749  -6.527  -2.990  0.00  0.00    -0.034 A 
ATOM     15  C   UNL     1       2.256  -5.750  -4.015  0.00  0.00    +0.008 A 
ATOM     16  C   UNL     1       2.154  -4.374  -3.956  0.00  0.00    +0.046 A 
BRANCH  11  17
ATOM     17  O   UNL     1       1.455  -2.416  -2.799  0.00  0.00    -0.492 OA
BRANCH  17  18
ATOM     18  C   UNL     1       0.823  -1.864  -1.642  0.00  0.00    +0.229 C 
BRANCH  18  19
ATOM     19  C   UNL     1       0.807  -0.338  -1.749  0.00  0.00    +0.041 C 
BRANCH  19  21
ATOM     20  C   UNL     1       0.114   1.779  -0.617  0.00  0.00    +0.004 C 
ATOM     21  C   UNL     1       0.131   0.253  -0.510  0.00  0.00    -0.000 C 
ENDBRANCH  19  21
ENDBRANCH  18  19
ENDBRANCH  17  18
ENDBRANCH  11  17
ENDBRANCH   1  14
BRANCH   9  22
ATOM     22  N   UNL     1       1.082  -9.352  -6.475  0.00  0.00    -0.328 N 
ATOM     23  H   UNL     1       1.547  -9.632  -7.280  0.00  0.00    +0.145 HD
ATOM     24  H   UNL     1       0.114  -9.387  -6.438  0.00  0.00    +0.145 HD
ENDBRANCH   9  22
BRANCH  10  25
ATOM     25  C   UNL     1      -0.300  -8.589  -4.265  0.00  0.00    +0.101 C 
ATOM     26  N   UNL     1      -1.435  -8.641  -4.254  0.00  0.00    -0.191 NA
ENDBRANCH  10  25
BRANCH   5  27
ATOM     27  O   UNL     1       7.296  -9.491  -3.264  0.00  0.00    -0.422 OA
BRANCH  27  28
ATOM     28  C   UNL     1       7.667 -10.632  -2.649  0.00  0.00    +0.345 C 
ATOM     29  O   UNL     1       6.825 -11.364  -2.168  0.00  0.00    -0.245 OA
BRANCH  28  30
ATOM     30  C   UNL     1       9.097 -10.991  -2.559  0.00  0.00    +0.062 A 
ATOM     31  C   UNL     1      10.068 -10.149  -3.105  0.00  0.00    +0.015 A 
ATOM     32  C   UNL     1      11.401 -10.491  -3.017  0.00  0.00    +0.003 A 
ATOM     33  C   UNL     1      11.777 -11.666  -2.390  0.00  0.00    +0.033 A 
ATOM     34  C   UNL     1      10.820 -12.505  -1.847  0.00  0.00    +0.127 A 
ATOM     35  C   UNL     1       9.484 -12.172  -1.922  0.00  0.00    +0.047 A 
BRANCH  34  36
ATOM     36  N   UNL     1      11.232 -13.760  -1.178  0.00  0.00    +0.056 N 
ATOM     37  O   UNL     1      12.404 -14.050  -1.107  0.00  0.00    -0.126 OA
ATOM     38  O   UNL     1      10.398 -14.494  -0.703  0.00  0.00    -0.126 OA
ENDBRANCH  34  36
ENDBRANCH  28  30
ENDBRANCH  27  28
ENDBRANCH   5  27
TORSDOF 11
