REMARK  Name = ZINC09985747
REMARK  12 active torsions:
REMARK  status: ('A' for Active; 'I' for Inactive)
REMARK    1  A    between atoms: C_1  and  C_2
REMARK    2  A    between atoms: C_2  and  O_3
REMARK    3  A    between atoms: O_3  and  C_4
REMARK    4  A    between atoms: C_6  and  C_11
REMARK    5  A    between atoms: C_9  and  O_10
REMARK    6  A    between atoms: C_16  and  C_21
REMARK    7  A    between atoms: C_27  and  C_35
REMARK    8  A    between atoms: C_28  and  C_29
REMARK    9  A    between atoms: C_29  and  O_31
REMARK   10  A    between atoms: O_31  and  C_32
REMARK   11  A    between atoms: C_32  and  C_33
REMARK   12  A    between atoms: C_32  and  C_34
REMARK                            x       y       z     vdW  Elec       q    Type
REMARK                         _______ _______ _______ _____ _____    ______ ____
ROOT
ATOM      1  C   UNL     1      -2.557   4.152   0.049  0.00  0.00    +0.092 C 
ATOM      2  C   UNL     1      -2.637   4.995   1.297  0.00  0.00    +0.024 C 
ATOM      3  C   UNL     1      -2.425   6.327   1.244  0.00  0.00    +0.016 C 
ATOM      4  C   UNL     1      -2.490   7.175   2.490  0.00  0.00    +0.060 C 
ATOM      5  C   UNL     1      -3.492   6.566   3.474  0.00  0.00    +0.039 C 
ATOM      6  C   UNL     1      -3.049   5.135   3.795  0.00  0.00    +0.088 C 
ATOM      7  C   UNL     1      -2.939   4.356   2.513  0.00  0.00    +0.162 C 
ATOM      8  O   UNL     1      -3.115   3.154   2.527  0.00  0.00    -0.292 OA
ATOM      9  N   UNL     1      -2.147   6.939   0.051  0.00  0.00    -0.321 N 
ATOM     10  C   UNL     1      -2.454   6.329  -1.133  0.00  0.00    +0.016 C 
ATOM     11  C   UNL     1      -2.661   5.003  -1.182  0.00  0.00    +0.065 C 
ATOM     12  C   UNL     1      -2.560   7.151  -2.392  0.00  0.00    +0.061 C 
ATOM     13  H   UNL     1      -1.672   7.931   0.040  0.00  0.00    +0.152 HD
ENDROOT
BRANCH   1  16
ATOM     14  C   UNL     1      -0.016   1.356   0.009  0.00  0.00    +0.162 A 
ATOM     15  C   UNL     1      -1.225   2.034   0.019  0.00  0.00    +0.054 A 
ATOM     16  C   UNL     1      -1.242   3.416   0.033  0.00  0.00    -0.032 A 
ATOM     17  C   UNL     1      -0.055   4.125   0.025  0.00  0.00    +0.008 A 
ATOM     18  C   UNL     1       1.154   3.455   0.010  0.00  0.00    +0.049 A 
ATOM     19  C   UNL     1       1.178   2.069   0.002  0.00  0.00    +0.158 A 
BRANCH  19  20
ATOM     20  O   UNL     1       2.367   1.409  -0.013  0.00  0.00    -0.503 OA
ATOM     21  H   UNL     1       3.310   1.974  -0.019  0.00  0.00    +0.292 HD
ENDBRANCH  19  20
BRANCH  14  22
ATOM     22  O   UNL     1       0.002  -0.004   0.002  0.00  0.00    -0.489 OA
BRANCH  22  24
ATOM     23  C   UNL     1      -1.041  -2.184   0.000  0.00  0.00    +0.048 C 
ATOM     24  C   UNL     1      -1.262  -0.670   0.011  0.00  0.00    +0.226 C 
ENDBRANCH  22  24
ENDBRANCH  14  22
ENDBRANCH   1  16
BRANCH   5  25
ATOM     25  C   UNL     1      -3.520   7.383   4.739  0.00  0.00    -0.006 A 
ATOM     26  C   UNL     1      -4.559   8.043   5.307  0.00  0.00    +0.011 A 
ATOM     27  C   UNL     1      -4.351   8.736   6.484  0.00  0.00    +0.008 A 
ATOM     28  C   UNL     1      -3.113   8.736   7.037  0.00  0.00    +0.045 A 
ATOM     29  S   UNL     1      -2.194   7.729   5.884  0.00  0.00    -0.101 S 
ENDBRANCH   5  25
BRANCH  11  30
ATOM     30  C   UNL     1      -2.983   4.398  -2.419  0.00  0.00    +0.338 C 
ATOM     31  O   UNL     1      -3.070   5.077  -3.424  0.00  0.00    -0.245 OA
BRANCH  30  32
ATOM     32  O   UNL     1      -3.194   3.067  -2.484  0.00  0.00    -0.459 OA
BRANCH  32  33
ATOM     33  C   UNL     1      -3.516   2.523  -3.765  0.00  0.00    +0.171 C 
ATOM     34  C   UNL     1      -2.228   2.119  -4.486  0.00  0.00    +0.052 C 
ATOM     35  C   UNL     1      -4.408   1.292  -3.588  0.00  0.00    +0.052 C 
ENDBRANCH  32  33
ENDBRANCH  30  32
ENDBRANCH  11  30
TORSDOF 8
