REMARK  Name = ZINC08833824
REMARK  5 active torsions:
REMARK  status: ('A' for Active; 'I' for Inactive)
REMARK    1  A    between atoms: C_8  and  C_20
REMARK    2  A    between atoms: N_10  and  S_12
REMARK    3  A    between atoms: S_12  and  C_15
REMARK    4  A    between atoms: N_22  and  C_23
REMARK    5  A    between atoms: C_24  and  C_32
REMARK                            x       y       z     vdW  Elec       q    Type
REMARK                         _______ _______ _______ _____ _____    ______ ____
ROOT
ATOM      1  C   UNL     1      -4.878   4.612   2.344  0.00  0.00    +0.000 A 
ATOM      2  C   UNL     1      -5.802   4.081   1.464  0.00  0.00    +0.000 A 
ATOM      3  C   UNL     1      -5.419   3.087   0.587  0.00  0.00    +0.005 A 
ATOM      4  C   UNL     1      -4.113   2.616   0.583  0.00  0.00    -0.028 A 
ATOM      5  C   UNL     1      -3.194   3.137   1.465  0.00  0.00    -0.041 A 
ATOM      6  C   UNL     1      -3.581   4.142   2.343  0.00  0.00    +0.004 A 
ATOM      7  C   UNL     1      -1.768   2.656   1.540  0.00  0.00    +0.065 C 
ATOM      8  C   UNL     1      -1.369   1.936   0.253  0.00  0.00    +0.170 C 
ATOM      9  N   UNL     1      -2.439   0.982  -0.084  0.00  0.00    -0.160 NA
ATOM     10  C   UNL     1      -3.758   1.536  -0.409  0.00  0.00    +0.145 C 
ENDROOT
BRANCH   8  11
ATOM     11  C   UNL     1      -0.074   1.195   0.464  0.00  0.00    +0.237 C 
ATOM     12  O   UNL     1       0.007   0.351   1.331  0.00  0.00    -0.274 OA
ATOM     13  N   UNL     1       0.992   1.467  -0.314  0.00  0.00    -0.278 N 
ATOM     14  H   UNL     1       0.927   2.142  -1.008  0.00  0.00    +0.155 HD
BRANCH  13  15
ATOM     15  C   UNL     1       2.183   0.780  -0.124  0.00  0.00    +0.090 A 
ATOM     16  C   UNL     1       3.375   0.914  -0.820  0.00  0.00    +0.084 A 
ATOM     17  C   UNL     1       4.487   0.070  -0.417  0.00  0.00    -0.018 A 
ATOM     18  C   UNL     1       4.227  -0.774   0.606  0.00  0.00    -0.004 A 
ATOM     19  S   UNL     1       2.540  -0.456   1.037  0.00  0.00    -0.077 S 
ATOM     20  C   UNL     1       5.170  -1.758   1.226  0.00  0.00    +0.043 C 
ATOM     21  C   UNL     1       6.371  -1.936   0.286  0.00  0.00    +0.005 C 
ATOM     22  C   UNL     1       6.874  -0.553  -0.139  0.00  0.00    +0.005 C 
ATOM     23  C   UNL     1       5.859   0.103  -1.078  0.00  0.00    +0.037 C 
BRANCH  16  24
ATOM     24  C   UNL     1       3.506   1.851  -1.895  0.00  0.00    +0.102 C 
ATOM     25  N   UNL     1       3.611   2.595  -2.747  0.00  0.00    -0.191 NA
ENDBRANCH  16  24
ENDBRANCH  13  15
ENDBRANCH   8  11
BRANCH   9  26
ATOM     26  S   UNL     1      -2.165  -0.651  -0.097  0.00  0.00    +0.068 S 
ATOM     27  O   UNL     1      -3.221  -1.234  -0.847  0.00  0.00    -0.152 OA
ATOM     28  O   UNL     1      -0.797  -0.830  -0.439  0.00  0.00    -0.152 OA
BRANCH  26  29
ATOM     29  C   UNL     1      -2.348  -1.223   1.560  0.00  0.00    +0.143 A 
ATOM     30  C   UNL     1      -3.461  -1.671   2.190  0.00  0.00    +0.036 A 
ATOM     31  C   UNL     1      -3.369  -2.074   3.509  0.00  0.00    +0.010 A 
ATOM     32  C   UNL     1      -2.167  -2.010   4.133  0.00  0.00    +0.047 A 
ATOM     33  S   UNL     1      -1.114  -1.370   2.841  0.00  0.00    -0.077 S 
ENDBRANCH  26  29
ENDBRANCH   9  26
TORSDOF 5
