REMARK  Name = ZINC01675714
REMARK  9 active torsions:
REMARK  status: ('A' for Active; 'I' for Inactive)
REMARK    1  A    between atoms: C_1  and  C_2
REMARK    2  A    between atoms: C_1  and  N_4
REMARK    3  A    between atoms: C_2  and  O_3
REMARK    4  A    between atoms: N_4  and  C_5
REMARK    5  A    between atoms: C_5  and  C_7
REMARK    6  A    between atoms: C_5  and  O_11
REMARK    7  A    between atoms: N_14  and  C_15
REMARK    8  A    between atoms: C_15  and  C_17
REMARK    9  A    between atoms: C_15  and  O_21
REMARK                            x       y       z     vdW  Elec       q    Type
REMARK                         _______ _______ _______ _____ _____    ______ ____
ROOT
ATOM      1  N   UNL     1      -0.634   1.497   0.831  0.00  0.00    -0.254 N 
ATOM      2  C   UNL     1      -0.587   2.680   1.476  0.00  0.00    +0.306 C 
ATOM      3  O   UNL     1       0.152   3.559   1.078  0.00  0.00    -0.253 OA
ATOM      4  N   UNL     1      -1.359   2.888   2.560  0.00  0.00    -0.270 N 
ATOM      5  H   UNL     1      -1.889   2.161   2.925  0.00  0.00    +0.153 HD
ENDROOT
BRANCH   1   6
ATOM      6  C   UNL     1       0.132   1.304  -0.403  0.00  0.00    +0.139 C 
BRANCH   6   7
ATOM      7  C   UNL     1      -0.695   1.785  -1.597  0.00  0.00    +0.175 C 
BRANCH   7   8
ATOM      8  O   UNL     1      -0.921   3.191  -1.484  0.00  0.00    -0.393 OA
ATOM      9  H   UNL     1      -1.441   3.565  -2.209  0.00  0.00    +0.209 HD
ENDBRANCH   7   8
ENDBRANCH   6   7
ENDBRANCH   1   6
BRANCH   1  10
ATOM     10  C   UNL     1      -1.451   0.404   1.365  0.00  0.00    +0.257 C 
BRANCH  10  11
ATOM     11  C   UNL     1      -0.665  -0.340   2.445  0.00  0.00    +0.233 C 
ATOM     12 CL   UNL     1      -1.602  -1.783   2.985  0.00  0.00    -0.079 Cl
ATOM     13 CL   UNL     1       0.923  -0.871   1.775  0.00  0.00    -0.079 Cl
ATOM     14 CL   UNL     1      -0.387   0.756   3.850  0.00  0.00    -0.079 Cl
ENDBRANCH  10  11
BRANCH  10  15
ATOM     15  O   UNL     1      -2.650   0.938   1.931  0.00  0.00    -0.370 OA
ATOM     16  H   UNL     1      -3.200   1.424   1.301  0.00  0.00    +0.212 HD
ENDBRANCH  10  15
ENDBRANCH   1  10
BRANCH   4  17
ATOM     17  C   UNL     1      -1.398   4.210   3.189  0.00  0.00    +0.255 C 
BRANCH  17  18
ATOM     18  C   UNL     1      -1.419   4.051   4.711  0.00  0.00    +0.232 C 
ATOM     19 CL   UNL     1      -2.879   3.111   5.197  0.00  0.00    -0.079 Cl
ATOM     20 CL   UNL     1       0.064   3.175   5.244  0.00  0.00    -0.079 Cl
ATOM     21 CL   UNL     1      -1.467   5.679   5.485  0.00  0.00    -0.079 Cl
ENDBRANCH  17  18
BRANCH  17  22
ATOM     22  O   UNL     1      -2.574   4.904   2.767  0.00  0.00    -0.370 OA
ATOM     23  H   UNL     1      -3.399   4.455   2.995  0.00  0.00    +0.212 HD
ENDBRANCH  17  22
ENDBRANCH   4  17
TORSDOF 9
