REMARK  Name = ZINC10521960
REMARK  9 active torsions:
REMARK  status: ('A' for Active; 'I' for Inactive)
REMARK    1  A    between atoms: C_1  and  C_2
REMARK    2  A    between atoms: N_10  and  N_14
REMARK    3  A    between atoms: C_15  and  C_17
REMARK    4  A    between atoms: C_17  and  O_18
REMARK    5  A    between atoms: O_18  and  C_19
REMARK    6  A    between atoms: C_19  and  C_21
REMARK    7  A    between atoms: C_22  and  C_23
REMARK    8  A    between atoms: C_28  and  O_29
REMARK    9  A    between atoms: O_29  and  C_30
REMARK                            x       y       z     vdW  Elec       q    Type
REMARK                         _______ _______ _______ _____ _____    ______ ____
ROOT
ATOM      1  N   UNL     1      -1.146  -0.807   0.009  0.00  0.00    -0.221 N 
ATOM      2  C   UNL     1      -1.536  -1.435  -1.118  0.00  0.00    +0.267 C 
ATOM      3  O   UNL     1      -0.893  -1.305  -2.138  0.00  0.00    -0.271 OA
ATOM      4  H   UNL     1      -1.660  -0.911   0.825  0.00  0.00    +0.174 HD
ENDROOT
BRANCH   1  14
ATOM      5  C   UNL     1       5.008   4.205  -0.023  0.00  0.00    +0.007 C 
ATOM      6  C   UNL     1       3.533   3.799  -0.011  0.00  0.00    -0.014 C 
ATOM      7  C   UNL     1       3.220   2.976  -1.262  0.00  0.00    +0.006 C 
ATOM      8  C   UNL     1       1.741   2.581  -1.255  0.00  0.00    +0.035 C 
ATOM      9  C   UNL     1       1.435   1.768  -0.002  0.00  0.00    +0.114 C 
ATOM     10  C   UNL     1       1.765   2.567   1.254  0.00  0.00    +0.035 C 
ATOM     11  C   UNL     1       3.244   2.962   1.237  0.00  0.00    +0.006 C 
ATOM     12  C   UNL     1      -0.016   1.345   0.009  0.00  0.00    +0.263 C 
ATOM     13  O   UNL     1      -0.991   2.066   0.018  0.00  0.00    -0.271 OA
ATOM     14  N   UNL     1       0.002  -0.004   0.002  0.00  0.00    -0.137 N 
ATOM     15  C   UNL     1       1.253  -0.480  -0.013  0.00  0.00    +0.326 C 
ATOM     16  O   UNL     1       1.526  -1.665  -0.021  0.00  0.00    -0.251 OA
ATOM     17  N   UNL     1       2.176   0.501  -0.016  0.00  0.00    -0.284 N 
ATOM     18  H   UNL     1       3.140   0.392  -0.026  0.00  0.00    +0.151 HD
ENDBRANCH   1  14
BRANCH   2  19
ATOM     19  C   UNL     1      -2.771  -2.299  -1.110  0.00  0.00    +0.329 C 
BRANCH  19  20
ATOM     20  O   UNL     1      -2.974  -2.850  -2.413  0.00  0.00    -0.452 OA
BRANCH  20  21
ATOM     21  C   UNL     1      -4.046  -3.654  -2.577  0.00  0.00    +0.332 C 
ATOM     22  O   UNL     1      -4.787  -3.879  -1.639  0.00  0.00    -0.246 OA
BRANCH  21  23
ATOM     23  C   UNL     1      -4.308  -4.236  -3.843  0.00  0.00    +0.092 C 
ATOM     24  C   UNL     1      -5.381  -5.040  -4.008  0.00  0.00    +0.018 C 
BRANCH  24  25
ATOM     25  C   UNL     1      -5.653  -5.643  -5.319  0.00  0.00    +0.018 A 
ATOM     26  C   UNL     1      -4.803  -5.387  -6.402  0.00  0.00    +0.026 A 
ATOM     27  C   UNL     1      -5.065  -5.956  -7.629  0.00  0.00    +0.019 A 
ATOM     28  C   UNL     1      -6.166  -6.782  -7.797  0.00  0.00    +0.019 A 
ATOM     29  C   UNL     1      -7.013  -7.043  -6.738  0.00  0.00    +0.047 A 
ATOM     30  C   UNL     1      -6.763  -6.484  -5.494  0.00  0.00    +0.127 A 
ATOM     31 BR   UNL     1      -3.916  -5.610  -9.091  0.00  0.00    -0.050 Br
BRANCH  30  32
ATOM     32  O   UNL     1      -7.592  -6.744  -4.451  0.00  0.00    -0.495 OA
ATOM     33  C   UNL     1      -8.701  -7.609  -4.704  0.00  0.00    +0.277 C 
ENDBRANCH  30  32
ENDBRANCH  24  25
ENDBRANCH  21  23
ENDBRANCH  20  21
ENDBRANCH  19  20
ENDBRANCH   2  19
TORSDOF 7
