REMARK  Name = ZINC11873308
REMARK  11 active torsions:
REMARK  status: ('A' for Active; 'I' for Inactive)
REMARK    1  A    between atoms: C_1  and  C_2
REMARK    2  A    between atoms: C_5  and  C_7
REMARK    3  A    between atoms: N_9  and  C_10
REMARK    4  A    between atoms: N_9  and  C_15
REMARK    5  A    between atoms: C_10  and  C_11
REMARK    6  A    between atoms: C_11  and  C_12
REMARK    7  A    between atoms: C_12  and  N_67
REMARK    8  A    between atoms: C_13  and  N_67
REMARK    9  A    between atoms: C_14  and  N_67
REMARK   10  A    between atoms: C_15  and  C_16
REMARK   11  A    between atoms: C_21  and  N_69
REMARK                            x       y       z     vdW  Elec       q    Type
REMARK                         _______ _______ _______ _____ _____    ______ ____
ROOT
ATOM      1  C   UNL     1      -0.465  -0.133  -3.221  0.00  0.00    +0.111 C 
ENDROOT
BRANCH   1   2
ATOM      2  C   UNL     1      -1.374  -0.169  -4.451  0.00  0.00    +0.003 C 
ATOM      3  C   UNL     1      -2.743   0.415  -4.094  0.00  0.00    -0.014 C 
ATOM      4  C   UNL     1      -3.666   0.320  -5.311  0.00  0.00    -0.078 C 
ATOM      5  C   UNL     1      -2.507  -1.653  -6.108  0.00  0.00    -0.078 C 
ATOM      6  C   UNL     1      -1.550  -1.617  -4.915  0.00  0.00    -0.014 C 
ATOM      7  N   UNL     1      -3.814  -1.101  -5.692  0.00  0.00    +0.382 N 
ATOM      8  H   UNL     1      -4.155  -1.629  -4.880  0.00  0.00    -0.081 HD
BRANCH   7   9
ATOM      9  C   UNL     1      -4.790  -1.229  -6.794  0.00  0.00    -0.060 C 
ATOM     10  C   UNL     1      -6.187  -0.771  -6.324  0.00  0.00    +0.020 C 
ATOM     11  C   UNL     1      -7.160  -1.706  -7.015  0.00  0.00    -0.046 A 
ATOM     12  C   UNL     1      -8.525  -1.586  -7.222  0.00  0.00    +0.004 A 
ATOM     13  C   UNL     1      -9.216  -2.577  -7.892  0.00  0.00    +0.000 A 
ATOM     14  C   UNL     1      -8.545  -3.692  -8.357  0.00  0.00    +0.000 A 
ATOM     15  C   UNL     1      -7.184  -3.814  -8.151  0.00  0.00    +0.004 A 
ATOM     16  C   UNL     1      -6.489  -2.821  -7.480  0.00  0.00    -0.046 A 
ATOM     17  C   UNL     1      -5.020  -2.717  -7.131  0.00  0.00    +0.020 C 
ENDBRANCH   7   9
ENDBRANCH   1   2
BRANCH   1  20
ATOM     18  C   UNL     1       0.860   1.906  -3.372  0.00  0.00    +0.253 C 
ATOM     19  O   UNL     1       1.538   1.370  -4.229  0.00  0.00    -0.269 OA
ATOM     20  N   UNL     1      -0.201   1.260  -2.850  0.00  0.00    -0.297 N 
BRANCH  18  25
ATOM     21  C   UNL     1       1.378   6.892  -0.898  0.00  0.00    +0.051 C 
ATOM     22  C   UNL     1       1.440   5.634  -1.725  0.00  0.00    -0.013 A 
ATOM     23  C   UNL     1       2.266   5.347  -2.765  0.00  0.00    +0.011 A 
ATOM     24  C   UNL     1       2.159   4.130  -3.390  0.00  0.00    +0.021 A 
ATOM     25  C   UNL     1       1.197   3.256  -2.909  0.00  0.00    +0.074 A 
ATOM     26  S   UNL     1       0.471   4.204  -1.583  0.00  0.00    -0.089 S 
ENDBRANCH  18  25
BRANCH  20  27
ATOM     27  C   UNL     1      -1.089   1.949  -1.911  0.00  0.00    +0.106 C 
BRANCH  27  28
ATOM     28  C   UNL     1      -0.546   1.796  -0.489  0.00  0.00    +0.000 C 
BRANCH  28  29
ATOM     29  C   UNL     1      -1.474   2.516   0.492  0.00  0.00    -0.078 C 
BRANCH  29  32
ATOM     30  C   UNL     1      -1.677   3.238   2.794  0.00  0.00    -0.097 C 
ATOM     31  C   UNL     1      -1.005   0.967   2.292  0.00  0.00    -0.097 C 
ATOM     32  N   UNL     1      -0.925   2.377   1.857  0.00  0.00    +0.376 N 
ATOM     33  H   UNL     1       0.059   2.670   1.852  0.00  0.00    -0.083 HD
ENDBRANCH  29  32
ENDBRANCH  28  29
ENDBRANCH  27  28
ENDBRANCH  20  27
ENDBRANCH   1  20
TORSDOF 8
