REMARK  Name = ZINC22919390
REMARK  6 active torsions:
REMARK  status: ('A' for Active; 'I' for Inactive)
REMARK    1  A    between atoms: C_4  and  C_7
REMARK    2  A    between atoms: C_8  and  C_9
REMARK    3  A    between atoms: C_9  and  N_10
REMARK    4  A    between atoms: N_13  and  C_16
REMARK    5  A    between atoms: C_16  and  C_17
REMARK    6  A    between atoms: N_19  and  C_20
REMARK                            x       y       z     vdW  Elec       q    Type
REMARK                         _______ _______ _______ _____ _____    ______ ____
ROOT
ATOM      1  C   UNL     1       6.873  -7.953   3.249  0.00  0.00    +0.231 C 
ATOM      2  O   UNL     1       7.735  -7.627   2.461  0.00  0.00    -0.274 OA
ATOM      3  N   UNL     1       7.064  -9.018   4.053  0.00  0.00    -0.284 N 
ATOM      4  H   UNL     1       6.409  -9.234   4.736  0.00  0.00    +0.155 HD
ENDROOT
BRANCH   3   5
ATOM      5  C   UNL     1       8.206  -9.815   3.901  0.00  0.00    +0.037 A 
ATOM      6  C   UNL     1       8.784 -10.419   5.010  0.00  0.00    +0.027 A 
ATOM      7  C   UNL     1       9.910 -11.205   4.862  0.00  0.00    +0.051 A 
ATOM      8  C   UNL     1      10.467 -11.393   3.608  0.00  0.00    +0.167 A 
ATOM      9  C   UNL     1       9.890 -10.788   2.493  0.00  0.00    +0.169 A 
ATOM     10  C   UNL     1       8.758 -10.004   2.642  0.00  0.00    +0.072 A 
ATOM     11  O   UNL     1      10.617 -11.125   1.387  0.00  0.00    -0.447 OA
ATOM     12  C   UNL     1      11.868 -11.618   1.889  0.00  0.00    +0.254 C 
ATOM     13  O   UNL     1      11.557 -12.110   3.201  0.00  0.00    -0.448 OA
ATOM     14  C   UNL     1      12.889 -10.489   1.972  0.00  0.00    +0.093 C 
ATOM     15  C   UNL     1      13.179  -9.957   0.565  0.00  0.00    +0.008 C 
ATOM     16  C   UNL     1      13.720 -11.093  -0.305  0.00  0.00    +0.000 C 
ATOM     17  C   UNL     1      12.679 -12.210  -0.396  0.00  0.00    +0.008 C 
ATOM     18  C   UNL     1      12.386 -12.749   1.006  0.00  0.00    +0.093 C 
ENDBRANCH   3   5
BRANCH   1  19
ATOM     19  C   UNL     1       5.590  -7.167   3.332  0.00  0.00    +0.180 C 
BRANCH  19  23
ATOM     20  N   UNL     1       5.393  -3.331   1.567  0.00  0.00    +0.384 N 
ATOM     21  C   UNL     1       4.379  -4.321   1.182  0.00  0.00    -0.063 C 
ATOM     22  C   UNL     1       4.312  -5.422   2.242  0.00  0.00    +0.066 C 
ATOM     23  N   UNL     1       5.628  -6.064   2.361  0.00  0.00    -0.298 NA
ATOM     24  C   UNL     1       6.658  -5.080   2.723  0.00  0.00    +0.066 C 
ATOM     25  C   UNL     1       6.706  -3.982   1.658  0.00  0.00    -0.063 C 
ATOM     26  H   UNL     1       5.152  -2.934   2.463  0.00  0.00    -0.081 HD
BRANCH  20  27
ATOM     27  C   UNL     1       5.444  -2.265   0.558  0.00  0.00    -0.051 C 
BRANCH  27  29
ATOM     28  C   UNL     1       4.124  -0.201   0.714  0.00  0.00    +0.002 C 
ATOM     29  C   UNL     1       4.136  -1.516   0.551  0.00  0.00    -0.045 C 
BRANCH  28  33
ATOM     30  C   UNL     1       0.438   1.909   0.693  0.00  0.00    +0.000 A 
ATOM     31  C   UNL     1       1.625   2.597   0.871  0.00  0.00    +0.001 A 
ATOM     32  C   UNL     1       2.825   1.918   0.879  0.00  0.00    +0.008 A 
ATOM     33  C   UNL     1       2.841   0.533   0.707  0.00  0.00    -0.025 A 
ATOM     34  C   UNL     1       1.641  -0.155   0.528  0.00  0.00    +0.008 A 
ATOM     35  C   UNL     1       0.447   0.536   0.521  0.00  0.00    +0.001 A 
ENDBRANCH  28  33
ENDBRANCH  27  29
ENDBRANCH  20  27
ENDBRANCH  19  23
ENDBRANCH   1  19
TORSDOF 6
