REMARK  Name = ZINC09779495
REMARK  4 active torsions:
REMARK  status: ('A' for Active; 'I' for Inactive)
REMARK    1  A    between atoms: C_4  and  C_7
REMARK    2  A    between atoms: C_12  and  C_30
REMARK    3  A    between atoms: C_18  and  C_22
REMARK    4  A    between atoms: C_22  and  C_24
REMARK                            x       y       z     vdW  Elec       q    Type
REMARK                         _______ _______ _______ _____ _____    ______ ____
ROOT
ATOM      1  C   UNL     1      -3.174  -0.554   2.746  0.00  0.00    +0.032 C 
ATOM      2  C   UNL     1      -3.602   0.907   2.621  0.00  0.00    +0.059 C 
ATOM      3  C   UNL     1      -3.760   1.278   1.156  0.00  0.00    +0.017 C 
ATOM      4  C   UNL     1      -2.978   0.711   0.222  0.00  0.00    +0.036 C 
ATOM      5  C   UNL     1      -3.011   1.005  -1.259  0.00  0.00    +0.136 C 
ATOM      6  N   UNL     1      -4.153   1.783  -1.690  0.00  0.00    -0.331 N 
ATOM      7  C   UNL     1      -4.336   3.090  -1.262  0.00  0.00    +0.049 A 
ATOM      8  C   UNL     1      -4.231   4.160  -2.143  0.00  0.00    +0.025 A 
ATOM      9  C   UNL     1      -4.312   5.449  -1.663  0.00  0.00    +0.013 A 
ATOM     10  C   UNL     1      -4.501   5.681  -0.296  0.00  0.00    +0.024 A 
ATOM     11  C   UNL     1      -4.627   4.601   0.587  0.00  0.00    +0.036 A 
ATOM     12  C   UNL     1      -4.561   3.316   0.092  0.00  0.00    +0.053 A 
ATOM     13  N   UNL     1      -4.724   2.199   0.905  0.00  0.00    -0.316 N 
ATOM     14  C   UNL     1      -2.018  -0.261   0.591  0.00  0.00    +0.163 C 
ATOM     15  O   UNL     1      -1.314  -0.747  -0.272  0.00  0.00    -0.292 OA
ATOM     16  C   UNL     1      -1.839  -0.714   2.009  0.00  0.00    +0.088 C 
ATOM     17  H   UNL     1      -4.802   1.383  -2.290  0.00  0.00    +0.147 HD
ATOM     18  H   UNL     1      -5.590   2.070   1.324  0.00  0.00    +0.152 HD
ENDROOT
BRANCH   5  19
ATOM     19  C   UNL     1      -1.756   1.754  -1.625  0.00  0.00    -0.019 A 
ATOM     20  C   UNL     1      -1.515   3.003  -1.083  0.00  0.00    +0.009 A 
ATOM     21  C   UNL     1      -0.369   3.697  -1.422  0.00  0.00    +0.050 A 
ATOM     22  C   UNL     1       0.545   3.139  -2.300  0.00  0.00    +0.166 A 
ATOM     23  C   UNL     1       0.306   1.878  -2.840  0.00  0.00    +0.167 A 
ATOM     24  C   UNL     1      -0.845   1.188  -2.497  0.00  0.00    +0.055 A 
ATOM     25  O   UNL     1       1.343   1.554  -3.667  0.00  0.00    -0.453 OA
ATOM     26  C   UNL     1       2.016   2.796  -3.945  0.00  0.00    +0.466 C 
ATOM     27  O   UNL     1       1.732   3.605  -2.788  0.00  0.00    -0.453 OA
ENDBRANCH   5  19
BRANCH   1  31
ATOM     28  C   UNL     1      -2.687  -1.575   6.865  0.00  0.00    +0.000 A 
ATOM     29  C   UNL     1      -3.581  -2.278   6.080  0.00  0.00    +0.000 A 
ATOM     30  C   UNL     1      -3.739  -1.947   4.747  0.00  0.00    +0.004 A 
ATOM     31  C   UNL     1      -3.002  -0.914   4.199  0.00  0.00    -0.044 A 
ATOM     32  C   UNL     1      -2.103  -0.215   4.983  0.00  0.00    +0.004 A 
ATOM     33  C   UNL     1      -1.949  -0.542   6.317  0.00  0.00    +0.000 A 
ENDBRANCH   1  31
BRANCH  10  34
ATOM     34  C   UNL     1      -4.566   7.062   0.215  0.00  0.00    +0.193 C 
ATOM     35  O   UNL     1      -5.322   7.338   1.127  0.00  0.00    -0.287 OA
BRANCH  34  36
ATOM     36  C   UNL     1      -3.715   8.112  -0.382  0.00  0.00    +0.022 A 
ATOM     37  C   UNL     1      -2.729   7.772  -1.312  0.00  0.00    +0.012 A 
ATOM     38  C   UNL     1      -1.941   8.758  -1.869  0.00  0.00    +0.001 A 
ATOM     39  C   UNL     1      -2.118  10.080  -1.500  0.00  0.00    +0.000 A 
ATOM     40  C   UNL     1      -3.088  10.423  -0.575  0.00  0.00    +0.001 A 
ATOM     41  C   UNL     1      -3.887   9.449  -0.015  0.00  0.00    +0.012 A 
ENDBRANCH  34  36
ENDBRANCH  10  34
TORSDOF 4
