REMARK  Name = ZINC08502900
REMARK  8 active torsions:
REMARK  status: ('A' for Active; 'I' for Inactive)
REMARK    1  A    between atoms: C_1  and  C_2
REMARK    2  A    between atoms: C_2  and  C_3
REMARK    3  A    between atoms: C_3  and  C_27
REMARK    4  A    between atoms: N_6  and  C_10
REMARK    5  A    between atoms: C_10  and  C_11
REMARK    6  A    between atoms: N_13  and  C_14
REMARK    7  A    between atoms: C_14  and  C_16
REMARK    8  A    between atoms: C_14  and  C_17
REMARK                            x       y       z     vdW  Elec       q    Type
REMARK                         _______ _______ _______ _____ _____    ______ ____
ROOT
ATOM      1  C   UNL     1       2.457   1.381   0.038  0.00  0.00    +0.213 C 
ENDROOT
BRANCH   1   5
ATOM      2  C   UNL     1      -1.239   1.740   0.131  0.00  0.00    +0.138 C 
ATOM      3  C   UNL     1       0.019   0.896   0.074  0.00  0.00    +0.251 C 
ATOM      4  O   UNL     1       0.087  -0.314   0.023  0.00  0.00    -0.272 OA
ATOM      5  N   UNL     1       1.045   1.769   0.086  0.00  0.00    -0.215 N 
ATOM      6  C   UNL     1       0.615   3.035   0.147  0.00  0.00    +0.310 C 
ATOM      7  O   UNL     1       1.355   3.999   0.169  0.00  0.00    -0.252 OA
ATOM      8  N   UNL     1      -0.727   3.120   0.181  0.00  0.00    -0.281 N 
ATOM      9  H   UNL     1      -1.255   3.933   0.227  0.00  0.00    +0.152 HD
BRANCH   2  10
ATOM     10  C   UNL     1      -2.077   1.527  -1.103  0.00  0.00    -0.015 A 
ATOM     11  C   UNL     1      -3.044   0.540  -1.119  0.00  0.00    +0.006 A 
ATOM     12  C   UNL     1      -3.816   0.347  -2.250  0.00  0.00    +0.000 A 
ATOM     13  C   UNL     1      -3.615   1.136  -3.367  0.00  0.00    +0.000 A 
ATOM     14  C   UNL     1      -2.644   2.120  -3.352  0.00  0.00    +0.000 A 
ATOM     15  C   UNL     1      -1.875   2.316  -2.220  0.00  0.00    +0.006 A 
ENDBRANCH   2  10
BRANCH   2  17
ATOM     16  C   UNL     1      -1.233   1.816   2.629  0.00  0.00    +0.007 C 
ATOM     17  C   UNL     1      -2.044   1.421   1.393  0.00  0.00    +0.037 C 
ENDBRANCH   2  17
ENDBRANCH   1   5
BRANCH   1  18
ATOM     18  C   UNL     1       2.909   1.304  -1.397  0.00  0.00    +0.231 C 
ATOM     19  O   UNL     1       2.128   1.550  -2.293  0.00  0.00    -0.274 OA
ATOM     20  N   UNL     1       4.180   0.963  -1.686  0.00  0.00    -0.307 N 
ATOM     21  H   UNL     1       4.804   0.766  -0.970  0.00  0.00    +0.149 HD
BRANCH  20  22
ATOM     22  C   UNL     1       4.620   0.889  -3.082  0.00  0.00    +0.101 C 
ATOM     23  C   UNL     1       4.326  -0.507  -3.636  0.00  0.00    +0.033 C 
BRANCH  22  24
ATOM     24  C   UNL     1       6.101   1.158  -3.157  0.00  0.00    -0.020 A 
ATOM     25  C   UNL     1       6.901   0.879  -2.092  0.00  0.00    +0.006 A 
ATOM     26  C   UNL     1       8.274   1.115  -2.146  0.00  0.00    +0.001 A 
ATOM     27  C   UNL     1       8.851   1.641  -3.260  0.00  0.00    +0.008 A 
ATOM     28  C   UNL     1       8.056   1.947  -4.377  0.00  0.00    -0.018 A 
ATOM     29  C   UNL     1       6.661   1.702  -4.325  0.00  0.00    -0.013 A 
ATOM     30  C   UNL     1       5.866   2.009  -5.442  0.00  0.00    +0.009 A 
ATOM     31  C   UNL     1       6.443   2.535  -6.556  0.00  0.00    +0.001 A 
ATOM     32  C   UNL     1       7.815   2.777  -6.607  0.00  0.00    +0.001 A 
ATOM     33  C   UNL     1       8.617   2.493  -5.545  0.00  0.00    +0.008 A 
ENDBRANCH  22  24
ENDBRANCH  20  22
ENDBRANCH   1  18
TORSDOF 6
