REMARK  Name = ZINC13779062
REMARK  6 active torsions:
REMARK  status: ('A' for Active; 'I' for Inactive)
REMARK    1  A    between atoms: C_1  and  C_2
REMARK    2  A    between atoms: C_5  and  S_8
REMARK    3  A    between atoms: S_8  and  N_11
REMARK    4  A    between atoms: N_13  and  S_14
REMARK    5  A    between atoms: S_14  and  C_17
REMARK    6  A    between atoms: C_20  and  C_23
REMARK                            x       y       z     vdW  Elec       q    Type
REMARK                         _______ _______ _______ _____ _____    ______ ____
ROOT
ATOM      1  N   UNL     1       1.532  -5.066  -0.061  0.00  0.00    -0.224 N 
ATOM      2  C   UNL     1       2.260  -4.678   1.038  0.00  0.00    +0.245 C 
ATOM      3  N   UNL     1       1.657  -4.158   2.069  0.00  0.00    -0.091 NA
ATOM      4  N   UNL     1       3.630  -4.838   1.050  0.00  0.00    -0.278 N 
ATOM      5  C   UNL     1       4.349  -4.550   2.192  0.00  0.00    +0.304 A 
ATOM      6  N   UNL     1       3.832  -4.126   3.316  0.00  0.00    -0.193 NA
ATOM      7  C   UNL     1       4.835  -3.949   4.219  0.00  0.00    +0.111 A 
ATOM      8  C   UNL     1       4.872  -3.522   5.547  0.00  0.00    +0.031 A 
ATOM      9  C   UNL     1       6.079  -3.447   6.207  0.00  0.00    +0.002 A 
ATOM     10  C   UNL     1       7.255  -3.792   5.559  0.00  0.00    +0.004 A 
ATOM     11  C   UNL     1       7.233  -4.215   4.246  0.00  0.00    +0.048 A 
ATOM     12  C   UNL     1       6.028  -4.297   3.567  0.00  0.00    +0.157 A 
ATOM     13  O   UNL     1       5.683  -4.670   2.314  0.00  0.00    -0.423 OA
ATOM     14  H   UNL     1       0.578  -4.892  -0.097  0.00  0.00    +0.191 HD
ATOM     15  H   UNL     1       4.088  -5.153   0.255  0.00  0.00    +0.173 HD
ENDROOT
BRANCH   1  16
ATOM     16  S   UNL     1       2.282  -5.832  -1.323  0.00  0.00    +0.080 S 
ATOM     17  O   UNL     1       3.431  -5.059  -1.642  0.00  0.00    -0.148 OA
ATOM     18  O   UNL     1       1.272  -6.125  -2.279  0.00  0.00    -0.148 OA
BRANCH  16  23
ATOM     19  C   UNL     1       4.291 -11.133   0.743  0.00  0.00    +0.044 C 
ATOM     20  C   UNL     1       3.789  -9.809   0.227  0.00  0.00    -0.050 A 
ATOM     21  C   UNL     1       2.477  -9.681  -0.188  0.00  0.00    +0.005 A 
ATOM     22  C   UNL     1       2.016  -8.467  -0.661  0.00  0.00    +0.029 A 
ATOM     23  C   UNL     1       2.869  -7.380  -0.719  0.00  0.00    +0.111 A 
ATOM     24  C   UNL     1       4.181  -7.507  -0.304  0.00  0.00    +0.029 A 
ATOM     25  C   UNL     1       4.640  -8.721   0.173  0.00  0.00    +0.005 A 
ENDBRANCH  16  23
ENDBRANCH   1  16
BRANCH   3  26
ATOM     26  S   UNL     1       0.032  -3.844   2.006  0.00  0.00    +0.102 S 
ATOM     27  O   UNL     1      -0.159  -2.900   0.962  0.00  0.00    -0.146 OA
ATOM     28  O   UNL     1      -0.626  -5.103   2.025  0.00  0.00    -0.146 OA
BRANCH  26  29
ATOM     29  C   UNL     1      -0.400  -3.028   3.507  0.00  0.00    +0.113 A 
ATOM     30  C   UNL     1      -0.688  -3.769   4.638  0.00  0.00    +0.029 A 
ATOM     31  C   UNL     1      -1.026  -3.129   5.816  0.00  0.00    +0.005 A 
ATOM     32  C   UNL     1      -1.076  -1.748   5.862  0.00  0.00    -0.050 A 
ATOM     33  C   UNL     1      -0.787  -1.008   4.731  0.00  0.00    +0.005 A 
ATOM     34  C   UNL     1      -0.445  -1.647   3.555  0.00  0.00    +0.029 A 
ATOM     35  C   UNL     1      -1.446  -1.050   7.146  0.00  0.00    +0.044 C 
ENDBRANCH  26  29
ENDBRANCH   3  26
TORSDOF 4
