REMARK  Name = ZINC14462508
REMARK  7 active torsions:
REMARK  status: ('A' for Active; 'I' for Inactive)
REMARK    1  A    between atoms: C_1  and  C_2
REMARK    2  A    between atoms: C_2  and  C_3
REMARK    3  A    between atoms: C_2  and  C_4
REMARK    4  A    between atoms: C_7  and  C_10
REMARK    5  A    between atoms: C_21  and  S_26
REMARK    6  A    between atoms: S_26  and  N_29
REMARK    7  A    between atoms: N_29  and  C_30
REMARK                            x       y       z     vdW  Elec       q    Type
REMARK                         _______ _______ _______ _____ _____    ______ ____
ROOT
ATOM      1  C   UNL     1      -8.062   1.310  -1.490  0.00  0.00    +0.105 C 
ATOM      2  C   UNL     1      -7.104   0.207  -1.079  0.00  0.00    +0.029 C 
ATOM      3  C   UNL     1      -6.298   0.423   0.209  0.00  0.00    +0.033 C 
ATOM      4  C   UNL     1      -6.092  -1.015   0.688  0.00  0.00    -0.030 C 
ATOM      5  C   UNL     1      -7.063  -1.792   0.224  0.00  0.00    -0.023 C 
ATOM      6  C   UNL     1      -8.007  -0.966  -0.590  0.00  0.00    +0.049 C 
ATOM      7  C   UNL     1      -8.735  -1.496  -1.763  0.00  0.00    -0.018 A 
ATOM      8  C   UNL     1      -9.031  -2.834  -1.907  0.00  0.00    +0.034 A 
ATOM      9  C   UNL     1      -9.727  -3.279  -3.017  0.00  0.00    +0.109 A 
ATOM     10  C   UNL     1     -10.129  -2.379  -3.986  0.00  0.00    +0.030 A 
ATOM     11  C   UNL     1      -9.833  -1.038  -3.854  0.00  0.00    +0.025 A 
ATOM     12  C   UNL     1      -9.128  -0.581  -2.746  0.00  0.00    +0.031 A 
ATOM     13  N   UNL     1      -8.811   0.780  -2.650  0.00  0.00    -0.336 N 
ATOM     14  H   UNL     1      -9.084   1.385  -3.357  0.00  0.00    +0.147 HD
ENDROOT
BRANCH   1  18
ATOM     15  C   UNL     1      -5.885   4.811  -2.610  0.00  0.00    -0.045 A 
ATOM     16  C   UNL     1      -6.488   4.740  -1.368  0.00  0.00    +0.004 A 
ATOM     17  C   UNL     1      -7.193   3.607  -1.006  0.00  0.00    +0.006 A 
ATOM     18  C   UNL     1      -7.295   2.546  -1.885  0.00  0.00    -0.027 A 
ATOM     19  C   UNL     1      -6.692   2.617  -3.127  0.00  0.00    +0.006 A 
ATOM     20  C   UNL     1      -5.991   3.751  -3.491  0.00  0.00    +0.004 A 
BRANCH  15  22
ATOM     21  C   UNL     1      -6.049   7.258  -2.971  0.00  0.00    +0.012 C 
ATOM     22  C   UNL     1      -5.117   6.045  -3.005  0.00  0.00    +0.013 C 
ATOM     23  C   UNL     1      -3.962   6.263  -2.025  0.00  0.00    +0.012 C 
ENDBRANCH  15  22
ENDBRANCH   1  18
BRANCH   9  24
ATOM     24  S   UNL     1     -10.100  -4.992  -3.194  0.00  0.00    +0.072 S 
ATOM     25  O   UNL     1     -10.156  -5.252  -4.590  0.00  0.00    -0.150 OA
ATOM     26  O   UNL     1      -9.221  -5.691  -2.324  0.00  0.00    -0.150 OA
BRANCH  24  27
ATOM     27  N   UNL     1     -11.631  -5.223  -2.608  0.00  0.00    -0.216 N 
ATOM     28  H   UNL     1     -12.335  -5.535  -3.198  0.00  0.00    +0.174 HD
BRANCH  27  29
ATOM     29  C   UNL     1     -11.909  -4.969  -1.263  0.00  0.00    +0.048 A 
ATOM     30  C   UNL     1     -11.485  -5.859  -0.284  0.00  0.00    +0.024 A 
ATOM     31  C   UNL     1     -11.761  -5.604   1.045  0.00  0.00    +0.002 A 
ATOM     32  C   UNL     1     -12.460  -4.466   1.402  0.00  0.00    +0.000 A 
ATOM     33  C   UNL     1     -12.884  -3.578   0.430  0.00  0.00    +0.002 A 
ATOM     34  C   UNL     1     -12.606  -3.823  -0.900  0.00  0.00    +0.024 A 
ENDBRANCH  27  29
ENDBRANCH  24  27
ENDBRANCH   9  24
TORSDOF 5
