REMARK  Name = ZINC19845602
REMARK  3 active torsions:
REMARK  status: ('A' for Active; 'I' for Inactive)
REMARK    1  A    between atoms: C_3  and  S_9
REMARK    2  A    between atoms: C_4  and  N_8
REMARK    3  A    between atoms: S_9  and  C_10
REMARK                            x       y       z     vdW  Elec       q    Type
REMARK                         _______ _______ _______ _____ _____    ______ ____
ROOT
ATOM      1  S   UNL     1      -2.796   1.766   0.044  0.00  0.00    -0.048 S 
ENDROOT
BRANCH   1   2
ATOM      2  C   UNL     1      -1.117   2.279  -0.104  0.00  0.00    +0.196 A 
ATOM      3  N   UNL     1      -0.662   3.509  -0.002  0.00  0.00    -0.122 NA
ATOM      4  N   UNL     1       0.616   3.516  -0.158  0.00  0.00    -0.134 NA
ATOM      5  C   UNL     1       1.045   2.305  -0.361  0.00  0.00    +0.134 A 
ATOM      6  N   UNL     1      -0.043   1.480  -0.345  0.00  0.00    -0.306 N 
ATOM      7  C   UNL     1      -0.039   0.032  -0.556  0.00  0.00    +0.125 C 
ATOM      8  C   UNL     1       1.310  -0.541  -0.113  0.00  0.00    +0.022 C 
ATOM      9  C   UNL     1       2.288  -0.521  -1.286  0.00  0.00    +0.002 C 
ATOM     10  C   UNL     1       2.531   0.908  -1.761  0.00  0.00    +0.008 C 
ATOM     11  C   UNL     1       2.471   1.865  -0.566  0.00  0.00    +0.076 C 
ENDBRANCH   1   2
BRANCH   1  14
ATOM     12  C   UNL     1      -4.650   5.006   1.542  0.00  0.00    +0.021 A 
ATOM     13  C   UNL     1      -4.036   3.773   1.427  0.00  0.00    +0.018 A 
ATOM     14  C   UNL     1      -3.584   3.335   0.191  0.00  0.00    +0.036 A 
ATOM     15  C   UNL     1      -3.760   4.139  -0.936  0.00  0.00    +0.040 A 
ATOM     16  C   UNL     1      -4.381   5.372  -0.814  0.00  0.00    +0.043 A 
ATOM     17  C   UNL     1      -4.824   5.803   0.425  0.00  0.00    +0.043 A 
ATOM     18 CL   UNL     1      -5.602   7.348   0.576  0.00  0.00    -0.083 Cl
BRANCH  15  19
ATOM     19  N   UNL     1      -3.311   3.700  -2.187  0.00  0.00    -0.357 N 
ATOM     20  H   UNL     1      -3.450   4.335  -3.075  0.00  0.00    +0.142 HD
ATOM     21  H   UNL     1      -2.818   2.722  -2.282  0.00  0.00    +0.142 HD
ENDBRANCH  15  19
ENDBRANCH   1  14
TORSDOF 3
