REMARK  Name = ZINC02257595
REMARK  6 active torsions:
REMARK  status: ('A' for Active; 'I' for Inactive)
REMARK    1  A    between atoms: C_1  and  O_2
REMARK    2  A    between atoms: O_2  and  C_3
REMARK    3  A    between atoms: C_6  and  C_11
REMARK    4  A    between atoms: C_8  and  O_9
REMARK    5  A    between atoms: O_9  and  C_10
REMARK    6  A    between atoms: C_29  and  C_31
REMARK                            x       y       z     vdW  Elec       q    Type
REMARK                         _______ _______ _______ _____ _____    ______ ____
ROOT
ATOM      1  C   UNL     1      -4.987  -2.627   0.035  0.00  0.00    +0.234 C 
ATOM      2  C   UNL     1      -5.526  -2.649   1.435  0.00  0.00    +0.027 C 
ATOM      3  C   UNL     1      -6.303  -1.645   1.889  0.00  0.00    +0.083 C 
ATOM      4  C   UNL     1      -6.606  -0.536   0.949  0.00  0.00    +0.044 A 
ATOM      5  C   UNL     1      -7.108   0.678   1.397  0.00  0.00    +0.033 A 
ATOM      6  C   UNL     1      -7.375   1.685   0.486  0.00  0.00    +0.042 A 
ATOM      7  C   UNL     1      -7.142   1.482  -0.864  0.00  0.00    +0.023 A 
ATOM      8  C   UNL     1      -6.642   0.275  -1.317  0.00  0.00    +0.048 A 
ATOM      9  C   UNL     1      -6.372  -0.741  -0.417  0.00  0.00    +0.131 A 
ATOM     10  O   UNL     1      -5.888  -1.935  -0.832  0.00  0.00    -0.479 OA
ATOM     11 CL   UNL     1      -8.003   3.206   1.037  0.00  0.00    -0.084 Cl
ATOM     12  N   UNL     1      -6.793  -1.643   3.153  0.00  0.00    -0.213 NA
ATOM     13  C   UNL     1      -6.576  -2.592   4.033  0.00  0.00    +0.237 C 
ATOM     14  N   UNL     1      -6.983  -2.748   5.312  0.00  0.00    -0.205 NA
ATOM     15  C   UNL     1      -6.519  -3.864   5.804  0.00  0.00    +0.203 C 
ATOM     16  N   UNL     1      -5.775  -4.502   4.859  0.00  0.00    -0.251 N 
ATOM     17  N   UNL     1      -5.804  -3.693   3.720  0.00  0.00    -0.208 N 
ATOM     18  C   UNL     1      -5.218  -3.792   2.378  0.00  0.00    +0.162 C 
ATOM     19  H   UNL     1      -5.315  -5.350   4.957  0.00  0.00    +0.171 HD
ENDROOT
BRANCH  18  20
ATOM     20  C   UNL     1      -5.707  -5.069   1.744  0.00  0.00    +0.014 A 
ATOM     21  C   UNL     1      -6.961  -5.559   2.055  0.00  0.00    +0.008 A 
ATOM     22  C   UNL     1      -7.409  -6.731   1.474  0.00  0.00    +0.001 A 
ATOM     23  C   UNL     1      -6.604  -7.413   0.581  0.00  0.00    +0.003 A 
ATOM     24  C   UNL     1      -5.351  -6.924   0.267  0.00  0.00    +0.039 A 
ATOM     25  C   UNL     1      -4.902  -5.748   0.845  0.00  0.00    +0.129 A 
ATOM     26  F   UNL     1      -3.678  -5.267   0.536  0.00  0.00    -0.205 F 
ENDBRANCH  18  20
BRANCH   1  30
ATOM     27  C   UNL     1      -1.201  -0.638   0.010  0.00  0.00    +0.162 A 
ATOM     28  C   UNL     1      -2.374   0.099   0.019  0.00  0.00    +0.050 A 
ATOM     29  C   UNL     1      -3.596  -0.546   0.027  0.00  0.00    +0.011 A 
ATOM     30  C   UNL     1      -3.652  -1.928   0.026  0.00  0.00    +0.001 A 
ATOM     31  C   UNL     1      -2.485  -2.669   0.017  0.00  0.00    +0.057 A 
ATOM     32  C   UNL     1      -1.257  -2.028   0.003  0.00  0.00    +0.162 A 
BRANCH  27  34
ATOM     33  C   UNL     1      -0.017   1.425   0.010  0.00  0.00    +0.277 C 
ATOM     34  O   UNL     1       0.002  -0.004   0.002  0.00  0.00    -0.491 OA
ENDBRANCH  27  34
BRANCH  32  35
ATOM     35  O   UNL     1      -0.108  -2.756  -0.012  0.00  0.00    -0.491 OA
ATOM     36  C   UNL     1      -0.242  -4.179  -0.018  0.00  0.00    +0.277 C 
ENDBRANCH  32  35
ENDBRANCH   1  30
TORSDOF 4
