REMARK  Name = ZINC02407754
REMARK  9 active torsions:
REMARK  status: ('A' for Active; 'I' for Inactive)
REMARK    1  A    between atoms: C_1  and  C_2
REMARK    2  A    between atoms: C_3  and  C_29
REMARK    3  A    between atoms: C_8  and  S_10
REMARK    4  A    between atoms: S_10  and  C_11
REMARK    5  A    between atoms: C_11  and  C_12
REMARK    6  A    between atoms: N_14  and  C_15
REMARK    7  A    between atoms: C_20  and  O_21
REMARK    8  A    between atoms: O_21  and  C_22
REMARK    9  A    between atoms: C_29  and  C_30
REMARK                            x       y       z     vdW  Elec       q    Type
REMARK                         _______ _______ _______ _____ _____    ______ ____
ROOT
ATOM      1  C   UNL     1      -0.476   9.246  -0.040  0.00  0.00    +0.228 C 
ATOM      2  O   UNL     1      -1.577   9.751  -0.000  0.00  0.00    -0.275 OA
ATOM      3  N   UNL     1      -0.351   7.904  -0.083  0.00  0.00    -0.282 N 
ATOM      4  H   UNL     1       0.527   7.501  -0.171  0.00  0.00    +0.155 HD
ENDROOT
BRANCH   3   5
ATOM      5  C   UNL     1      -1.489   7.092  -0.001  0.00  0.00    +0.078 A 
ATOM      6  C   UNL     1      -2.686   7.513  -0.562  0.00  0.00    +0.047 A 
ATOM      7  C   UNL     1      -3.810   6.712  -0.474  0.00  0.00    +0.043 A 
ATOM      8  C   UNL     1      -3.742   5.487   0.168  0.00  0.00    +0.024 A 
ATOM      9  C   UNL     1      -2.551   5.060   0.724  0.00  0.00    +0.049 A 
ATOM     10  C   UNL     1      -1.421   5.857   0.641  0.00  0.00    +0.150 A 
ATOM     11 CL   UNL     1      -5.309   7.243  -1.170  0.00  0.00    -0.083 Cl
BRANCH  10  12
ATOM     12  O   UNL     1      -0.249   5.437   1.188  0.00  0.00    -0.454 OA
BRANCH  12  13
ATOM     13  C   UNL     1       0.036   5.823   2.459  0.00  0.00    +0.129 A 
ATOM     14  C   UNL     1       1.167   5.335   3.097  0.00  0.00    +0.046 A 
ATOM     15  C   UNL     1       1.454   5.728   4.389  0.00  0.00    +0.004 A 
ATOM     16  C   UNL     1       0.615   6.608   5.048  0.00  0.00    +0.000 A 
ATOM     17  C   UNL     1      -0.516   7.092   4.417  0.00  0.00    +0.004 A 
ATOM     18  C   UNL     1      -0.805   6.706   3.122  0.00  0.00    +0.046 A 
ENDBRANCH  12  13
ENDBRANCH  10  12
ENDBRANCH   3   5
BRANCH   1  19
ATOM     19  C   UNL     1       0.754  10.117  -0.040  0.00  0.00    +0.173 C 
BRANCH  19  20
ATOM     20  S   UNL     1       0.260  11.857   0.023  0.00  0.00    -0.078 S 
BRANCH  20  28
ATOM     21  C   UNL     1       5.362  11.528  -0.099  0.00  0.00    +0.066 C 
ATOM     22  C   UNL     1       4.145  12.416  -0.045  0.00  0.00    +0.050 A 
ATOM     23  C   UNL     1       4.293  13.772  -0.007  0.00  0.00    +0.042 A 
ATOM     24  C   UNL     1       3.143  14.580   0.042  0.00  0.00    +0.256 A 
ATOM     25  O   UNL     1       3.238  15.796   0.076  0.00  0.00    -0.267 OA
ATOM     26  N   UNL     1       1.931  13.985   0.046  0.00  0.00    -0.302 N 
ATOM     27  H   UNL     1       1.124  14.523   0.075  0.00  0.00    +0.171 HD
ATOM     28  C   UNL     1       1.845  12.626   0.012  0.00  0.00    +0.170 A 
ATOM     29  N   UNL     1       2.930  11.876  -0.034  0.00  0.00    -0.228 NA
BRANCH  23  30
ATOM     30  C   UNL     1       5.665  14.394  -0.019  0.00  0.00    +0.069 C 
BRANCH  30  31
ATOM     31  C   UNL     1       6.041  14.757  -1.432  0.00  0.00    -0.030 C 
ATOM     32  C   UNL     1       6.396  15.984  -1.722  0.00  0.00    +0.004 C 
ENDBRANCH  30  31
ENDBRANCH  23  30
ENDBRANCH  20  28
ENDBRANCH  19  20
ENDBRANCH   1  19
TORSDOF 8
