REMARK  Name = ZINC35538881
REMARK  5 active torsions:
REMARK  status: ('A' for Active; 'I' for Inactive)
REMARK    1  A    between atoms: C_4  and  C_7
REMARK    2  A    between atoms: C_10  and  C_31
REMARK    3  A    between atoms: C_15  and  N_17
REMARK    4  A    between atoms: N_17  and  S_18
REMARK    5  A    between atoms: S_18  and  C_21
REMARK                            x       y       z     vdW  Elec       q    Type
REMARK                         _______ _______ _______ _____ _____    ______ ____
ROOT
ATOM      1  C   UNL     1       3.711  -0.707  -0.038  0.00  0.00    +0.147 C 
ATOM      2  C   UNL     1       3.817  -1.609   1.198  0.00  0.00    +0.087 C 
ATOM      3  C   UNL     1       4.877  -2.658   1.012  0.00  0.00    +0.055 C 
ATOM      4  N   UNL     1       5.141  -3.194  -0.149  0.00  0.00    -0.217 NA
ATOM      5  C   UNL     1       4.480  -2.736  -1.246  0.00  0.00    +0.228 A 
ATOM      6  N   UNL     1       3.787  -1.556  -1.226  0.00  0.00    -0.221 N 
ATOM      7  N   UNL     1       3.236  -1.393  -2.493  0.00  0.00    -0.130 NA
ATOM      8  C   UNL     1       3.619  -2.430  -3.210  0.00  0.00    +0.255 A 
ATOM      9  N   UNL     1       4.378  -3.234  -2.454  0.00  0.00    -0.293 N 
ATOM     10  H   UNL     1       4.792  -4.058  -2.756  0.00  0.00    +0.172 HD
ENDROOT
BRANCH   1  14
ATOM     11  C   UNL     1      -0.017   1.378   0.010  0.00  0.00    +0.000 A 
ATOM     12  C   UNL     1       1.171   2.086   0.002  0.00  0.00    +0.000 A 
ATOM     13  C   UNL     1       2.377   1.411  -0.013  0.00  0.00    +0.006 A 
ATOM     14  C   UNL     1       2.396   0.029  -0.020  0.00  0.00    -0.023 A 
ATOM     15  C   UNL     1       1.208  -0.679  -0.012  0.00  0.00    +0.006 A 
ATOM     16  C   UNL     1       0.002  -0.004   0.002  0.00  0.00    +0.000 A 
ENDBRANCH   1  14
BRANCH   3  17
ATOM     17  C   UNL     1       5.650  -3.097   2.184  0.00  0.00    -0.004 A 
ATOM     18  C   UNL     1       5.390  -2.547   3.444  0.00  0.00    +0.010 A 
ATOM     19  C   UNL     1       6.118  -2.964   4.538  0.00  0.00    +0.001 A 
ATOM     20  C   UNL     1       7.105  -3.924   4.392  0.00  0.00    +0.000 A 
ATOM     21  C   UNL     1       7.368  -4.473   3.149  0.00  0.00    +0.001 A 
ATOM     22  C   UNL     1       6.645  -4.071   2.046  0.00  0.00    +0.010 A 
ENDBRANCH   3  17
BRANCH   8  23
ATOM     23  N   UNL     1       3.284  -2.657  -4.545  0.00  0.00    -0.058 NA
BRANCH  23  24
ATOM     24  S   UNL     1       2.330  -1.571  -5.355  0.00  0.00    +0.094 S 
ATOM     25  O   UNL     1       1.050  -1.617  -4.740  0.00  0.00    -0.148 OA
ATOM     26  O   UNL     1       3.081  -0.370  -5.461  0.00  0.00    -0.148 OA
BRANCH  24  27
ATOM     27  C   UNL     1       2.123  -2.182  -6.995  0.00  0.00    +0.111 A 
ATOM     28  C   UNL     1       3.034  -1.817  -7.984  0.00  0.00    +0.029 A 
ATOM     29  C   UNL     1       2.903  -2.271  -9.260  0.00  0.00    +0.010 A 
ATOM     30  C   UNL     1       1.833  -3.121  -9.589  0.00  0.00    -0.018 A 
ATOM     31  C   UNL     1       1.665  -3.610 -10.896  0.00  0.00    +0.008 A 
ATOM     32  C   UNL     1       0.617  -4.431 -11.178  0.00  0.00    +0.001 A 
ATOM     33  C   UNL     1      -0.295  -4.796 -10.189  0.00  0.00    +0.001 A 
ATOM     34  C   UNL     1      -0.164  -4.342  -8.912  0.00  0.00    +0.008 A 
ATOM     35  C   UNL     1       0.906  -3.492  -8.584  0.00  0.00    -0.016 A 
ATOM     36  C   UNL     1       1.077  -3.008  -7.275  0.00  0.00    +0.037 A 
ENDBRANCH  24  27
ENDBRANCH  23  24
ENDBRANCH   8  23
TORSDOF 5
