REMARK  Name = ZINC12602671
REMARK  7 active torsions:
REMARK  status: ('A' for Active; 'I' for Inactive)
REMARK    1  A    between atoms: C_1  and  C_2
REMARK    2  A    between atoms: C_2  and  O_3
REMARK    3  A    between atoms: O_3  and  C_4
REMARK    4  A    between atoms: C_4  and  C_6
REMARK    5  A    between atoms: C_10  and  N_11
REMARK    6  A    between atoms: C_13  and  S_22
REMARK    7  A    between atoms: S_22  and  C_23
REMARK                            x       y       z     vdW  Elec       q    Type
REMARK                         _______ _______ _______ _____ _____    ______ ____
ROOT
ATOM      1  N   UNL     1      -2.406  -0.059   0.099  0.00  0.00    -0.291 N 
ATOM      2  C   UNL     1      -1.208  -0.725  -0.113  0.00  0.00    +0.156 A 
ATOM      3  C   UNL     1       0.003   0.006  -0.177  0.00  0.00    +0.142 A 
ATOM      4  N   UNL     1       1.147  -0.615  -0.382  0.00  0.00    -0.235 NA
ATOM      5  C   UNL     1       1.166  -1.949  -0.520  0.00  0.00    +0.091 A 
ATOM      6  C   UNL     1       2.372  -2.634  -0.735  0.00  0.00    +0.030 A 
ATOM      7  C   UNL     1       2.365  -3.988  -0.879  0.00  0.00    +0.002 A 
ATOM      8  C   UNL     1       1.174  -4.707  -0.816  0.00  0.00    +0.002 A 
ATOM      9  C   UNL     1      -0.015  -4.075  -0.609  0.00  0.00    +0.030 A 
ATOM     10  C   UNL     1      -0.045  -2.680  -0.457  0.00  0.00    +0.091 A 
ATOM     11  N   UNL     1      -1.203  -2.035  -0.253  0.00  0.00    -0.228 NA
ATOM     12  H   UNL     1      -2.413   0.906   0.203  0.00  0.00    +0.154 HD
ENDROOT
BRANCH   1  17
ATOM     13  C   UNL     1      -4.877  -0.286   0.370  0.00  0.00    +0.091 A 
ATOM     14  C   UNL     1      -5.962  -1.254   0.388  0.00  0.00    -0.021 A 
ATOM     15  C   UNL     1      -5.589  -2.539   0.208  0.00  0.00    -0.004 A 
ATOM     16  S   UNL     1      -3.831  -2.478   0.009  0.00  0.00    -0.077 S 
ATOM     17  C   UNL     1      -3.591  -0.769   0.162  0.00  0.00    +0.085 A 
ATOM     18  C   UNL     1      -6.479  -3.743   0.185  0.00  0.00    +0.043 C 
ATOM     19  C   UNL     1      -7.843  -3.348   0.770  0.00  0.00    +0.005 C 
ATOM     20  C   UNL     1      -8.300  -2.041   0.115  0.00  0.00    +0.005 C 
ATOM     21  C   UNL     1      -7.425  -0.883   0.598  0.00  0.00    +0.037 C 
BRANCH  13  22
ATOM     22  C   UNL     1      -5.131   1.143   0.560  0.00  0.00    +0.342 C 
ATOM     23  O   UNL     1      -5.361   1.853  -0.401  0.00  0.00    -0.245 OA
BRANCH  22  24
ATOM     24  O   UNL     1      -5.109   1.673   1.800  0.00  0.00    -0.461 OA
BRANCH  24  26
ATOM     25  C   UNL     1      -5.303   3.512   3.385  0.00  0.00    +0.048 C 
ATOM     26  C   UNL     1      -5.370   3.096   1.914  0.00  0.00    +0.229 C 
ENDBRANCH  24  26
ENDBRANCH  22  24
ENDBRANCH  13  22
ENDBRANCH   1  17
BRANCH   3  27
ATOM     27  S   UNL     1      -0.022   1.758   0.012  0.00  0.00    -0.064 S 
BRANCH  27  28
ATOM     28  C   UNL     1       1.708   2.090   0.004  0.00  0.00    +0.040 A 
ATOM     29  C   UNL     1       2.308   2.628  -1.116  0.00  0.00    +0.017 A 
ATOM     30  C   UNL     1       3.673   2.895  -1.135  0.00  0.00    +0.002 A 
ATOM     31  C   UNL     1       4.454   2.634  -0.049  0.00  0.00    +0.010 A 
ATOM     32  C   UNL     1       3.881   2.087   1.110  0.00  0.00    +0.001 A 
ATOM     33  C   UNL     1       2.492   1.814   1.147  0.00  0.00    +0.085 A 
ATOM     34  N   UNL     1       1.945   1.290   2.246  0.00  0.00    -0.254 NA
ATOM     35  C   UNL     1       2.667   1.026   3.308  0.00  0.00    +0.111 A 
ATOM     36  C   UNL     1       4.037   1.275   3.342  0.00  0.00    +0.020 A 
ATOM     37  C   UNL     1       4.661   1.806   2.249  0.00  0.00    +0.011 A 
ENDBRANCH  27  28
ENDBRANCH   3  27
TORSDOF 6
