REMARK  Name = ZINC06414786
REMARK  6 active torsions:
REMARK  status: ('A' for Active; 'I' for Inactive)
REMARK    1  A    between atoms: C_1  and  S_2
REMARK    2  A    between atoms: S_2  and  C_5
REMARK    3  A    between atoms: N_13  and  C_14
REMARK    4  A    between atoms: C_14  and  C_16
REMARK    5  A    between atoms: N_23  and  C_24
REMARK    6  A    between atoms: C_24  and  C_25
REMARK                            x       y       z     vdW  Elec       q    Type
REMARK                         _______ _______ _______ _____ _____    ______ ____
ROOT
ATOM      1  C   UNL     1       3.628   2.781   3.422  0.00  0.00    +0.089 A 
ATOM      2  C   UNL     1       2.338   2.303   3.584  0.00  0.00    +0.029 A 
ATOM      3  C   UNL     1       1.542   2.020   2.500  0.00  0.00    +0.029 A 
ATOM      4  C   UNL     1       2.014   2.212   1.192  0.00  0.00    +0.059 A 
ATOM      5  C   UNL     1       3.325   2.691   1.059  0.00  0.00    +0.041 A 
ATOM      6  C   UNL     1       4.121   2.975   2.144  0.00  0.00    +0.044 A 
ATOM      7  S   UNL     1       3.546   2.789  -0.700  0.00  0.00    -0.052 S 
ATOM      8  C   UNL     1       1.982   2.217  -1.184  0.00  0.00    +0.168 A 
ATOM      9  N   UNL     1       1.509   2.054  -2.414  0.00  0.00    -0.152 NA
ATOM     10  N   UNL     1       1.357   1.975  -0.000  0.00  0.00    -0.310 N 
ENDROOT
BRANCH   1  12
ATOM     11  C   UNL     1       4.287   4.876   5.214  0.00  0.00    +0.200 C 
ATOM     12  S   UNL     1       4.630   3.138   4.827  0.00  0.00    -0.006 S 
ATOM     13  O   UNL     1       4.123   2.298   5.856  0.00  0.00    -0.170 OA
ATOM     14  O   UNL     1       5.966   2.993   4.366  0.00  0.00    -0.170 OA
ENDBRANCH   1  12
BRANCH   9  15
ATOM     15  C   UNL     1       2.276   2.346  -3.470  0.00  0.00    +0.270 C 
ATOM     16  O   UNL     1       3.409   2.763  -3.302  0.00  0.00    -0.268 OA
BRANCH  15  17
ATOM     17  C   UNL     1       1.749   2.165  -4.842  0.00  0.00    +0.042 A 
ATOM     18  C   UNL     1       2.547   2.470  -5.945  0.00  0.00    +0.013 A 
ATOM     19  C   UNL     1       2.051   2.299  -7.221  0.00  0.00    +0.004 A 
ATOM     20  C   UNL     1       0.765   1.826  -7.409  0.00  0.00    +0.038 A 
ATOM     21  C   UNL     1      -0.033   1.521  -6.319  0.00  0.00    +0.124 A 
ATOM     22  C   UNL     1       0.455   1.683  -5.036  0.00  0.00    +0.051 A 
ATOM     23  F   UNL     1      -1.289   1.059  -6.510  0.00  0.00    -0.205 F 
ENDBRANCH  15  17
ENDBRANCH   9  15
BRANCH  10  24
ATOM     24  C   UNL     1      -0.018   1.468   0.010  0.00  0.00    +0.212 C 
BRANCH  24  25
ATOM     25  C   UNL     1       0.002  -0.004   0.002  0.00  0.00    -0.084 C 
ATOM     26  C   UNL     1       0.018  -1.178  -0.004  0.00  0.00    +0.005 C 
ENDBRANCH  24  25
ENDBRANCH  10  24
TORSDOF 5
