REMARK  Name = ZINC40348333
REMARK  7 active torsions:
REMARK  status: ('A' for Active; 'I' for Inactive)
REMARK    1  A    between atoms: C_1  and  C_2
REMARK    2  A    between atoms: C_5  and  C_7
REMARK    3  A    between atoms: C_7  and  C_9
REMARK    4  A    between atoms: C_7  and  N_10
REMARK    5  A    between atoms: N_10  and  S_11
REMARK    6  A    between atoms: S_11  and  C_14
REMARK    7  A    between atoms: C_15  and  N_22
REMARK                            x       y       z     vdW  Elec       q    Type
REMARK                         _______ _______ _______ _____ _____    ______ ____
ROOT
ATOM      1  S   UNL     1       3.884  -4.909   2.392  0.00  0.00    +0.062 S 
ATOM      2  O   UNL     1       5.056  -4.772   3.183  0.00  0.00    -0.153 OA
ATOM      3  O   UNL     1       2.748  -5.641   2.834  0.00  0.00    -0.153 OA
ENDROOT
BRANCH   1   4
ATOM      4  C   UNL     1       4.387  -5.633   0.867  0.00  0.00    +0.140 A 
ATOM      5  C   UNL     1       3.503  -6.430   0.150  0.00  0.00    +0.053 A 
ATOM      6  C   UNL     1       3.903  -6.998  -1.052  0.00  0.00    +0.040 A 
ATOM      7  C   UNL     1       5.179  -6.771  -1.532  0.00  0.00    +0.021 A 
ATOM      8  C   UNL     1       6.058  -5.978  -0.816  0.00  0.00    +0.032 A 
ATOM      9  C   UNL     1       5.660  -5.405   0.380  0.00  0.00    +0.047 A 
ATOM     10 BR   UNL     1       6.862  -4.315   1.351  0.00  0.00    -0.048 Br
ATOM     11 BR   UNL     1       5.725  -7.545  -3.169  0.00  0.00    -0.050 Br
BRANCH   5  12
ATOM     12  N   UNL     1       2.214  -6.658   0.637  0.00  0.00    -0.356 N 
ATOM     13  H   UNL     1       1.792  -6.005   1.218  0.00  0.00    +0.142 HD
ATOM     14  H   UNL     1       1.741  -7.470   0.396  0.00  0.00    +0.142 HD
ENDBRANCH   5  12
ENDBRANCH   1   4
BRANCH   1  15
ATOM     15  N   UNL     1       3.357  -3.376   2.056  0.00  0.00    -0.180 NA
ATOM     16  H   UNL     1       3.837  -2.610   2.409  0.00  0.00    +0.149 HD
BRANCH  15  17
ATOM     17  C   UNL     1       2.167  -3.175   1.227  0.00  0.00    +0.139 C 
ATOM     18  C   UNL     1       2.589  -2.956  -0.228  0.00  0.00    +0.034 C 
BRANCH  17  23
ATOM     19  C   UNL     1       1.187   1.433   3.030  0.00  0.00    +0.086 C 
ATOM     20  C   UNL     1       0.984   0.036   2.502  0.00  0.00    +0.102 A 
ATOM     21  C   UNL     1      -0.202  -0.570   2.314  0.00  0.00    +0.045 A 
ATOM     22  C   UNL     1       0.072  -1.861   1.808  0.00  0.00    +0.046 A 
ATOM     23  C   UNL     1       1.410  -1.968   1.717  0.00  0.00    +0.123 A 
ATOM     24  O   UNL     1       1.957  -0.814   2.133  0.00  0.00    -0.463 OA
ENDBRANCH  17  23
ENDBRANCH  15  17
ENDBRANCH   1  15
TORSDOF 5
