REMARK  Name = ZINC47139137
REMARK  7 active torsions:
REMARK  status: ('A' for Active; 'I' for Inactive)
REMARK    1  A    between atoms: C_4  and  C_7
REMARK    2  A    between atoms: C_10  and  C_13
REMARK    3  A    between atoms: N_17  and  C_31
REMARK    4  A    between atoms: N_19  and  N_20
REMARK    5  A    between atoms: C_21  and  C_22
REMARK    6  A    between atoms: C_27  and  O_28
REMARK    7  A    between atoms: C_31  and  C_32
REMARK                            x       y       z     vdW  Elec       q    Type
REMARK                         _______ _______ _______ _____ _____    ______ ____
ROOT
ATOM      1  C   UNL     1       7.743  -3.286  -2.372  0.00  0.00    +0.028 C 
ATOM      2  C   UNL     1       7.704  -4.541  -1.856  0.00  0.00    +0.078 C 
ATOM      3  C   UNL     1       8.804  -5.373  -1.329  0.00  0.00    +0.259 C 
ATOM      4  O   UNL     1       9.952  -4.970  -1.308  0.00  0.00    -0.269 OA
ATOM      5  N   UNL     1       8.485  -6.575  -0.881  0.00  0.00    -0.237 N 
ATOM      6  C   UNL     1       7.179  -7.013  -0.914  0.00  0.00    +0.190 C 
ATOM      7  N   UNL     1       6.692  -8.171  -0.512  0.00  0.00    -0.126 NA
ATOM      8  S   UNL     1       6.304  -5.628  -1.624  0.00  0.00    -0.047 S 
ENDROOT
BRANCH   1  12
ATOM      9  C   UNL     1       4.146  -1.298  -3.382  0.00  0.00    -0.018 A 
ATOM     10  C   UNL     1       4.102  -2.506  -2.683  0.00  0.00    +0.009 A 
ATOM     11  C   UNL     1       5.261  -3.149  -2.356  0.00  0.00    +0.008 A 
ATOM     12  C   UNL     1       6.495  -2.596  -2.722  0.00  0.00    -0.024 A 
ATOM     13  C   UNL     1       6.537  -1.384  -3.424  0.00  0.00    +0.008 A 
ATOM     14  C   UNL     1       5.374  -0.748  -3.753  0.00  0.00    +0.009 A 
BRANCH   9  18
ATOM     15  C   UNL     1       0.533   0.699  -4.396  0.00  0.00    +0.000 A 
ATOM     16  C   UNL     1       0.488  -0.495  -3.699  0.00  0.00    +0.001 A 
ATOM     17  C   UNL     1       1.657  -1.148  -3.367  0.00  0.00    +0.008 A 
ATOM     18  C   UNL     1       2.886  -0.602  -3.736  0.00  0.00    -0.018 A 
ATOM     19  C   UNL     1       2.925   0.602  -4.439  0.00  0.00    +0.008 A 
ATOM     20  C   UNL     1       1.749   1.245  -4.765  0.00  0.00    +0.001 A 
ENDBRANCH   9  18
ENDBRANCH   1  12
BRANCH   7  21
ATOM     21  N   UNL     1       7.479  -9.062  -0.012  0.00  0.00    -0.155 NA
ATOM     22  C   UNL     1       6.997 -10.210   0.385  0.00  0.00    +0.146 C 
BRANCH  22  23
ATOM     23  C   UNL     1       5.564 -10.498   0.232  0.00  0.00    +0.038 A 
ATOM     24  C   UNL     1       4.643  -9.450   0.124  0.00  0.00    +0.033 A 
ATOM     25  C   UNL     1       3.300  -9.729  -0.021  0.00  0.00    +0.042 A 
ATOM     26  C   UNL     1       2.858 -11.042  -0.059  0.00  0.00    +0.023 A 
ATOM     27  C   UNL     1       3.759 -12.086   0.048  0.00  0.00    +0.047 A 
ATOM     28  C   UNL     1       5.111 -11.825   0.187  0.00  0.00    +0.126 A 
ATOM     29 CL   UNL     1       2.157  -8.428  -0.154  0.00  0.00    -0.084 Cl
BRANCH  28  30
ATOM     30  O   UNL     1       5.996 -12.851   0.286  0.00  0.00    -0.506 OA
ATOM     31  H   UNL     1       6.100 -13.196   1.184  0.00  0.00    +0.292 HD
ENDBRANCH  28  30
ENDBRANCH  22  23
ENDBRANCH   7  21
BRANCH   5  32
ATOM     32  C   UNL     1       9.530  -7.451  -0.345  0.00  0.00    +0.190 C 
BRANCH  32  33
ATOM     33  C   UNL     1       9.675  -7.212   1.135  0.00  0.00    +0.123 A 
ATOM     34  C   UNL     1       9.009  -7.861   2.106  0.00  0.00    +0.046 A 
ATOM     35  C   UNL     1       9.450  -7.322   3.337  0.00  0.00    +0.041 A 
ATOM     36  C   UNL     1      10.361  -6.377   3.044  0.00  0.00    +0.195 A 
ATOM     37  O   UNL     1      10.498  -6.318   1.709  0.00  0.00    -0.466 OA
ENDBRANCH  32  33
ENDBRANCH   5  32
TORSDOF 7
