REMARK  Name = ZINC12509580
REMARK  6 active torsions:
REMARK  status: ('A' for Active; 'I' for Inactive)
REMARK    1  A    between atoms: C_1  and  N_2
REMARK    2  A    between atoms: C_4  and  C_7
REMARK    3  A    between atoms: C_7  and  N_8
REMARK    4  A    between atoms: C_19  and  N_23
REMARK    5  A    between atoms: N_23  and  C_24
REMARK    6  A    between atoms: C_24  and  C_25
REMARK                            x       y       z     vdW  Elec       q    Type
REMARK                         _______ _______ _______ _____ _____    ______ ____
ROOT
ATOM      1  N   UNL     1       4.047   0.755  -1.414  0.00  0.00    -0.294 N 
ATOM      2  C   UNL     1       4.292  -0.420  -2.048  0.00  0.00    +0.203 A 
ATOM      3  N   UNL     1       4.711  -0.447  -3.285  0.00  0.00    -0.230 NA
ATOM      4  C   UNL     1       4.922   0.679  -3.959  0.00  0.00    +0.116 A 
ATOM      5  C   UNL     1       4.703   1.942  -3.387  0.00  0.00    +0.076 A 
ATOM      6  C   UNL     1       4.237   1.937  -2.031  0.00  0.00    +0.263 A 
ATOM      7  O   UNL     1       4.018   2.983  -1.446  0.00  0.00    -0.267 OA
ATOM      8  C   UNL     1       4.978   3.092  -4.247  0.00  0.00    -0.023 A 
ATOM      9  C   UNL     1       5.412   2.830  -5.498  0.00  0.00    -0.006 A 
ATOM     10  S   UNL     1       5.479   1.062  -5.601  0.00  0.00    -0.073 S 
ATOM     11  C   UNL     1       5.760   3.824  -6.564  0.00  0.00    +0.027 C 
ATOM     12  C   UNL     1       5.908   5.205  -5.910  0.00  0.00    -0.067 C 
ATOM     13  C   UNL     1       4.704   5.446  -4.995  0.00  0.00    -0.011 C 
ATOM     14  C   UNL     1       4.788   4.530  -3.773  0.00  0.00    +0.035 C 
ENDROOT
BRANCH  12  15
ATOM     15  N   UNL     1       5.954   6.241  -6.951  0.00  0.00    +0.381 N 
ATOM     16  H   UNL     1       5.297   5.953  -7.784  0.00  0.00    -0.086 HD
ATOM     17  H   UNL     1       5.615   7.199  -6.530  0.00  0.00    -0.086 HD
BRANCH  15  18
ATOM     18  C   UNL     1       7.320   6.409  -7.465  0.00  0.00    -0.079 C 
BRANCH  18  19
ATOM     19  C   UNL     1       7.329   7.494  -8.544  0.00  0.00    -0.028 C 
ATOM     20  C   UNL     1       6.500   7.027  -9.742  0.00  0.00    +0.002 C 
ATOM     21  C   UNL     1       6.509   8.112 -10.822  0.00  0.00    +0.000 C 
ATOM     22  C   UNL     1       7.948   8.375 -11.268  0.00  0.00    +0.000 C 
ATOM     23  C   UNL     1       8.777   8.842 -10.070  0.00  0.00    +0.000 C 
ATOM     24  C   UNL     1       8.768   7.758  -8.990  0.00  0.00    +0.002 C 
ENDBRANCH  18  19
ENDBRANCH  15  18
ENDBRANCH  12  15
BRANCH   1  25
ATOM     25  C   UNL     1       3.572   0.738  -0.028  0.00  0.00    +0.164 C 
BRANCH  25  29
ATOM     26  C   UNL     1      -1.171  -0.882   0.008  0.00  0.00    +0.172 C 
ATOM     27  N   UNL     1       0.002  -0.004   0.002  0.00  0.00    -0.274 N 
ATOM     28  C   UNL     1       1.292  -0.402  -0.012  0.00  0.00    +0.113 A 
ATOM     29  C   UNL     1       2.066   0.708  -0.014  0.00  0.00    +0.010 A 
ATOM     30  C   UNL     1       1.220   1.822   0.000  0.00  0.00    +0.139 A 
ATOM     31  N   UNL     1      -0.017   1.397   0.010  0.00  0.00    -0.180 NA
ENDBRANCH  25  29
ENDBRANCH   1  25
TORSDOF 5
