REMARK  Name = ZINC06487380
REMARK  5 active torsions:
REMARK  status: ('A' for Active; 'I' for Inactive)
REMARK    1  A    between atoms: C_1  and  C_2
REMARK    2  A    between atoms: C_5  and  S_8
REMARK    3  A    between atoms: S_8  and  N_11
REMARK    4  A    between atoms: N_11  and  N_12
REMARK    5  A    between atoms: C_21  and  C_23
REMARK                            x       y       z     vdW  Elec       q    Type
REMARK                         _______ _______ _______ _____ _____    ______ ____
ROOT
ATOM      1  N   UNL     1      -2.088   1.381   1.681  0.00  0.00    -0.174 NA
ATOM      2  C   UNL     1      -2.806   1.728   2.681  0.00  0.00    +0.049 C 
ATOM      3  C   UNL     1      -2.419   2.684   3.818  0.00  0.00    +0.036 C 
ATOM      4  C   UNL     1      -2.268   1.775   5.069  0.00  0.00    +0.010 C 
ATOM      5  C   UNL     1      -3.710   1.335   5.409  0.00  0.00    +0.005 C 
ATOM      6  C   UNL     1      -4.593   2.020   4.321  0.00  0.00    +0.003 C 
ATOM      7  C   UNL     1      -3.807   3.363   4.114  0.00  0.00    +0.014 C 
ATOM      8  C   UNL     1      -4.224   1.277   3.000  0.00  0.00    +0.068 C 
ENDROOT
BRANCH   8   9
ATOM      9  C   UNL     1      -4.265  -0.215   3.209  0.00  0.00    -0.038 A 
ATOM     10  C   UNL     1      -3.110  -0.898   3.543  0.00  0.00    +0.004 A 
ATOM     11  C   UNL     1      -3.148  -2.266   3.739  0.00  0.00    +0.000 A 
ATOM     12  C   UNL     1      -4.339  -2.952   3.592  0.00  0.00    +0.000 A 
ATOM     13  C   UNL     1      -5.493  -2.270   3.253  0.00  0.00    +0.000 A 
ATOM     14  C   UNL     1      -5.456  -0.901   3.061  0.00  0.00    +0.004 A 
ENDBRANCH   8   9
BRANCH   1  15
ATOM     15  N   UNL     1      -0.792   1.895   1.536  0.00  0.00    -0.137 N 
ATOM     16  H   UNL     1      -0.440   2.514   2.195  0.00  0.00    +0.197 HD
BRANCH  15  17
ATOM     17  S   UNL     1       0.138   1.445   0.242  0.00  0.00    +0.086 S 
ATOM     18  O   UNL     1       0.168   0.024   0.238  0.00  0.00    -0.149 OA
ATOM     19  O   UNL     1       1.319   2.232   0.298  0.00  0.00    -0.149 OA
BRANCH  17  24
ATOM     20  C   UNL     1      -2.817   3.122  -4.744  0.00  0.00    +0.044 C 
ATOM     21  C   UNL     1      -2.079   2.703  -3.499  0.00  0.00    -0.050 A 
ATOM     22  C   UNL     1      -1.187   3.572  -2.899  0.00  0.00    +0.005 A 
ATOM     23  C   UNL     1      -0.510   3.188  -1.756  0.00  0.00    +0.029 A 
ATOM     24  C   UNL     1      -0.725   1.935  -1.214  0.00  0.00    +0.110 A 
ATOM     25  C   UNL     1      -1.613   1.064  -1.818  0.00  0.00    +0.029 A 
ATOM     26  C   UNL     1      -2.293   1.450  -2.958  0.00  0.00    +0.005 A 
ENDBRANCH  17  24
ENDBRANCH  15  17
ENDBRANCH   1  15
TORSDOF 4
