REMARK  Name = ZINC15554283
REMARK  6 active torsions:
REMARK  status: ('A' for Active; 'I' for Inactive)
REMARK    1  A    between atoms: C_6  and  S_11
REMARK    2  A    between atoms: S_11  and  C_12
REMARK    3  A    between atoms: C_12  and  C_13
REMARK    4  A    between atoms: N_15  and  C_16
REMARK    5  A    between atoms: C_16  and  C_17
REMARK    6  A    between atoms: N_19  and  C_20
REMARK                            x       y       z     vdW  Elec       q    Type
REMARK                         _______ _______ _______ _____ _____    ______ ____
ROOT
ATOM      1  C   UNL     1      -0.017   1.502  -0.027  0.00  0.00    +0.224 C 
ATOM      2  O   UNL     1      -1.075   2.094  -0.024  0.00  0.00    -0.275 OA
ATOM      3  N   UNL     1       1.141   2.192  -0.023  0.00  0.00    -0.306 N 
ATOM      4  H   UNL     1       1.988   1.719  -0.029  0.00  0.00    +0.149 HD
ENDROOT
BRANCH   1   5
ATOM      5  C   UNL     1       0.004  -0.005  -0.041  0.00  0.00    +0.170 C 
BRANCH   5   6
ATOM      6  S   UNL     1      -1.697  -0.633  -0.043  0.00  0.00    -0.116 S 
BRANCH   6  12
ATOM      7  C   UNL     1      -2.105  -7.340  -0.109  0.00  0.00    +0.001 A 
ATOM      8  C   UNL     1      -3.388  -6.795  -0.101  0.00  0.00    +0.001 A 
ATOM      9  C   UNL     1      -3.576  -5.448  -0.086  0.00  0.00    +0.008 A 
ATOM     10  C   UNL     1      -2.463  -4.589  -0.080  0.00  0.00    -0.017 A 
ATOM     11  C   UNL     1      -2.621  -3.194  -0.066  0.00  0.00    +0.023 A 
ATOM     12  C   UNL     1      -1.505  -2.385  -0.061  0.00  0.00    +0.009 A 
ATOM     13  C   UNL     1      -0.219  -2.941  -0.075  0.00  0.00    +0.015 A 
ATOM     14  C   UNL     1      -0.041  -4.288  -0.082  0.00  0.00    +0.009 A 
ATOM     15  C   UNL     1      -1.158  -5.143  -0.088  0.00  0.00    -0.018 A 
ATOM     16  C   UNL     1      -1.004  -6.540  -0.103  0.00  0.00    +0.008 A 
ENDBRANCH   6  12
ENDBRANCH   5   6
ENDBRANCH   1   5
BRANCH   3  17
ATOM     17  C   UNL     1       1.120   3.657  -0.009  0.00  0.00    +0.200 C 
BRANCH  17  18
ATOM     18  C   UNL     1       2.534   4.179  -0.007  0.00  0.00    +0.234 C 
ATOM     19  O   UNL     1       3.467   3.404  -0.017  0.00  0.00    -0.274 OA
ATOM     20  N   UNL     1       2.762   5.507   0.005  0.00  0.00    -0.282 N 
ATOM     21  H   UNL     1       2.018   6.127  -0.052  0.00  0.00    +0.155 HD
BRANCH  20  22
ATOM     22  C   UNL     1       4.073   5.992   0.101  0.00  0.00    +0.072 A 
ATOM     23  C   UNL     1       5.115   5.303  -0.504  0.00  0.00    +0.029 A 
ATOM     24  C   UNL     1       6.407   5.785  -0.413  0.00  0.00    +0.043 A 
ATOM     25  C   UNL     1       6.666   6.949   0.290  0.00  0.00    +0.161 A 
ATOM     26  C   UNL     1       5.629   7.638   0.900  0.00  0.00    +0.195 A 
ATOM     27  C   UNL     1       4.332   7.161   0.807  0.00  0.00    +0.182 A 
ATOM     28  F   UNL     1       3.321   7.832   1.401  0.00  0.00    -0.200 F 
ATOM     29  F   UNL     1       5.884   8.774   1.586  0.00  0.00    -0.199 F 
ATOM     30  F   UNL     1       7.931   7.414   0.381  0.00  0.00    -0.202 F 
ENDBRANCH  20  22
ENDBRANCH  17  18
ENDBRANCH   3  17
TORSDOF 6
