REMARK  Name = ZINC04045143
REMARK  14 active torsions:
REMARK  status: ('A' for Active; 'I' for Inactive)
REMARK    1  A    between atoms: C_1  and  C_2
REMARK    2  A    between atoms: C_2  and  C_3
REMARK    3  A    between atoms: C_3  and  C_21
REMARK    4  A    between atoms: C_4  and  C_5
REMARK    5  A    between atoms: C_4  and  C_13
REMARK    6  A    between atoms: C_8  and  O_11
REMARK    7  A    between atoms: O_11  and  C_12
REMARK    8  A    between atoms: C_16  and  O_19
REMARK    9  A    between atoms: O_19  and  C_20
REMARK   10  A    between atoms: N_23  and  C_30
REMARK   11  A    between atoms: C_30  and  C_31
REMARK   12  A    between atoms: C_31  and  C_33
REMARK   13  A    between atoms: C_31  and  O_38
REMARK   14  A    between atoms: C_33  and  N_76
REMARK                            x       y       z     vdW  Elec       q    Type
REMARK                         _______ _______ _______ _____ _____    ______ ____
ROOT
ATOM      1  C   UNL     1      -0.163   0.026   0.147  0.00  0.00    -0.030 C 
ATOM      2  C   UNL     1      -1.057  -0.663  -0.609  0.00  0.00    -0.007 C 
ENDROOT
BRANCH   1   3
ATOM      3  C   UNL     1       0.920  -0.688   0.834  0.00  0.00    +0.004 A 
ATOM      4  C   UNL     1       2.046  -1.203   0.266  0.00  0.00    +0.095 A 
ATOM      5  N   UNL     1       2.816  -1.792   1.225  0.00  0.00    -0.344 N 
ATOM      6  C   UNL     1       2.212  -1.678   2.459  0.00  0.00    +0.050 A 
ATOM      7  C   UNL     1       1.006  -0.981   2.277  0.00  0.00    +0.007 A 
ATOM      8  C   UNL     1       0.177  -0.724   3.366  0.00  0.00    +0.010 A 
ATOM      9  C   UNL     1       0.550  -1.149   4.622  0.00  0.00    +0.001 A 
ATOM     10  C   UNL     1       1.744  -1.833   4.805  0.00  0.00    +0.002 A 
ATOM     11  C   UNL     1       2.571  -2.098   3.736  0.00  0.00    +0.026 A 
BRANCH   5  12
ATOM     12  C   UNL     1       4.101  -2.450   0.979  0.00  0.00    +0.151 C 
BRANCH  12  13
ATOM     13  C   UNL     1       3.878  -3.953   0.797  0.00  0.00    +0.118 C 
BRANCH  13  14
ATOM     14  O   UNL     1       3.394  -4.513   2.019  0.00  0.00    -0.392 OA
ATOM     15  H   UNL     1       3.995  -4.403   2.768  0.00  0.00    +0.210 HD
ENDBRANCH  13  14
BRANCH  13  16
ATOM     16  C   UNL     1       5.200  -4.623   0.417  0.00  0.00    -0.045 C 
BRANCH  16  21
ATOM     17  C   UNL     1       3.879  -6.208  -0.875  0.00  0.00    -0.079 C 
ATOM     18  C   UNL     1       4.126  -7.632  -1.433  0.00  0.00    -0.020 C 
ATOM     19  C   UNL     1       5.668  -7.723  -1.478  0.00  0.00    -0.020 C 
ATOM     20  C   UNL     1       6.163  -6.668  -0.472  0.00  0.00    -0.079 C 
ATOM     21  N   UNL     1       4.963  -6.065   0.110  0.00  0.00    +0.381 N 
ATOM     22  H   UNL     1       4.713  -6.557   0.975  0.00  0.00    -0.082 HD
ENDBRANCH  16  21
ENDBRANCH  13  16
ENDBRANCH  12  13
ENDBRANCH   5  12
ENDBRANCH   1   3
BRANCH   2  23
ATOM     23  C   UNL     1      -2.066   0.066  -1.408  0.00  0.00    -0.017 A 
ATOM     24  C   UNL     1      -3.418  -0.017  -1.072  0.00  0.00    +0.012 A 
ATOM     25  C   UNL     1      -4.355   0.667  -1.817  0.00  0.00    +0.046 A 
ATOM     26  C   UNL     1      -3.956   1.430  -2.906  0.00  0.00    +0.120 A 
ATOM     27  C   UNL     1      -2.612   1.511  -3.247  0.00  0.00    +0.046 A 
ATOM     28  C   UNL     1      -1.669   0.834  -2.504  0.00  0.00    +0.012 A 
BRANCH  26  29
ATOM     29  O   UNL     1      -4.883   2.099  -3.641  0.00  0.00    -0.495 OA
ATOM     30  C   UNL     1      -6.247   1.972  -3.235  0.00  0.00    +0.277 C 
ENDBRANCH  26  29
ENDBRANCH   2  23
BRANCH   2  31
ATOM     31  C   UNL     1      -1.021  -2.141  -0.633  0.00  0.00    -0.017 A 
ATOM     32  C   UNL     1       0.081  -2.806  -1.173  0.00  0.00    +0.012 A 
ATOM     33  C   UNL     1       0.113  -4.184  -1.189  0.00  0.00    +0.046 A 
ATOM     34  C   UNL     1      -0.955  -4.911  -0.679  0.00  0.00    +0.120 A 
ATOM     35  C   UNL     1      -2.055  -4.254  -0.145  0.00  0.00    +0.046 A 
ATOM     36  C   UNL     1      -2.092  -2.876  -0.120  0.00  0.00    +0.012 A 
BRANCH  34  37
ATOM     37  O   UNL     1      -0.922  -6.269  -0.701  0.00  0.00    -0.495 OA
ATOM     38  C   UNL     1       0.240  -6.881  -1.265  0.00  0.00    +0.277 C 
ENDBRANCH  34  37
ENDBRANCH   2  31
BRANCH   1  40
ATOM     39  C   UNL     1      -1.087   1.859   1.538  0.00  0.00    +0.009 C 
ATOM     40  C   UNL     1      -0.284   1.522   0.280  0.00  0.00    +0.033 C 
ENDBRANCH   1  40
TORSDOF 11
