REMARK  Name = ZINC08600063
REMARK  12 active torsions:
REMARK  status: ('A' for Active; 'I' for Inactive)
REMARK    1  A    between atoms: C_1  and  C_2
REMARK    2  A    between atoms: C_2  and  C_3
REMARK    3  A    between atoms: C_3  and  C_4
REMARK    4  A    between atoms: C_4  and  N_5
REMARK    5  A    between atoms: N_5  and  C_6
REMARK    6  A    between atoms: N_5  and  C_8
REMARK    7  A    between atoms: C_6  and  C_7
REMARK    8  A    between atoms: C_8  and  C_9
REMARK    9  A    between atoms: C_12  and  C_14
REMARK   10  A    between atoms: C_14  and  N_15
REMARK   11  A    between atoms: N_15  and  S_16
REMARK   12  A    between atoms: S_16  and  C_19
REMARK                            x       y       z     vdW  Elec       q    Type
REMARK                         _______ _______ _______ _____ _____    ______ ____
ROOT
ATOM      1  N   UNL     1       2.328  -5.448  -8.214  0.00  0.00    -0.183 NA
ATOM      2  H   UNL     1       2.509  -6.176  -7.599  0.00  0.00    +0.148 HD
ENDROOT
BRANCH   1   3
ATOM      3  S   UNL     1       1.744  -5.770  -9.729  0.00  0.00    +0.060 S 
ATOM      4  O   UNL     1       1.643  -7.184  -9.834  0.00  0.00    -0.153 OA
ATOM      5  O   UNL     1       0.631  -4.910  -9.927  0.00  0.00    -0.153 OA
BRANCH   3   6
ATOM      6  C   UNL     1       2.980  -5.268 -10.881  0.00  0.00    +0.127 A 
ATOM      7  C   UNL     1       3.603  -6.212 -11.678  0.00  0.00    +0.077 A 
ATOM      8  C   UNL     1       4.573  -5.817 -12.582  0.00  0.00    +0.144 A 
ATOM      9  C   UNL     1       4.919  -4.471 -12.688  0.00  0.00    +0.077 A 
ATOM     10  C   UNL     1       4.292  -3.531 -11.888  0.00  0.00    +0.049 A 
ATOM     11  C   UNL     1       3.318  -3.931 -10.989  0.00  0.00    +0.069 A 
ATOM     12 CL   UNL     1       2.525  -2.753  -9.990  0.00  0.00    -0.081 Cl
ATOM     13  N   UNL     1       5.905  -4.086 -13.608  0.00  0.00    -0.280 N 
ATOM     14  C   UNL     1       6.268  -4.953 -14.579  0.00  0.00    +0.255 C 
ATOM     15  O   UNL     1       7.140  -4.653 -15.367  0.00  0.00    -0.272 OA
ATOM     16  C   UNL     1       5.585  -6.293 -14.678  0.00  0.00    +0.325 C 
ATOM     17  O   UNL     1       5.195  -6.732 -13.374  0.00  0.00    -0.481 OA
ATOM     18  H   UNL     1       6.320  -3.211 -13.548  0.00  0.00    +0.155 HD
ENDBRANCH   3   6
ENDBRANCH   1   3
BRANCH   1  19
ATOM     19  C   UNL     1       2.572  -4.064  -7.801  0.00  0.00    +0.180 C 
BRANCH  19  23
ATOM     20  C   UNL     1       2.267  -3.827  -4.170  0.00  0.00    +0.089 A 
ATOM     21  C   UNL     1       3.595  -4.017  -4.261  0.00  0.00    +0.043 A 
ATOM     22  C   UNL     1       3.899  -4.133  -5.637  0.00  0.00    +0.046 A 
ATOM     23  C   UNL     1       2.738  -4.007  -6.304  0.00  0.00    +0.121 A 
ATOM     24  O   UNL     1       1.752  -3.828  -5.411  0.00  0.00    -0.465 OA
BRANCH  20  25
ATOM     25  C   UNL     1       1.487  -3.651  -2.893  0.00  0.00    -0.003 C 
BRANCH  25  26
ATOM     26  N   UNL     1       1.531  -2.240  -2.483  0.00  0.00    +0.384 N 
ATOM     27  H   UNL     1       2.492  -1.939  -2.420  0.00  0.00    -0.081 HD
BRANCH  26  28
ATOM     28  C   UNL     1       0.883  -2.090  -1.173  0.00  0.00    -0.082 C 
ATOM     29  C   UNL     1       1.701  -2.829  -0.112  0.00  0.00    -0.017 C 
ENDBRANCH  26  28
BRANCH  26  30
ATOM     30  C   UNL     1       0.825  -1.420  -3.476  0.00  0.00    -0.078 C 
BRANCH  30  31
ATOM     31  C   UNL     1       0.977   0.059  -3.116  0.00  0.00    -0.019 C 
BRANCH  31  33
ATOM     32  C   UNL     1       0.394   2.393  -3.790  0.00  0.00    +0.004 C 
ATOM     33  C   UNL     1       0.242   0.914  -4.150  0.00  0.00    -0.005 C 
ENDBRANCH  31  33
ENDBRANCH  30  31
ENDBRANCH  26  30
ENDBRANCH  25  26
ENDBRANCH  20  25
ENDBRANCH  19  23
ENDBRANCH   1  19
TORSDOF 10
