REMARK  Name = ZINC67654936
REMARK  5 active torsions:
REMARK  status: ('A' for Active; 'I' for Inactive)
REMARK    1  A    between atoms: C_1  and  C_2
REMARK    2  A    between atoms: C_8  and  C_29
REMARK    3  A    between atoms: C_9  and  C_11
REMARK    4  A    between atoms: C_11  and  N_12
REMARK    5  A    between atoms: C_21  and  C_23
REMARK                            x       y       z     vdW  Elec       q    Type
REMARK                         _______ _______ _______ _____ _____    ______ ____
ROOT
ATOM      1  N   UNL     1      -1.290  -6.099   2.474  0.00  0.00    -0.283 NA
ATOM      2  C   UNL     1      -1.980  -6.340   1.200  0.00  0.00    +0.092 C 
ATOM      3  C   UNL     1      -3.493  -6.431   1.443  0.00  0.00    +0.070 C 
ATOM      4  C   UNL     1      -3.720  -7.380   2.591  0.00  0.00    +0.039 A 
ATOM      5  C   UNL     1      -2.743  -7.771   3.441  0.00  0.00    +0.058 A 
ATOM      6  N   UNL     1      -3.281  -8.608   4.329  0.00  0.00    -0.348 N 
ATOM      7  C   UNL     1      -4.554  -8.752   4.065  0.00  0.00    +0.171 A 
ATOM      8  N   UNL     1      -4.864  -7.997   2.985  0.00  0.00    -0.349 N 
ATOM      9  H   UNL     1      -5.737  -7.913   2.571  0.00  0.00    +0.166 HD
ATOM     10  C   UNL     1      -1.316  -7.293   3.337  0.00  0.00    +0.136 C 
ATOM     11  H   UNL     1      -2.804  -9.041   5.054  0.00  0.00    +0.166 HD
ENDROOT
BRANCH  10  12
ATOM     12  C   UNL     1      -0.796  -6.941   4.707  0.00  0.00    -0.022 A 
ATOM     13  C   UNL     1      -1.137  -5.739   5.308  0.00  0.00    +0.025 A 
ATOM     14  C   UNL     1      -0.642  -5.451   6.566  0.00  0.00    +0.111 A 
ATOM     15  N   UNL     1       0.146  -6.303   7.192  0.00  0.00    -0.263 NA
ATOM     16  C   UNL     1       0.490  -7.455   6.651  0.00  0.00    +0.111 A 
ATOM     17  C   UNL     1       0.029  -7.814   5.399  0.00  0.00    +0.025 A 
ENDBRANCH  10  12
BRANCH   1  18
ATOM     18  C   UNL     1       0.088  -5.642   2.249  0.00  0.00    +0.160 C 
BRANCH  18  27
ATOM     19  C   UNL     1      -0.018   1.503   0.010  0.00  0.00    +0.044 C 
ATOM     20  C   UNL     1       0.002  -0.004   0.002  0.00  0.00    -0.050 A 
ATOM     21  C   UNL     1       0.006  -0.687  -1.206  0.00  0.00    +0.007 A 
ATOM     22  C   UNL     1       0.024  -2.065  -1.235  0.00  0.00    +0.047 A 
ATOM     23  C   UNL     1       0.039  -2.781  -0.044  0.00  0.00    +0.136 A 
ATOM     24  C   UNL     1       0.036  -2.084   1.175  0.00  0.00    +0.024 A 
ATOM     25  C   UNL     1       0.023  -0.690   1.185  0.00  0.00    +0.015 A 
ATOM     26  C   UNL     1       0.055  -3.117   2.218  0.00  0.00    -0.000 A 
ATOM     27  C   UNL     1       0.067  -4.294   1.577  0.00  0.00    +0.123 A 
ATOM     28  O   UNL     1       0.058  -4.097   0.247  0.00  0.00    -0.458 OA
ATOM     29  C   UNL     1       0.059  -2.899   3.709  0.00  0.00    +0.048 C 
ENDBRANCH  18  27
ENDBRANCH   1  18
TORSDOF 3
