REMARK  Name = ZINC02585796
REMARK  7 active torsions:
REMARK  status: ('A' for Active; 'I' for Inactive)
REMARK    1  A    between atoms: C_1  and  C_2
REMARK    2  A    between atoms: C_2  and  C_24
REMARK    3  A    between atoms: N_4  and  S_13
REMARK    4  A    between atoms: C_7  and  N_12
REMARK    5  A    between atoms: S_13  and  C_16
REMARK    6  A    between atoms: C_19  and  O_22
REMARK    7  A    between atoms: O_22  and  C_23
REMARK                            x       y       z     vdW  Elec       q    Type
REMARK                         _______ _______ _______ _____ _____    ______ ____
ROOT
ATOM      1  C   UNL     1      -1.149  -4.697  -3.964  0.00  0.00    +0.057 C 
ATOM      2  C   UNL     1       0.126  -4.436  -3.160  0.00  0.00    +0.122 C 
ATOM      3  C   UNL     1      -0.046  -3.166  -2.321  0.00  0.00    +0.179 C 
ATOM      4  N   UNL     1       1.219  -2.924  -1.607  0.00  0.00    -0.196 N 
ATOM      5  C   UNL     1       2.416  -3.121  -2.313  0.00  0.00    +0.095 A 
ATOM      6  C   UNL     1       3.611  -2.646  -1.797  0.00  0.00    +0.051 A 
ATOM      7  C   UNL     1       4.793  -2.846  -2.497  0.00  0.00    +0.027 A 
ATOM      8  C   UNL     1       4.774  -3.521  -3.711  0.00  0.00    +0.026 A 
ATOM      9  C   UNL     1       3.581  -3.992  -4.225  0.00  0.00    +0.049 A 
ATOM     10  C   UNL     1       2.397  -3.794  -3.531  0.00  0.00    +0.144 A 
ATOM     11  O   UNL     1       1.228  -4.256  -4.052  0.00  0.00    -0.483 OA
ATOM     12  C   UNL     1       0.402  -5.624  -2.236  0.00  0.00    +0.057 C 
ENDROOT
BRANCH   7  13
ATOM     13  N   UNL     1       6.003  -2.369  -1.980  0.00  0.00    -0.358 N 
ATOM     14  H   UNL     1       6.016  -1.897  -1.133  0.00  0.00    +0.142 HD
ATOM     15  H   UNL     1       6.828  -2.509  -2.470  0.00  0.00    +0.142 HD
ENDBRANCH   7  13
BRANCH   4  16
ATOM     16  S   UNL     1       1.228  -2.442  -0.022  0.00  0.00    +0.075 S 
ATOM     17  O   UNL     1       2.484  -2.836   0.514  0.00  0.00    -0.150 OA
ATOM     18  O   UNL     1      -0.007  -2.865   0.539  0.00  0.00    -0.150 OA
BRANCH  16  19
ATOM     19  C   UNL     1       1.208  -0.680  -0.013  0.00  0.00    +0.109 A 
ATOM     20  C   UNL     1       0.002  -0.004   0.002  0.00  0.00    +0.032 A 
ATOM     21  C   UNL     1      -0.017   1.377   0.010  0.00  0.00    +0.047 A 
ATOM     22  C   UNL     1       1.176   2.086   0.002  0.00  0.00    +0.120 A 
ATOM     23  C   UNL     1       2.385   1.405  -0.013  0.00  0.00    +0.047 A 
ATOM     24  C   UNL     1       2.398   0.024  -0.021  0.00  0.00    +0.032 A 
BRANCH  22  25
ATOM     25  O   UNL     1       1.160   3.445   0.009  0.00  0.00    -0.495 OA
ATOM     26  C   UNL     1       2.426   4.108   0.001  0.00  0.00    +0.277 C 
ENDBRANCH  22  25
ENDBRANCH  16  19
ENDBRANCH   4  16
TORSDOF 4
