REMARK  Name = ZINC39666613
REMARK  11 active torsions:
REMARK  status: ('A' for Active; 'I' for Inactive)
REMARK    1  A    between atoms: C_1  and  C_2
REMARK    2  A    between atoms: C_2  and  C_3
REMARK    3  A    between atoms: C_3  and  C_5
REMARK    4  A    between atoms: C_3  and  C_6
REMARK    5  A    between atoms: C_6  and  C_7
REMARK    6  A    between atoms: C_11  and  C_20
REMARK    7  A    between atoms: N_22  and  C_23
REMARK    8  A    between atoms: C_23  and  C_24
REMARK    9  A    between atoms: C_24  and  C_26
REMARK   10  A    between atoms: C_24  and  O_27
REMARK   11  A    between atoms: O_27  and  C_28
REMARK                            x       y       z     vdW  Elec       q    Type
REMARK                         _______ _______ _______ _____ _____    ______ ____
ROOT
ATOM      1  C   UNL     1       1.212  -2.484  -2.573  0.00  0.00    +0.216 C 
ATOM      2  O   UNL     1       1.653  -1.675  -3.361  0.00  0.00    -0.276 OA
ATOM      3  N   UNL     1       1.242  -3.798  -2.868  0.00  0.00    -0.300 N 
ATOM      4  C   UNL     1       0.749  -4.926  -2.042  0.00  0.00    +0.121 C 
ATOM      5  C   UNL     1       0.100  -5.896  -3.055  0.00  0.00    +0.100 C 
ATOM      6  C   UNL     1       0.780  -5.576  -4.396  0.00  0.00    -0.004 C 
ATOM      7  C   UNL     1       1.771  -4.443  -4.094  0.00  0.00    +0.115 C 
ATOM      8  C   UNL     1      -0.255  -5.106  -5.414  0.00  0.00    -0.010 C 
ATOM      9  C   UNL     1       0.436  -4.848  -6.756  0.00  0.00    -0.082 C 
ATOM     10  N   UNL     1       1.083  -6.081  -7.220  0.00  0.00    +0.379 N 
ATOM     11  C   UNL     1       2.141  -6.476  -6.282  0.00  0.00    -0.082 C 
ATOM     12  C   UNL     1       1.522  -6.802  -4.920  0.00  0.00    -0.010 C 
ATOM     13  H   UNL     1       0.397  -6.818  -7.280  0.00  0.00    -0.086 HD
ATOM     14  H   UNL     1       1.486  -5.925  -8.132  0.00  0.00    -0.086 HD
ENDROOT
BRANCH   5  15
ATOM     15  C   UNL     1       0.367  -7.325  -2.657  0.00  0.00    +0.218 C 
ATOM     16  O   UNL     1       1.418  -7.622  -2.129  0.00  0.00    -0.275 OA
ATOM     17  N   UNL     1      -0.562  -8.274  -2.887  0.00  0.00    -0.312 N 
ATOM     18  H   UNL     1      -1.403  -8.037  -3.309  0.00  0.00    +0.149 HD
BRANCH  17  19
ATOM     19  C   UNL     1      -0.303  -9.663  -2.501  0.00  0.00    +0.148 C 
BRANCH  19  20
ATOM     20  C   UNL     1      -1.509 -10.529  -2.871  0.00  0.00    +0.187 C 
ATOM     21  C   UNL     1      -1.238 -11.979  -2.467  0.00  0.00    +0.053 C 
BRANCH  20  22
ATOM     22  O   UNL     1      -2.667 -10.051  -2.184  0.00  0.00    -0.486 OA
BRANCH  22  23
ATOM     23  C   UNL     1      -3.874 -10.323  -2.747  0.00  0.00    +0.139 A 
ATOM     24  C   UNL     1      -3.951 -11.131  -3.871  0.00  0.00    +0.047 A 
ATOM     25  C   UNL     1      -5.179 -11.406  -4.441  0.00  0.00    +0.004 A 
ATOM     26  C   UNL     1      -6.332 -10.876  -3.892  0.00  0.00    +0.002 A 
ATOM     27  C   UNL     1      -6.259 -10.069  -2.772  0.00  0.00    +0.023 A 
ATOM     28  C   UNL     1      -5.034  -9.796  -2.194  0.00  0.00    +0.083 A 
ATOM     29 CL   UNL     1      -4.944  -8.789  -0.783  0.00  0.00    -0.080 Cl
ENDBRANCH  22  23
ENDBRANCH  20  22
ENDBRANCH  19  20
ENDBRANCH  17  19
ENDBRANCH   5  15
BRANCH   1  30
ATOM     30  C   UNL     1       0.628  -2.018  -1.263  0.00  0.00    +0.099 C 
BRANCH  30  31
ATOM     31  C   UNL     1       0.716  -0.493  -1.179  0.00  0.00    -0.006 C 
ATOM     32  C   UNL     1       2.185  -0.068  -1.142  0.00  0.00    +0.008 C 
BRANCH  31  34
ATOM     33  C   UNL     1      -0.010   1.518   0.113  0.00  0.00    +0.004 C 
ATOM     34  C   UNL     1       0.013  -0.011   0.091  0.00  0.00    +0.000 C 
ENDBRANCH  31  34
ENDBRANCH  30  31
ENDBRANCH   1  30
TORSDOF 8
