REMARK  Name = ZINC08916924
REMARK  6 active torsions:
REMARK  status: ('A' for Active; 'I' for Inactive)
REMARK    1  A    between atoms: C_1  and  C_2
REMARK    2  A    between atoms: C_10  and  C_11
REMARK    3  A    between atoms: N_13  and  C_14
REMARK    4  A    between atoms: C_14  and  N_16
REMARK    5  A    between atoms: N_16  and  C_17
REMARK    6  A    between atoms: C_20  and  C_23
REMARK                            x       y       z     vdW  Elec       q    Type
REMARK                         _______ _______ _______ _____ _____    ______ ____
ROOT
ATOM      1  N   UNL     1       2.337  11.366   0.043  0.00  0.00    -0.297 N 
ATOM      2  H   UNL     1       1.614  12.008  -0.027  0.00  0.00    +0.154 HD
ENDROOT
BRANCH   1   3
ATOM      3  C   UNL     1       2.057   9.998   0.049  0.00  0.00    +0.033 A 
ATOM      4  C   UNL     1       1.108   9.480  -0.826  0.00  0.00    +0.024 A 
ATOM      5  C   UNL     1       0.829   8.131  -0.823  0.00  0.00    +0.012 A 
ATOM      6  C   UNL     1       1.500   7.283   0.061  0.00  0.00    +0.007 A 
ATOM      7  C   UNL     1       2.449   7.807   0.941  0.00  0.00    +0.012 A 
ATOM      8  C   UNL     1       2.727   9.156   0.930  0.00  0.00    +0.024 A 
BRANCH   6   9
ATOM      9  C   UNL     1       1.203   5.836   0.067  0.00  0.00    +0.109 A 
ATOM     10  N   UNL     1       0.349   5.165  -0.675  0.00  0.00    -0.239 NA
ATOM     11  C   UNL     1       0.179   3.834  -0.560  0.00  0.00    +0.079 A 
ATOM     12  C   UNL     1      -0.699   2.998  -1.291  0.00  0.00    +0.029 A 
ATOM     13  C   UNL     1      -0.744   1.659  -1.055  0.00  0.00    +0.002 A 
ATOM     14  C   UNL     1       0.052   1.062  -0.088  0.00  0.00    +0.001 A 
ATOM     15  C   UNL     1       0.924   1.843   0.648  0.00  0.00    +0.017 A 
ATOM     16  C   UNL     1       0.982   3.195   0.414  0.00  0.00    +0.040 A 
ATOM     17  S   UNL     1       1.913   4.550   1.086  0.00  0.00    -0.067 S 
ENDBRANCH   6   9
ENDBRANCH   1   3
BRANCH   1  18
ATOM     18  C   UNL     1       3.612  11.793   0.136  0.00  0.00    +0.141 C 
ATOM     19  S   UNL     1       4.897  10.662   0.118  0.00  0.00    -0.018 S 
BRANCH  18  22
ATOM     20  C   UNL     1       5.150  13.537   0.336  0.00  0.00    +0.285 C 
ATOM     21  O   UNL     1       6.063  12.734   0.323  0.00  0.00    -0.266 OA
ATOM     22  N   UNL     1       3.875  13.110   0.243  0.00  0.00    -0.261 N 
ATOM     23  H   UNL     1       3.147  13.751   0.254  0.00  0.00    +0.157 HD
BRANCH  20  33
ATOM     24  C   UNL     1       7.991  14.779   0.576  0.00  0.00    +0.048 C 
ATOM     25  C   UNL     1       6.677  15.517   0.558  0.00  0.00    +0.008 A 
ATOM     26  C   UNL     1       6.480  16.963   0.646  0.00  0.00    +0.024 A 
ATOM     27  C   UNL     1       7.339  18.058   0.767  0.00  0.00    +0.012 A 
ATOM     28  C   UNL     1       6.822  19.320   0.832  0.00  0.00    +0.001 A 
ATOM     29  C   UNL     1       5.450  19.522   0.779  0.00  0.00    +0.004 A 
ATOM     30  C   UNL     1       4.585  18.456   0.661  0.00  0.00    +0.047 A 
ATOM     31  C   UNL     1       5.087  17.162   0.593  0.00  0.00    +0.136 A 
ATOM     32  O   UNL     1       4.507  15.951   0.478  0.00  0.00    -0.450 OA
ATOM     33  C   UNL     1       5.436  14.973   0.453  0.00  0.00    +0.194 A 
ENDBRANCH  20  33
ENDBRANCH  18  22
ENDBRANCH   1  18
TORSDOF 5
