REMARK  Name = ZINC39490888
REMARK  14 active torsions:
REMARK  status: ('A' for Active; 'I' for Inactive)
REMARK    1  A    between atoms: C_1  and  C_2
REMARK    2  A    between atoms: C_2  and  C_3
REMARK    3  A    between atoms: C_2  and  S_4
REMARK    4  A    between atoms: S_4  and  C_7
REMARK    5  A    between atoms: C_7  and  C_34
REMARK    6  A    between atoms: N_9  and  S_28
REMARK    7  A    between atoms: N_12  and  C_13
REMARK    8  A    between atoms: C_13  and  C_14
REMARK    9  A    between atoms: C_14  and  C_22
REMARK   10  A    between atoms: N_17  and  O_20
REMARK   11  A    between atoms: O_20  and  C_21
REMARK   12  A    between atoms: S_28  and  C_31
REMARK   13  A    between atoms: C_31  and  C_32
REMARK   14  A    between atoms: C_31  and  C_33
REMARK                            x       y       z     vdW  Elec       q    Type
REMARK                         _______ _______ _______ _____ _____    ______ ____
ROOT
ATOM      1  C   UNL     1      -1.269  -2.941   1.389  0.00  0.00    +0.171 C 
ATOM      2  C   UNL     1      -0.646  -3.449   2.704  0.00  0.00    +0.185 C 
ATOM      3  N   UNL     1      -1.662  -4.364   3.245  0.00  0.00    -0.156 N 
ATOM      4  C   UNL     1      -2.709  -4.402   2.411  0.00  0.00    +0.326 C 
ATOM      5  O   UNL     1      -3.696  -5.082   2.615  0.00  0.00    -0.251 OA
ATOM      6  N   UNL     1      -2.571  -3.623   1.330  0.00  0.00    -0.258 N 
ATOM      7  C   UNL     1      -0.401  -3.335   0.193  0.00  0.00    +0.059 C 
ENDROOT
BRANCH   1   8
ATOM      8  S   UNL     1      -1.495  -1.142   1.446  0.00  0.00    -0.006 S 
ATOM      9  O   UNL     1      -1.929  -0.784   2.751  0.00  0.00    -0.172 OA
ATOM     10  O   UNL     1      -2.279  -0.752   0.326  0.00  0.00    -0.172 OA
BRANCH   8  12
ATOM     11  C   UNL     1       0.184   1.010   1.272  0.00  0.00    +0.031 C 
ATOM     12  C   UNL     1       0.192  -0.519   1.211  0.00  0.00    +0.127 C 
ATOM     13  C   UNL     1       1.097  -1.069   2.315  0.00  0.00    +0.031 C 
ENDBRANCH   8  12
ENDBRANCH   1   8
BRANCH   3  14
ATOM     14  S   UNL     1      -1.533  -5.212   4.662  0.00  0.00    +0.051 S 
ATOM     15  O   UNL     1      -2.366  -6.349   4.481  0.00  0.00    -0.155 OA
ATOM     16  O   UNL     1      -0.135  -5.364   4.867  0.00  0.00    -0.155 OA
BRANCH  14  17
ATOM     17  C   UNL     1      -2.236  -4.117   5.926  0.00  0.00    +0.145 C 
ATOM     18  C   UNL     1      -3.694  -3.810   5.582  0.00  0.00    +0.033 C 
ATOM     19  C   UNL     1      -2.168  -4.806   7.291  0.00  0.00    +0.033 C 
ENDBRANCH  14  17
ENDBRANCH   3  14
BRANCH   6  20
ATOM     20  C   UNL     1      -3.558  -3.475   0.258  0.00  0.00    +0.118 C 
BRANCH  20  21
ATOM     21  C   UNL     1      -3.581  -4.746  -0.594  0.00  0.00    -0.008 C 
ATOM     22  C   UNL     1      -3.882  -5.954   0.297  0.00  0.00    +0.026 C 
ATOM     23  C   UNL     1      -5.269  -5.788   0.923  0.00  0.00    +0.115 C 
ATOM     24  N   UNL     1      -6.276  -5.678  -0.140  0.00  0.00    -0.188 NA
ATOM     25  C   UNL     1      -6.036  -4.498  -0.980  0.00  0.00    +0.115 C 
ATOM     26  C   UNL     1      -4.672  -4.626  -1.662  0.00  0.00    +0.026 C 
BRANCH  21  27
ATOM     27  C   UNL     1      -2.222  -4.933  -1.270  0.00  0.00    -0.003 C 
ATOM     28  C   UNL     1      -2.002  -3.815  -2.291  0.00  0.00    +0.004 C 
ATOM     29  C   UNL     1      -0.642  -4.002  -2.967  0.00  0.00    +0.000 C 
ATOM     30  C   UNL     1      -0.608  -5.357  -3.678  0.00  0.00    +0.000 C 
ATOM     31  C   UNL     1      -0.828  -6.474  -2.657  0.00  0.00    +0.000 C 
ATOM     32  C   UNL     1      -2.188  -6.287  -1.981  0.00  0.00    +0.004 C 
ENDBRANCH  21  27
BRANCH  24  33
ATOM     33  O   UNL     1      -7.628  -5.657   0.419  0.00  0.00    -0.300 OA
ATOM     34  C   UNL     1      -8.461  -6.727  -0.032  0.00  0.00    +0.221 C 
ENDBRANCH  24  33
ENDBRANCH  20  21
ENDBRANCH   6  20
TORSDOF 8
