REMARK  Name = ZINC02264303
REMARK  7 active torsions:
REMARK  status: ('A' for Active; 'I' for Inactive)
REMARK    1  A    between atoms: C_1  and  C_2
REMARK    2  A    between atoms: C_2  and  C_34
REMARK    3  A    between atoms: C_9  and  C_19
REMARK    4  A    between atoms: C_9  and  N_23
REMARK    5  A    between atoms: N_12  and  C_13
REMARK    6  A    between atoms: N_23  and  S_24
REMARK    7  A    between atoms: S_24  and  C_27
REMARK                            x       y       z     vdW  Elec       q    Type
REMARK                         _______ _______ _______ _____ _____    ______ ____
ROOT
ATOM      1  C   UNL     1      -2.867   7.376  -6.199  0.00  0.00    +0.011 C 
ATOM      2  C   UNL     1      -1.420   6.980  -6.498  0.00  0.00    -0.023 C 
ATOM      3  C   UNL     1      -1.139   5.598  -5.897  0.00  0.00    +0.058 C 
ATOM      4  C   UNL     1      -1.252   5.708  -4.390  0.00  0.00    +0.023 C 
ATOM      5  C   UNL     1      -1.020   6.882  -3.744  0.00  0.00    +0.051 C 
ATOM      6  C   UNL     1      -0.653   8.068  -4.397  0.00  0.00    +0.164 C 
ATOM      7  O   UNL     1      -0.483   9.099  -3.776  0.00  0.00    -0.292 OA
ATOM      8  C   UNL     1      -0.475   8.022  -5.899  0.00  0.00    +0.086 C 
ATOM      9  C   UNL     1      -1.234   6.620  -2.279  0.00  0.00    +0.240 C 
ATOM     10  C   UNL     1      -1.605   5.149  -2.240  0.00  0.00    +0.255 C 
ATOM     11  O   UNL     1      -1.868   4.490  -1.256  0.00  0.00    -0.272 OA
ATOM     12  N   UNL     1      -1.583   4.721  -3.518  0.00  0.00    -0.269 N 
ATOM     13  C   UNL     1      -1.214   6.921  -8.013  0.00  0.00    +0.011 C 
ENDROOT
BRANCH  12  14
ATOM     14  C   UNL     1      -1.883   3.345  -3.921  0.00  0.00    +0.081 C 
ATOM     15  C   UNL     1      -3.349   3.032  -3.616  0.00  0.00    +0.023 C 
ATOM     16  C   UNL     1      -3.662   1.595  -4.037  0.00  0.00    +0.002 C 
ATOM     17  C   UNL     1      -2.763   0.629  -3.263  0.00  0.00    +0.000 C 
ATOM     18  C   UNL     1      -1.297   0.942  -3.568  0.00  0.00    +0.002 C 
ATOM     19  C   UNL     1      -0.984   2.379  -3.147  0.00  0.00    +0.023 C 
ENDBRANCH  12  14
BRANCH   9  20
ATOM     20  C   UNL     1      -2.377   7.480  -1.735  0.00  0.00    +0.422 C 
ATOM     21  F   UNL     1      -1.993   8.825  -1.743  0.00  0.00    -0.168 F 
ATOM     22  F   UNL     1      -3.510   7.313  -2.538  0.00  0.00    -0.168 F 
ATOM     23  F   UNL     1      -2.673   7.088  -0.425  0.00  0.00    -0.168 F 
ENDBRANCH   9  20
BRANCH   9  24
ATOM     24  N   UNL     1      -0.002   6.863  -1.524  0.00  0.00    -0.162 NA
ATOM     25  H   UNL     1       0.021   7.553  -0.843  0.00  0.00    +0.150 HD
BRANCH  24  26
ATOM     26  S   UNL     1       1.351   5.960  -1.835  0.00  0.00    +0.060 S 
ATOM     27  O   UNL     1       0.922   4.609  -1.937  0.00  0.00    -0.153 OA
ATOM     28  O   UNL     1       2.340   6.377  -0.904  0.00  0.00    -0.153 OA
BRANCH  26  29
ATOM     29  C   UNL     1       1.933   6.426  -3.431  0.00  0.00    +0.105 A 
ATOM     30  C   UNL     1       2.701   7.566  -3.581  0.00  0.00    +0.030 A 
ATOM     31  C   UNL     1       3.157   7.933  -4.833  0.00  0.00    +0.022 A 
ATOM     32  C   UNL     1       2.846   7.158  -5.936  0.00  0.00    +0.041 A 
ATOM     33  C   UNL     1       2.073   6.021  -5.787  0.00  0.00    +0.022 A 
ATOM     34  C   UNL     1       1.622   5.652  -4.533  0.00  0.00    +0.030 A 
ATOM     35 CL   UNL     1       3.419   7.618  -7.509  0.00  0.00    -0.084 Cl
ENDBRANCH  26  29
ENDBRANCH  24  26
ENDBRANCH   9  24
TORSDOF 5
