REMARK  Name = ZINC47127895
REMARK  8 active torsions:
REMARK  status: ('A' for Active; 'I' for Inactive)
REMARK    1  A    between atoms: C_1  and  C_2
REMARK    2  A    between atoms: C_2  and  N_3
REMARK    3  A    between atoms: N_3  and  C_4
REMARK    4  A    between atoms: C_4  and  C_5
REMARK    5  A    between atoms: N_8  and  C_9
REMARK    6  A    between atoms: C_12  and  C_15
REMARK    7  A    between atoms: C_15  and  C_17
REMARK    8  A    between atoms: C_15  and  N_18
REMARK                            x       y       z     vdW  Elec       q    Type
REMARK                         _______ _______ _______ _____ _____    ______ ____
ROOT
ATOM      1  C   UNL     1      -2.030  -0.861   3.521  0.00  0.00    +0.035 A 
ATOM      2  C   UNL     1      -3.292  -1.439   3.479  0.00  0.00    +0.023 A 
ATOM      3  C   UNL     1      -3.930  -1.786   4.653  0.00  0.00    +0.007 A 
ATOM      4  C   UNL     1      -3.315  -1.557   5.870  0.00  0.00    -0.027 A 
ATOM      5  C   UNL     1      -2.059  -0.981   5.916  0.00  0.00    +0.007 A 
ATOM      6  C   UNL     1      -1.413  -0.637   4.744  0.00  0.00    +0.023 A 
ENDROOT
BRANCH   1  10
ATOM      7  N   UNL     1       0.574  -0.383   1.062  0.00  0.00    -0.286 N 
ATOM      8  C   UNL     1      -0.042  -0.632   2.235  0.00  0.00    +0.306 C 
ATOM      9  O   UNL     1       0.611  -0.969   3.204  0.00  0.00    -0.252 OA
ATOM     10  N   UNL     1      -1.380  -0.508   2.333  0.00  0.00    -0.269 N 
ATOM     11  H   UNL     1      -1.893  -0.176   1.580  0.00  0.00    +0.156 HD
BRANCH   7  13
ATOM     12  C   UNL     1      -0.640  -1.219  -0.889  0.00  0.00    +0.024 C 
ATOM     13  C   UNL     1      -0.211   0.023  -0.106  0.00  0.00    +0.106 C 
ENDBRANCH   7  13
BRANCH   7  14
ATOM     14  C   UNL     1       2.029  -0.517   0.956  0.00  0.00    +0.106 C 
ATOM     15  C   UNL     1       2.691   0.820   1.295  0.00  0.00    +0.024 C 
ENDBRANCH   7  14
ENDBRANCH   1  10
BRANCH   4  16
ATOM     16  C   UNL     1      -4.015  -1.937   7.150  0.00  0.00    +0.102 C 
ATOM     17  C   UNL     1      -3.463  -3.270   7.657  0.00  0.00    +0.033 C 
BRANCH  16  18
ATOM     18  N   UNL     1      -3.787  -0.898   8.158  0.00  0.00    -0.293 N 
ATOM     19  C   UNL     1      -4.666  -0.732   9.165  0.00  0.00    +0.303 C 
ATOM     20  O   UNL     1      -5.601  -1.500   9.289  0.00  0.00    -0.253 OA
ATOM     21  N   UNL     1      -4.511   0.286  10.034  0.00  0.00    -0.284 N 
ATOM     22  C   UNL     1      -3.324   1.138   9.945  0.00  0.00    +0.120 C 
ATOM     23  C   UNL     1      -3.744   2.558   9.547  0.00  0.00    +0.088 C 
ATOM     24  S   UNL     1      -4.943   3.173  10.767  0.00  0.00    -0.158 S 
ATOM     25  C   UNL     1      -6.213   1.872  10.792  0.00  0.00    +0.088 C 
ATOM     26  C   UNL     1      -5.533   0.529  11.053  0.00  0.00    +0.120 C 
ATOM     27  H   UNL     1      -3.002  -0.331   8.100  0.00  0.00    +0.151 HD
ENDBRANCH  16  18
ENDBRANCH   4  16
TORSDOF 5
