REMARK  Name = ZINC39488260
REMARK  11 active torsions:
REMARK  status: ('A' for Active; 'I' for Inactive)
REMARK    1  A    between atoms: C_1  and  C_2
REMARK    2  A    between atoms: C_2  and  O_3
REMARK    3  A    between atoms: O_3  and  N_4
REMARK    4  A    between atoms: C_7  and  C_10
REMARK    5  A    between atoms: C_7  and  C_32
REMARK    6  A    between atoms: C_10  and  N_11
REMARK    7  A    between atoms: N_14  and  C_25
REMARK    8  A    between atoms: C_16  and  C_17
REMARK    9  A    between atoms: C_16  and  C_18
REMARK   10  A    between atoms: C_23  and  O_24
REMARK   11  A    between atoms: C_30  and  O_31
REMARK                            x       y       z     vdW  Elec       q    Type
REMARK                         _______ _______ _______ _____ _____    ______ ____
ROOT
ATOM      1  N   UNL     1      -3.797  -2.346   0.430  0.00  0.00    -0.274 N 
ATOM      2  C   UNL     1      -3.526  -1.715   1.580  0.00  0.00    +0.310 C 
ATOM      3  O   UNL     1      -3.427  -2.293   2.646  0.00  0.00    -0.252 OA
ATOM      4  N   UNL     1      -3.373  -0.391   1.451  0.00  0.00    -0.250 N 
ATOM      5  C   UNL     1      -3.555  -0.019   0.040  0.00  0.00    +0.146 C 
ATOM      6  C   UNL     1      -3.840  -1.362  -0.662  0.00  0.00    +0.081 C 
ATOM      7  C   UNL     1      -2.761  -1.667  -1.702  0.00  0.00    +0.039 C 
ENDROOT
BRANCH   6   8
ATOM      8  C   UNL     1      -5.204  -1.342  -1.303  0.00  0.00    +0.019 A 
ATOM      9  C   UNL     1      -6.200  -2.177  -0.835  0.00  0.00    +0.009 A 
ATOM     10  C   UNL     1      -7.451  -2.160  -1.423  0.00  0.00    +0.001 A 
ATOM     11  C   UNL     1      -7.709  -1.306  -2.479  0.00  0.00    +0.004 A 
ATOM     12  C   UNL     1      -6.717  -0.468  -2.950  0.00  0.00    +0.046 A 
ATOM     13  C   UNL     1      -5.462  -0.480  -2.359  0.00  0.00    +0.122 A 
BRANCH  13  14
ATOM     14  O   UNL     1      -4.486   0.347  -2.816  0.00  0.00    -0.506 OA
ATOM     15  H   UNL     1      -3.944  -0.035  -3.520  0.00  0.00    +0.292 HD
ENDBRANCH  13  14
ENDBRANCH   6   8
BRANCH   4  16
ATOM     16  C   UNL     1      -3.085   0.499   2.494  0.00  0.00    +0.079 A 
ATOM     17  C   UNL     1      -1.768   0.791   2.816  0.00  0.00    +0.027 A 
ATOM     18  C   UNL     1      -1.486   1.669   3.845  0.00  0.00    +0.002 A 
ATOM     19  C   UNL     1      -2.515   2.259   4.557  0.00  0.00    +0.004 A 
ATOM     20  C   UNL     1      -3.830   1.972   4.242  0.00  0.00    +0.047 A 
ATOM     21  C   UNL     1      -4.121   1.097   3.208  0.00  0.00    +0.138 A 
BRANCH  21  22
ATOM     22  O   UNL     1      -5.415   0.819   2.893  0.00  0.00    -0.505 OA
ATOM     23  H   UNL     1      -5.783   0.066   3.375  0.00  0.00    +0.292 HD
ENDBRANCH  21  22
ENDBRANCH   4  16
BRANCH   1  24
ATOM     24  C   UNL     1      -4.011  -3.788   0.282  0.00  0.00    +0.117 C 
BRANCH  24  28
ATOM     25  N   UNL     1      -3.188  -6.113   2.795  0.00  0.00    -0.188 NA
ATOM     26  C   UNL     1      -3.818  -6.463   1.516  0.00  0.00    +0.115 C 
ATOM     27  C   UNL     1      -2.910  -6.031   0.362  0.00  0.00    +0.026 C 
ATOM     28  C   UNL     1      -2.677  -4.520   0.441  0.00  0.00    -0.008 C 
ATOM     29  C   UNL     1      -2.064  -4.176   1.802  0.00  0.00    +0.026 C 
ATOM     30  C   UNL     1      -2.997  -4.662   2.913  0.00  0.00    +0.115 C 
BRANCH  28  31
ATOM     31  C   UNL     1      -1.720  -4.091  -0.673  0.00  0.00    -0.003 C 
ATOM     32  C   UNL     1      -2.239  -4.608  -2.017  0.00  0.00    +0.004 C 
ATOM     33  C   UNL     1      -1.283  -4.179  -3.132  0.00  0.00    +0.000 C 
ATOM     34  C   UNL     1       0.107  -4.761  -2.863  0.00  0.00    +0.000 C 
ATOM     35  C   UNL     1       0.625  -4.245  -1.520  0.00  0.00    +0.000 C 
ATOM     36  C   UNL     1      -0.331  -4.673  -0.405  0.00  0.00    +0.004 C 
ENDBRANCH  28  31
BRANCH  25  37
ATOM     37  O   UNL     1      -3.962  -6.634   3.921  0.00  0.00    -0.297 OA
BRANCH  37  39
ATOM     38  C   UNL     1      -4.172  -8.086   5.841  0.00  0.00    +0.036 C 
ATOM     39  C   UNL     1      -3.272  -7.615   4.697  0.00  0.00    +0.182 C 
ENDBRANCH  37  39
ENDBRANCH  25  37
ENDBRANCH  24  28
ENDBRANCH   1  24
TORSDOF 9
