REMARK  Name = ZINC03239110
REMARK  4 active torsions:
REMARK  status: ('A' for Active; 'I' for Inactive)
REMARK    1  A    between atoms: C_4  and  C_7
REMARK    2  A    between atoms: C_10  and  N_18
REMARK    3  A    between atoms: N_18  and  N_19
REMARK    4  A    between atoms: C_20  and  C_22
REMARK                            x       y       z     vdW  Elec       q    Type
REMARK                         _______ _______ _______ _____ _____    ______ ____
ROOT
ATOM      1  C   UNL     1       3.711  -0.707  -0.038  0.00  0.00    +0.229 C 
ATOM      2  C   UNL     1       4.076  -1.039  -1.461  0.00  0.00    +0.047 C 
ATOM      3  C   UNL     1       4.827  -2.117  -1.723  0.00  0.00    +0.055 C 
ATOM      4  C   UNL     1       5.261  -2.955  -0.581  0.00  0.00    +0.039 A 
ATOM      5  C   UNL     1       6.295  -3.874  -0.707  0.00  0.00    +0.013 A 
ATOM      6  C   UNL     1       6.668  -4.635   0.384  0.00  0.00    +0.001 A 
ATOM      7  C   UNL     1       6.016  -4.484   1.596  0.00  0.00    +0.004 A 
ATOM      8  C   UNL     1       4.985  -3.572   1.730  0.00  0.00    +0.046 A 
ATOM      9  C   UNL     1       4.602  -2.803   0.646  0.00  0.00    +0.131 A 
ATOM     10  O   UNL     1       3.595  -1.898   0.741  0.00  0.00    -0.479 OA
ENDROOT
BRANCH   1  14
ATOM     11  C   UNL     1      -0.017   1.378   0.010  0.00  0.00    +0.000 A 
ATOM     12  C   UNL     1       1.171   2.086   0.002  0.00  0.00    +0.000 A 
ATOM     13  C   UNL     1       2.377   1.411  -0.013  0.00  0.00    +0.007 A 
ATOM     14  C   UNL     1       2.396   0.029  -0.020  0.00  0.00    -0.003 A 
ATOM     15  C   UNL     1       1.208  -0.679  -0.012  0.00  0.00    +0.007 A 
ATOM     16  C   UNL     1       0.002  -0.004   0.002  0.00  0.00    +0.000 A 
ENDBRANCH   1  14
BRANCH   3  17
ATOM     17  N   UNL     1       5.188  -2.441  -3.032  0.00  0.00    -0.264 N 
ATOM     18  H   UNL     1       5.732  -3.225  -3.205  0.00  0.00    +0.170 HD
BRANCH  17  19
ATOM     19  N   UNL     1       4.765  -1.633  -4.095  0.00  0.00    -0.232 N 
ATOM     20  C   UNL     1       5.114  -1.945  -5.359  0.00  0.00    +0.261 C 
ATOM     21  O   UNL     1       5.796  -2.928  -5.576  0.00  0.00    -0.269 OA
ATOM     22  H   UNL     1       4.221  -0.849  -3.922  0.00  0.00    +0.173 HD
BRANCH  20  23
ATOM     23  C   UNL     1       4.668  -1.093  -6.481  0.00  0.00    +0.052 A 
ATOM     24  C   UNL     1       3.889   0.039  -6.235  0.00  0.00    +0.014 A 
ATOM     25  C   UNL     1       3.476   0.830  -7.287  0.00  0.00    +0.001 A 
ATOM     26  C   UNL     1       3.831   0.504  -8.584  0.00  0.00    +0.001 A 
ATOM     27  C   UNL     1       4.602  -0.616  -8.836  0.00  0.00    +0.016 A 
ATOM     28  C   UNL     1       5.027  -1.414  -7.792  0.00  0.00    +0.030 A 
ATOM     29 BR   UNL     1       6.088  -2.941  -8.137  0.00  0.00    -0.050 Br
ENDBRANCH  20  23
ENDBRANCH  17  19
ENDBRANCH   3  17
TORSDOF 4
