REMARK  Name = ZINC42868377
REMARK  4 active torsions:
REMARK  status: ('A' for Active; 'I' for Inactive)
REMARK    1  A    between atoms: C_1  and  C_2
REMARK    2  A    between atoms: C_8  and  C_10
REMARK    3  A    between atoms: C_10  and  N_11
REMARK    4  A    between atoms: C_12  and  C_14
REMARK                            x       y       z     vdW  Elec       q    Type
REMARK                         _______ _______ _______ _____ _____    ______ ____
ROOT
ATOM      1  N   UNL     1       0.799  -0.401   3.684  0.00  0.00    -0.312 N 
ATOM      2  C   UNL     1       0.357  -0.070   4.914  0.00  0.00    +0.255 C 
ATOM      3  O   UNL     1      -0.680   0.545   5.040  0.00  0.00    -0.272 OA
ATOM      4  H   UNL     1       1.629  -0.893   3.583  0.00  0.00    +0.149 HD
ENDROOT
BRANCH   2   5
ATOM      5  C   UNL     1       1.153  -0.465   6.131  0.00  0.00    +0.275 C 
ATOM      6  C   UNL     1       1.174  -1.995   6.258  0.00  0.00    +0.155 C 
ATOM      7  N   UNL     1       1.918  -2.329   7.485  0.00  0.00    -0.337 N 
ATOM      8  C   UNL     1       1.674  -1.552   8.629  0.00  0.00    +0.070 A 
ATOM      9  C   UNL     1       2.115  -1.984   9.869  0.00  0.00    +0.026 A 
ATOM     10  C   UNL     1       1.875  -1.214  10.992  0.00  0.00    +0.002 A 
ATOM     11  C   UNL     1       1.198  -0.014  10.877  0.00  0.00    +0.004 A 
ATOM     12  C   UNL     1       0.755   0.421   9.642  0.00  0.00    +0.047 A 
ATOM     13  C   UNL     1       0.989  -0.346   8.511  0.00  0.00    +0.142 A 
ATOM     14  O   UNL     1       0.545   0.089   7.301  0.00  0.00    -0.476 OA
ATOM     15  H   UNL     1       2.554  -3.062   7.502  0.00  0.00    +0.146 HD
ENDBRANCH   2   5
BRANCH   1  16
ATOM     16  C   UNL     1       0.026  -0.018   2.500  0.00  0.00    +0.108 C 
BRANCH  16  23
ATOM     17  C   UNL     1      -0.019   1.526   0.010  0.00  0.00    +0.008 C 
ATOM     18  C   UNL     1       0.002  -0.004   0.002  0.00  0.00    -0.010 C 
ATOM     19  C   UNL     1       0.718  -0.497  -1.257  0.00  0.00    +0.003 C 
ATOM     20  C   UNL     1       0.739  -2.027  -1.265  0.00  0.00    +0.000 C 
ATOM     21  C   UNL     1       1.479  -2.534  -0.026  0.00  0.00    +0.000 C 
ATOM     22  C   UNL     1       0.763  -2.041   1.233  0.00  0.00    +0.005 C 
ATOM     23  C   UNL     1       0.742  -0.511   1.242  0.00  0.00    +0.009 C 
ENDBRANCH  16  23
ENDBRANCH   1  16
TORSDOF 3
