REMARK  Name = ZINC13810264
REMARK  5 active torsions:
REMARK  status: ('A' for Active; 'I' for Inactive)
REMARK    1  A    between atoms: C_1  and  C_2
REMARK    2  A    between atoms: C_5  and  C_8
REMARK    3  A    between atoms: C_8  and  N_9
REMARK    4  A    between atoms: N_20  and  C_24
REMARK    5  A    between atoms: C_24  and  C_25
REMARK                            x       y       z     vdW  Elec       q    Type
REMARK                         _______ _______ _______ _____ _____    ______ ____
ROOT
ATOM      1  N   UNL     1      -7.498   5.061   3.246  0.00  0.00    -0.262 N 
ATOM      2  C   UNL     1      -7.265   5.537   1.961  0.00  0.00    +0.045 A 
ATOM      3  C   UNL     1      -7.832   6.586   1.246  0.00  0.00    +0.024 A 
ATOM      4  C   UNL     1      -7.413   6.853  -0.042  0.00  0.00    +0.002 A 
ATOM      5  C   UNL     1      -6.428   6.084  -0.639  0.00  0.00    +0.001 A 
ATOM      6  C   UNL     1      -5.853   5.038   0.053  0.00  0.00    +0.010 A 
ATOM      7  C   UNL     1      -6.268   4.760   1.353  0.00  0.00    +0.010 A 
ATOM      8  C   UNL     1      -5.870   3.740   2.346  0.00  0.00    +0.065 C 
ATOM      9  C   UNL     1      -4.918   2.749   2.199  0.00  0.00    +0.089 C 
ATOM     10  C   UNL     1      -4.160   2.334   0.987  0.00  0.00    +0.259 C 
ATOM     11  O   UNL     1      -4.321   2.877  -0.088  0.00  0.00    -0.269 OA
ATOM     12  N   UNL     1      -3.301   1.341   1.146  0.00  0.00    -0.251 N 
ATOM     13  C   UNL     1      -3.130   0.738   2.339  0.00  0.00    +0.121 C 
ATOM     14  S   UNL     1      -2.079  -0.555   2.734  0.00  0.00    -0.027 S 
ATOM     15  S   UNL     1      -4.258   1.613   3.411  0.00  0.00    -0.060 S 
ATOM     16  C   UNL     1      -6.716   4.005   3.527  0.00  0.00    +0.253 C 
ATOM     17  O   UNL     1      -6.704   3.381   4.572  0.00  0.00    -0.270 OA
ENDROOT
BRANCH   1  18
ATOM     18  C   UNL     1      -8.477   5.634   4.173  0.00  0.00    +0.149 C 
BRANCH  18  23
ATOM     19  C   UNL     1     -13.576   3.010   3.453  0.00  0.00    +0.044 C 
ATOM     20  C   UNL     1     -12.246   3.694   3.640  0.00  0.00    -0.050 A 
ATOM     21  C   UNL     1     -11.333   3.193   4.549  0.00  0.00    +0.003 A 
ATOM     22  C   UNL     1     -10.114   3.821   4.722  0.00  0.00    +0.005 A 
ATOM     23  C   UNL     1      -9.807   4.949   3.985  0.00  0.00    -0.030 A 
ATOM     24  C   UNL     1     -10.722   5.453   3.080  0.00  0.00    +0.005 A 
ATOM     25  C   UNL     1     -11.940   4.823   2.904  0.00  0.00    +0.003 A 
ENDBRANCH  18  23
ENDBRANCH   1  18
BRANCH  12  26
ATOM     26  C   UNL     1      -2.520   0.881  -0.005  0.00  0.00    +0.141 C 
BRANCH  26  27
ATOM     27  C   UNL     1      -1.231   1.657  -0.082  0.00  0.00    -0.015 C 
ATOM     28  C   UNL     1      -0.085   1.024  -0.110  0.00  0.00    +0.005 C 
ENDBRANCH  26  27
ENDBRANCH  12  26
TORSDOF 4
