REMARK  Name = ZINC41648884
REMARK  6 active torsions:
REMARK  status: ('A' for Active; 'I' for Inactive)
REMARK    1  A    between atoms: C_1  and  C_2
REMARK    2  A    between atoms: C_11  and  C_12
REMARK    3  A    between atoms: N_22  and  C_25
REMARK    4  A    between atoms: C_25  and  C_26
REMARK    5  A    between atoms: C_29  and  O_32
REMARK    6  A    between atoms: O_32  and  C_33
REMARK                            x       y       z     vdW  Elec       q    Type
REMARK                         _______ _______ _______ _____ _____    ______ ____
ROOT
ATOM      1  C   UNL     1      -0.082   1.509   0.016  0.00  0.00    +0.045 C 
ATOM      2  C   UNL     1      -0.072   0.003   0.006  0.00  0.00    -0.033 A 
ATOM      3  C   UNL     1      -0.095  -0.674  -1.180  0.00  0.00    +0.050 A 
ATOM      4  C   UNL     1      -0.085  -2.068  -1.196  0.00  0.00    +0.131 A 
ATOM      5  C   UNL     1      -0.050  -2.782  -0.011  0.00  0.00    +0.051 A 
ATOM      6  C   UNL     1      -0.030  -2.108   1.206  0.00  0.00    +0.148 A 
ATOM      7  C   UNL     1      -0.034  -0.705   1.208  0.00  0.00    +0.071 A 
ATOM      8  C   UNL     1       0.001  -0.290   2.622  0.00  0.00    +0.232 C 
ATOM      9  O   UNL     1       0.005   0.844   3.067  0.00  0.00    -0.283 OA
ATOM     10  C   UNL     1       0.030  -1.554   3.376  0.00  0.00    +0.176 C 
ATOM     11  C   UNL     1       0.068  -1.681   4.725  0.00  0.00    +0.058 C 
ATOM     12  O   UNL     1       0.001  -2.566   2.477  0.00  0.00    -0.451 OA
ATOM     13  C   UNL     1      -0.030  -4.289  -0.015  0.00  0.00    +0.130 C 
ATOM     14  N   UNL     1      -0.466  -4.784  -1.328  0.00  0.00    -0.262 NA
ATOM     15  C   UNL     1       0.267  -4.090  -2.400  0.00  0.00    +0.319 C 
ATOM     16  O   UNL     1      -0.111  -2.712  -2.393  0.00  0.00    -0.476 OA
ENDROOT
BRANCH  11  17
ATOM     17  C   UNL     1      -0.019  -3.013   5.340  0.00  0.00    -0.020 A 
ATOM     18  C   UNL     1      -0.116  -3.141   6.731  0.00  0.00    +0.009 A 
ATOM     19  C   UNL     1      -0.197  -4.393   7.301  0.00  0.00    +0.022 A 
ATOM     20  C   UNL     1      -0.183  -5.524   6.501  0.00  0.00    +0.059 A 
ATOM     21  C   UNL     1      -0.087  -5.407   5.123  0.00  0.00    +0.060 A 
ATOM     22  C   UNL     1      -0.011  -4.160   4.538  0.00  0.00    +0.029 A 
ATOM     23 CL   UNL     1      -0.070  -6.831   4.131  0.00  0.00    -0.082 Cl
ATOM     24 CL   UNL     1      -0.287  -7.097   7.229  0.00  0.00    -0.082 Cl
ENDBRANCH  11  17
BRANCH  14  25
ATOM     25  C   UNL     1      -0.292  -6.239  -1.427  0.00  0.00    +0.123 C 
BRANCH  25  26
ATOM     26  C   UNL     1      -0.968  -6.742  -2.676  0.00  0.00    -0.033 A 
ATOM     27  C   UNL     1      -2.294  -7.131  -2.634  0.00  0.00    +0.008 A 
ATOM     28  C   UNL     1      -2.917  -7.593  -3.777  0.00  0.00    +0.046 A 
ATOM     29  C   UNL     1      -2.210  -7.667  -4.969  0.00  0.00    +0.120 A 
ATOM     30  C   UNL     1      -0.880  -7.276  -5.009  0.00  0.00    +0.046 A 
ATOM     31  C   UNL     1      -0.263  -6.809  -3.864  0.00  0.00    +0.008 A 
BRANCH  29  32
ATOM     32  O   UNL     1      -2.820  -8.121  -6.095  0.00  0.00    -0.495 OA
ATOM     33  C   UNL     1      -2.031  -8.170  -7.285  0.00  0.00    +0.277 C 
ENDBRANCH  29  32
ENDBRANCH  25  26
ENDBRANCH  14  25
TORSDOF 4
