REMARK  Name = ZINC41637000
REMARK  4 active torsions:
REMARK  status: ('A' for Active; 'I' for Inactive)
REMARK    1  A    between atoms: C_1  and  C_2
REMARK    2  A    between atoms: C_8  and  C_10
REMARK    3  A    between atoms: C_10  and  C_12
REMARK    4  A    between atoms: C_10  and  N_20
REMARK                            x       y       z     vdW  Elec       q    Type
REMARK                         _______ _______ _______ _____ _____    ______ ____
ROOT
ATOM      1  C   UNL     1       0.085  -5.916   0.773  0.00  0.00    +0.010 C 
ENDROOT
BRANCH   1   9
ATOM      2  C   UNL     1      -0.018   1.503   0.010  0.00  0.00    +0.090 C 
ATOM      3  C   UNL     1       0.002  -0.004   0.002  0.00  0.00    +0.150 A 
ATOM      4  N   UNL     1       0.008  -0.769  -1.088  0.00  0.00    -0.205 NA
ATOM      5  C   UNL     1       0.026  -2.025  -0.733  0.00  0.00    +0.199 A 
ATOM      6  N   UNL     1       0.033  -2.116   0.625  0.00  0.00    -0.170 N 
ATOM      7  N   UNL     1       0.022  -0.766   1.063  0.00  0.00    -0.147 NA
ATOM      8  C   UNL     1       0.052  -3.377   1.171  0.00  0.00    +0.282 A 
ATOM      9  C   UNL     1       0.063  -4.460   0.386  0.00  0.00    +0.050 A 
ATOM     10  S   UNL     1       0.047  -3.727  -1.243  0.00  0.00    -0.050 S 
ATOM     11  O   UNL     1       0.060  -3.525   2.523  0.00  0.00    -0.265 OA
ENDBRANCH   1   9
BRANCH   1  12
ATOM     12  C   UNL     1       1.379  -6.538   0.316  0.00  0.00    -0.003 A 
ATOM     13  C   UNL     1       1.576  -6.823  -1.025  0.00  0.00    +0.127 A 
ATOM     14  C   UNL     1       2.765  -7.394  -1.444  0.00  0.00    +0.038 A 
ATOM     15  C   UNL     1       3.756  -7.680  -0.523  0.00  0.00    +0.004 A 
ATOM     16  C   UNL     1       3.560  -7.396   0.815  0.00  0.00    +0.020 A 
ATOM     17  C   UNL     1       2.374  -6.820   1.234  0.00  0.00    +0.046 A 
ATOM     18 CL   UNL     1       2.132  -6.457   2.915  0.00  0.00    -0.083 Cl
ATOM     19  F   UNL     1       0.607  -6.543  -1.924  0.00  0.00    -0.205 F 
ENDBRANCH   1  12
BRANCH   1  20
ATOM     20  N   UNL     1      -1.043  -6.609   0.137  0.00  0.00    +0.388 N 
ATOM     21  C   UNL     1      -1.087  -8.027   0.578  0.00  0.00    -0.078 C 
ATOM     22  C   UNL     1      -2.558  -8.435   0.311  0.00  0.00    -0.020 C 
ATOM     23  C   UNL     1      -3.344  -7.157   0.683  0.00  0.00    -0.020 C 
ATOM     24  C   UNL     1      -2.322  -6.011   0.575  0.00  0.00    -0.078 C 
ATOM     25  H   UNL     1      -0.961  -6.559  -0.868  0.00  0.00    -0.080 HD
ENDBRANCH   1  20
TORSDOF 3
