REMARK  Name = ZINC65527496
REMARK  7 active torsions:
REMARK  status: ('A' for Active; 'I' for Inactive)
REMARK    1  A    between atoms: C_1  and  C_2
REMARK    2  A    between atoms: C_2  and  C_4
REMARK    3  A    between atoms: C_2  and  N_14
REMARK    4  A    between atoms: N_14  and  C_15
REMARK    5  A    between atoms: C_16  and  C_18
REMARK    6  A    between atoms: C_18  and  C_19
REMARK    7  A    between atoms: C_19  and  C_20
REMARK                            x       y       z     vdW  Elec       q    Type
REMARK                         _______ _______ _______ _____ _____    ______ ____
ROOT
ATOM      1  N   UNL     1       0.688  -0.476  -1.203  0.00  0.00    -0.299 N 
ATOM      2  C   UNL     1       0.170  -0.122  -2.527  0.00  0.00    +0.132 C 
ATOM      3  C   UNL     1       1.795  -1.237  -1.094  0.00  0.00    +0.216 C 
ATOM      4  O   UNL     1       2.224  -1.530   0.002  0.00  0.00    -0.276 OA
ENDROOT
BRANCH   1   6
ATOM      5  C   UNL     1      -0.019   1.526   0.010  0.00  0.00    +0.030 C 
ATOM      6  C   UNL     1       0.002  -0.004   0.002  0.00  0.00    +0.099 C 
BRANCH   6   7
ATOM      7  C   UNL     1      -1.433  -0.534   0.013  0.00  0.00    +0.123 C 
ATOM      8  C   UNL     1      -1.431  -2.045   0.065  0.00  0.00    +0.009 C 
ATOM      9  C   UNL     1      -2.068  -2.382   1.209  0.00  0.00    -0.004 A 
ATOM     10  C   UNL     1      -2.389  -3.675   1.825  0.00  0.00    +0.010 A 
ATOM     11  C   UNL     1      -3.052  -3.694   3.003  0.00  0.00    +0.001 A 
ATOM     12  C   UNL     1      -3.441  -2.512   3.649  0.00  0.00    +0.002 A 
ATOM     13  C   UNL     1      -3.182  -1.287   3.146  0.00  0.00    +0.026 A 
ATOM     14  C   UNL     1      -2.490  -1.149   1.911  0.00  0.00    +0.043 A 
ATOM     15  N   UNL     1      -2.127  -0.089   1.227  0.00  0.00    -0.376 N 
ATOM     16  H   UNL     1      -2.290   0.833   1.480  0.00  0.00    +0.160 HD
ENDBRANCH   6   7
ENDBRANCH   1   6
BRANCH   3  17
ATOM     17  C   UNL     1       2.501  -1.723  -2.334  0.00  0.00    +0.102 C 
BRANCH  17  18
ATOM     18  C   UNL     1       3.718  -2.559  -1.934  0.00  0.00    +0.064 C 
BRANCH  18  19
ATOM     19  C   UNL     1       4.423  -3.045  -3.174  0.00  0.00    +0.040 A 
ATOM     20  C   UNL     1       5.348  -2.367  -3.879  0.00  0.00    -0.004 A 
ATOM     21  C   UNL     1       5.749  -3.174  -4.957  0.00  0.00    +0.066 A 
ATOM     22  N   UNL     1       5.090  -4.294  -4.895  0.00  0.00    -0.178 NA
ATOM     23  N   UNL     1       4.246  -4.243  -3.775  0.00  0.00    -0.281 N 
ATOM     24  H   UNL     1       3.641  -4.943  -3.485  0.00  0.00    +0.189 HD
ATOM     25  C   UNL     1       6.775  -2.748  -5.979  0.00  0.00    +0.057 C 
ATOM     26  C   UNL     1       6.948  -1.227  -5.879  0.00  0.00    +0.007 C 
ATOM     27  C   UNL     1       7.195  -0.829  -4.423  0.00  0.00    +0.005 C 
ATOM     28  C   UNL     1       5.901  -0.989  -3.616  0.00  0.00    +0.039 C 
ENDBRANCH  18  19
ENDBRANCH  17  18
ENDBRANCH   3  17
TORSDOF 5
