REMARK  Name = ZINC45442458
REMARK  12 active torsions:
REMARK  status: ('A' for Active; 'I' for Inactive)
REMARK    1  A    between atoms: C_1  and  C_2
REMARK    2  A    between atoms: C_2  and  C_3
REMARK    3  A    between atoms: C_3  and  C_4
REMARK    4  A    between atoms: C_4  and  C_5
REMARK    5  A    between atoms: C_5  and  C_31
REMARK    6  A    between atoms: N_8  and  C_12
REMARK    7  A    between atoms: C_12  and  C_13
REMARK    8  A    between atoms: C_14  and  C_26
REMARK    9  A    between atoms: C_15  and  C_21
REMARK   10  A    between atoms: C_26  and  O_28
REMARK   11  A    between atoms: O_28  and  C_29
REMARK   12  A    between atoms: C_29  and  C_30
REMARK                            x       y       z     vdW  Elec       q    Type
REMARK                         _______ _______ _______ _____ _____    ______ ____
ROOT
ATOM      1  C   UNL     1      -5.843  -0.546   1.662  0.00  0.00    +0.169 C 
ENDROOT
BRANCH   1   2
ATOM      2  C   UNL     1      -5.265   0.842   1.770  0.00  0.00    +0.042 C 
ATOM      3  C   UNL     1      -5.797   1.842   1.035  0.00  0.00    +0.083 C 
ATOM      4  C   UNL     1      -5.185   3.221   1.173  0.00  0.00    +0.179 C 
ATOM      5  N   UNL     1      -4.053   3.359   2.105  0.00  0.00    -0.285 N 
ATOM      6  C   UNL     1      -3.634   2.264   2.771  0.00  0.00    +0.304 C 
ATOM      7  O   UNL     1      -2.700   2.367   3.542  0.00  0.00    -0.252 OA
ATOM      8  N   UNL     1      -4.215   1.069   2.614  0.00  0.00    -0.271 N 
ATOM      9  H   UNL     1      -3.619   4.216   2.237  0.00  0.00    +0.151 HD
ATOM     10  H   UNL     1      -3.869   0.320   3.125  0.00  0.00    +0.156 HD
BRANCH   4  11
ATOM     11  C   UNL     1      -6.270   4.168   1.619  0.00  0.00    +0.130 A 
ATOM     12  C   UNL     1      -6.954   5.010   0.824  0.00  0.00    +0.047 A 
ATOM     13  C   UNL     1      -7.867   5.704   1.651  0.00  0.00    +0.041 A 
ATOM     14  C   UNL     1      -7.686   5.244   2.902  0.00  0.00    +0.195 A 
ATOM     15  O   UNL     1      -6.721   4.310   2.875  0.00  0.00    -0.466 OA
ENDBRANCH   4  11
BRANCH   3  16
ATOM     16  C   UNL     1      -6.887   1.610   0.164  0.00  0.00    +0.339 C 
ATOM     17  O   UNL     1      -6.699   1.513  -1.034  0.00  0.00    -0.245 OA
BRANCH  16  18
ATOM     18  O   UNL     1      -8.136   1.495   0.663  0.00  0.00    -0.462 OA
BRANCH  18  19
ATOM     19  C   UNL     1      -9.189   1.261  -0.274  0.00  0.00    +0.229 C 
ATOM     20  C   UNL     1     -10.521   1.160   0.472  0.00  0.00    +0.048 C 
ENDBRANCH  18  19
ENDBRANCH  16  18
ENDBRANCH   3  16
ENDBRANCH   1   2
BRANCH   1  24
ATOM     21  C   UNL     1      -3.126  -2.940   0.836  0.00  0.00    +0.138 C 
ATOM     22  C   UNL     1      -3.953  -2.151   1.833  0.00  0.00    +0.251 C 
ATOM     23  O   UNL     1      -3.839  -2.150   3.040  0.00  0.00    -0.272 OA
ATOM     24  N   UNL     1      -4.839  -1.451   1.098  0.00  0.00    -0.218 N 
ATOM     25  C   UNL     1      -4.689  -1.685  -0.211  0.00  0.00    +0.310 C 
ATOM     26  O   UNL     1      -5.373  -1.168  -1.072  0.00  0.00    -0.252 OA
ATOM     27  N   UNL     1      -3.696  -2.556  -0.467  0.00  0.00    -0.281 N 
ATOM     28  H   UNL     1      -3.411  -2.870  -1.339  0.00  0.00    +0.152 HD
BRANCH  21  29
ATOM     29  C   UNL     1      -3.282  -4.421   1.068  0.00  0.00    -0.015 A 
ATOM     30  C   UNL     1      -2.390  -5.089   1.886  0.00  0.00    +0.009 A 
ATOM     31  C   UNL     1      -2.532  -6.447   2.099  0.00  0.00    +0.039 A 
ATOM     32  C   UNL     1      -3.568  -7.138   1.493  0.00  0.00    +0.123 A 
ATOM     33  C   UNL     1      -4.460  -6.467   0.674  0.00  0.00    +0.039 A 
ATOM     34  C   UNL     1      -4.319  -5.108   0.466  0.00  0.00    +0.009 A 
ATOM     35  F   UNL     1      -3.707  -8.466   1.700  0.00  0.00    -0.205 F 
ENDBRANCH  21  29
BRANCH  21  36
ATOM     36  C   UNL     1      -1.653  -2.535   0.920  0.00  0.00    +0.040 C 
BRANCH  36  37
ATOM     37  C   UNL     1      -1.528  -1.022   0.734  0.00  0.00    +0.003 C 
BRANCH  37  39
ATOM     38  C   UNL     1       0.070   0.896   0.632  0.00  0.00    +0.004 C 
ATOM     39  C   UNL     1      -0.055  -0.617   0.817  0.00  0.00    -0.003 C 
ENDBRANCH  37  39
ENDBRANCH  36  37
ENDBRANCH  21  36
ENDBRANCH   1  24
TORSDOF 10
