REMARK  Name = ZINC43769603
REMARK  6 active torsions:
REMARK  status: ('A' for Active; 'I' for Inactive)
REMARK    1  A    between atoms: C_3  and  N_36
REMARK    2  A    between atoms: C_6  and  C_7
REMARK    3  A    between atoms: C_18  and  S_23
REMARK    4  A    between atoms: S_23  and  N_26
REMARK    5  A    between atoms: N_26  and  C_27
REMARK    6  A    between atoms: C_30  and  C_33
REMARK                            x       y       z     vdW  Elec       q    Type
REMARK                         _______ _______ _______ _____ _____    ______ ____
ROOT
ATOM      1  C   UNL     1       2.481  -3.517   0.176  0.00  0.00    +0.105 C 
ATOM      2  C   UNL     1       1.669  -3.299  -1.088  0.00  0.00    +0.029 C 
ATOM      3  C   UNL     1       1.804  -1.937  -1.782  0.00  0.00    +0.033 C 
ATOM      4  C   UNL     1       0.431  -1.791  -2.443  0.00  0.00    -0.030 C 
ATOM      5  C   UNL     1      -0.472  -2.498  -1.774  0.00  0.00    -0.023 C 
ATOM      6  C   UNL     1       0.190  -3.170  -0.614  0.00  0.00    +0.049 C 
ATOM      7  C   UNL     1      -0.237  -4.488  -0.096  0.00  0.00    -0.018 A 
ATOM      8  C   UNL     1      -1.521  -4.962  -0.248  0.00  0.00    +0.034 A 
ATOM      9  C   UNL     1      -1.875  -6.196   0.266  0.00  0.00    +0.109 A 
ATOM     10  C   UNL     1      -0.938  -6.959   0.939  0.00  0.00    +0.030 A 
ATOM     11  C   UNL     1       0.352  -6.495   1.092  0.00  0.00    +0.025 A 
ATOM     12  C   UNL     1       0.720  -5.259   0.573  0.00  0.00    +0.031 A 
ATOM     13  N   UNL     1       2.045  -4.824   0.713  0.00  0.00    -0.336 N 
ATOM     14  H   UNL     1       2.688  -5.391   1.168  0.00  0.00    +0.147 HD
ENDROOT
BRANCH   1  20
ATOM     15  C   UNL     1       4.741  -2.444   0.097  0.00  0.00    +0.008 A 
ATOM     16  C   UNL     1       6.090  -2.477  -0.202  0.00  0.00    +0.033 A 
ATOM     17  C   UNL     1       6.650  -3.616  -0.748  0.00  0.00    +0.126 A 
ATOM     18  C   UNL     1       5.861  -4.724  -0.995  0.00  0.00    +0.033 A 
ATOM     19  C   UNL     1       4.512  -4.692  -0.695  0.00  0.00    +0.008 A 
ATOM     20  C   UNL     1       3.952  -3.552  -0.150  0.00  0.00    -0.027 A 
BRANCH  17  21
ATOM     21  N   UNL     1       8.095  -3.651  -1.069  0.00  0.00    +0.056 N 
ATOM     22  O   UNL     1       8.785  -2.682  -0.854  0.00  0.00    -0.126 OA
ATOM     23  O   UNL     1       8.584  -4.648  -1.547  0.00  0.00    -0.126 OA
ENDBRANCH  17  21
ENDBRANCH   1  20
BRANCH   9  24
ATOM     24  S   UNL     1      -3.519  -6.796   0.065  0.00  0.00    +0.072 S 
ATOM     25  O   UNL     1      -3.784  -7.637   1.179  0.00  0.00    -0.150 OA
ATOM     26  O   UNL     1      -4.327  -5.670  -0.250  0.00  0.00    -0.150 OA
BRANCH  24  27
ATOM     27  N   UNL     1      -3.524  -7.771  -1.274  0.00  0.00    -0.216 N 
ATOM     28  H   UNL     1      -3.700  -8.720  -1.182  0.00  0.00    +0.174 HD
BRANCH  27  29
ATOM     29  C   UNL     1      -3.276  -7.229  -2.529  0.00  0.00    +0.048 A 
ATOM     30  C   UNL     1      -4.257  -6.471  -3.164  0.00  0.00    +0.025 A 
ATOM     31  C   UNL     1      -4.017  -5.937  -4.398  0.00  0.00    +0.017 A 
ATOM     32  C   UNL     1      -2.783  -6.151  -5.024  0.00  0.00    +0.063 A 
ATOM     33  C   UNL     1      -1.800  -6.913  -4.382  0.00  0.00    +0.017 A 
ATOM     34  C   UNL     1      -2.045  -7.439  -3.146  0.00  0.00    +0.025 A 
BRANCH  32  35
ATOM     35  C   UNL     1      -2.521  -5.577  -6.353  0.00  0.00    +0.387 C 
ATOM     36  O   UNL     1      -3.382  -4.912  -6.913  0.00  0.00    -0.241 OA
ATOM     37  O   UNL     1      -1.442  -5.765  -6.898  0.00  0.00    -0.241 OA
ENDBRANCH  32  35
ENDBRANCH  27  29
ENDBRANCH  24  27
ENDBRANCH   9  24
TORSDOF 6
