REMARK  Name = ZINC66176901
REMARK  14 active torsions:
REMARK  status: ('A' for Active; 'I' for Inactive)
REMARK    1  A    between atoms: C_1  and  C_2
REMARK    2  A    between atoms: C_2  and  N_3
REMARK    3  A    between atoms: N_3  and  C_4
REMARK    4  A    between atoms: N_3  and  C_6
REMARK    5  A    between atoms: C_4  and  C_5
REMARK    6  A    between atoms: C_6  and  C_8
REMARK    7  A    between atoms: C_6  and  C_12
REMARK    8  A    between atoms: C_8  and  C_9
REMARK    9  A    between atoms: C_9  and  C_10
REMARK   10  A    between atoms: C_9  and  C_11
REMARK   11  A    between atoms: C_12  and  N_13
REMARK   12  A    between atoms: N_16  and  C_17
REMARK   13  A    between atoms: N_16  and  C_18
REMARK   14  A    between atoms: N_21  and  C_24
REMARK                            x       y       z     vdW  Elec       q    Type
REMARK                         _______ _______ _______ _____ _____    ______ ____
ROOT
ATOM      1  N   UNL     1      -0.403   1.882  -2.088  0.00  0.00    -0.301 N 
ATOM      2  C   UNL     1      -0.330   3.136  -2.576  0.00  0.00    +0.302 C 
ATOM      3  O   UNL     1       0.076   3.326  -3.706  0.00  0.00    -0.253 OA
ATOM      4  N   UNL     1      -0.708   4.179  -1.812  0.00  0.00    -0.286 N 
ATOM      5  C   UNL     1      -1.096   3.962  -0.416  0.00  0.00    +0.134 C 
ATOM      6  H   UNL     1      -0.795   1.723  -1.215  0.00  0.00    +0.150 HD
ENDROOT
BRANCH   4   7
ATOM      7  C   UNL     1      -0.731   5.531  -2.376  0.00  0.00    +0.074 C 
ATOM      8  C   UNL     1       0.213   6.436  -1.578  0.00  0.00    +0.004 C 
ATOM      9  C   UNL     1       0.124   7.863  -2.123  0.00  0.00    -0.077 C 
ATOM     10  N   UNL     1      -1.253   8.355  -1.994  0.00  0.00    +0.382 N 
ATOM     11  C   UNL     1      -2.153   7.536  -2.814  0.00  0.00    -0.077 C 
ATOM     12  C   UNL     1      -2.152   6.096  -2.296  0.00  0.00    +0.004 C 
ATOM     13  H   UNL     1      -1.538   8.303  -1.028  0.00  0.00    -0.081 HD
BRANCH  10  14
ATOM     14  C   UNL     1      -1.316   9.751  -2.446  0.00  0.00    -0.064 C 
ATOM     15  C   UNL     1      -0.393  10.613  -1.579  0.00  0.00    +0.013 C 
ATOM     16  C   UNL     1      -0.525  12.077  -2.005  0.00  0.00    +0.158 C 
ATOM     17  O   UNL     1      -1.889  12.485  -1.887  0.00  0.00    -0.380 OA
ATOM     18  C   UNL     1      -2.793  11.746  -2.711  0.00  0.00    +0.158 C 
ATOM     19  C   UNL     1      -2.752  10.268  -2.313  0.00  0.00    +0.013 C 
ENDBRANCH  10  14
ENDBRANCH   4   7
BRANCH   1  20
ATOM     20  C   UNL     1       0.109   0.758  -2.877  0.00  0.00    +0.090 C 
BRANCH  20  21
ATOM     21  C   UNL     1      -0.005  -0.531  -2.061  0.00  0.00    -0.051 C 
BRANCH  21  22
ATOM     22  N   UNL     1       0.938  -0.483  -0.935  0.00  0.00    +0.382 N 
ATOM     23  H   UNL     1       1.262  -1.416  -0.728  0.00  0.00    -0.081 HD
BRANCH  22  25
ATOM     24  C   UNL     1       2.888  -0.306  -2.406  0.00  0.00    -0.017 C 
ATOM     25  C   UNL     1       2.083   0.365  -1.291  0.00  0.00    -0.082 C 
ENDBRANCH  22  25
BRANCH  22  26
ATOM     26  C   UNL     1       0.263   0.074   0.245  0.00  0.00    -0.082 C 
ATOM     27  C   UNL     1      -0.893  -0.841   0.652  0.00  0.00    -0.017 C 
ENDBRANCH  22  26
ENDBRANCH  21  22
BRANCH  21  28
ATOM     28  C   UNL     1       0.326  -1.730  -2.952  0.00  0.00    -0.011 C 
BRANCH  28  29
ATOM     29  C   UNL     1       0.132  -3.024  -2.159  0.00  0.00    -0.019 C 
ATOM     30  C   UNL     1      -1.349  -3.194  -1.815  0.00  0.00    +0.007 C 
ATOM     31  C   UNL     1       0.600  -4.213  -3.001  0.00  0.00    +0.007 C 
ENDBRANCH  28  29
ENDBRANCH  21  28
ENDBRANCH  20  21
ENDBRANCH   1  20
TORSDOF 9
