REMARK  Name = ZINC16033014
REMARK  7 active torsions:
REMARK  status: ('A' for Active; 'I' for Inactive)
REMARK    1  A    between atoms: C_1  and  C_2
REMARK    2  A    between atoms: C_2  and  C_3
REMARK    3  A    between atoms: C_17  and  C_20
REMARK    4  A    between atoms: C_20  and  C_21
REMARK    5  A    between atoms: N_26  and  C_29
REMARK    6  A    between atoms: C_29  and  C_30
REMARK    7  A    between atoms: C_30  and  C_31
REMARK                            x       y       z     vdW  Elec       q    Type
REMARK                         _______ _______ _______ _____ _____    ______ ____
ROOT
ATOM      1  C   UNL     1       0.731  -0.503   1.223  0.00  0.00    -0.026 A 
ATOM      2  C   UNL     1       2.075  -0.807   1.145  0.00  0.00    +0.005 A 
ATOM      3  C   UNL     1       2.752  -1.265   2.260  0.00  0.00    +0.001 A 
ATOM      4  C   UNL     1       2.079  -1.420   3.460  0.00  0.00    +0.008 A 
ATOM      5  C   UNL     1       0.739  -1.119   3.542  0.00  0.00    +0.004 A 
ATOM      6  C   UNL     1       0.048  -0.651   2.427  0.00  0.00    +0.042 A 
ATOM      7  N   UNL     1      -1.288  -0.409   2.755  0.00  0.00    -0.283 N 
ATOM      8  C   UNL     1      -1.553  -0.685   4.046  0.00  0.00    +0.243 C 
ATOM      9  O   UNL     1      -2.623  -0.572   4.606  0.00  0.00    -0.273 OA
ATOM     10  C   UNL     1      -0.267  -1.172   4.656  0.00  0.00    +0.136 C 
ATOM     11  C   UNL     1       0.152  -0.284   5.834  0.00  0.00    +0.122 C 
ATOM     12  C   UNL     1      -0.322  -1.058   7.096  0.00  0.00    +0.107 C 
ATOM     13  C   UNL     1      -1.010  -2.326   6.548  0.00  0.00    +0.076 C 
ATOM     14  N   UNL     1      -0.397  -2.535   5.202  0.00  0.00    -0.295 NA
ATOM     15  C   UNL     1       0.971  -1.429   7.784  0.00  0.00    +0.227 C 
ATOM     16  O   UNL     1       1.060  -2.061   8.815  0.00  0.00    -0.275 OA
ATOM     17  N   UNL     1       2.003  -0.954   7.077  0.00  0.00    -0.241 N 
ATOM     18  C   UNL     1       1.659  -0.280   5.955  0.00  0.00    +0.228 C 
ATOM     19  O   UNL     1       2.424   0.241   5.172  0.00  0.00    -0.275 OA
ATOM     20  H   UNL     1      -1.949  -0.080   2.125  0.00  0.00    +0.155 HD
ATOM     21  H   UNL     1      -0.996  -3.102   4.622  0.00  0.00    +0.124 HD
ENDROOT
BRANCH   1  23
ATOM     22  C   UNL     1      -0.019   1.526   0.010  0.00  0.00    +0.009 C 
ATOM     23  C   UNL     1       0.002  -0.004   0.002  0.00  0.00    +0.033 C 
ENDBRANCH   1  23
BRANCH  13  24
ATOM     24  C   UNL     1      -0.708  -3.526   7.448  0.00  0.00    +0.115 C 
BRANCH  24  25
ATOM     25  C   UNL     1      -1.486  -4.723   6.967  0.00  0.00    +0.212 C 
ATOM     26  O   UNL     1      -2.211  -4.627   5.999  0.00  0.00    -0.276 OA
ATOM     27  N   UNL     1      -1.377  -5.902   7.612  0.00  0.00    -0.329 N 
ATOM     28  H   UNL     1      -0.798  -5.979   8.386  0.00  0.00    +0.145 HD
ATOM     29  H   UNL     1      -1.878  -6.672   7.302  0.00  0.00    +0.145 HD
ENDBRANCH  24  25
ENDBRANCH  13  24
BRANCH  17  30
ATOM     30  C   UNL     1       3.397  -1.142   7.486  0.00  0.00    +0.121 C 
BRANCH  30  31
ATOM     31  C   UNL     1       3.937  -2.438   6.879  0.00  0.00    +0.054 C 
BRANCH  31  32
ATOM     32  C   UNL     1       5.371  -2.631   7.300  0.00  0.00    -0.046 A 
ATOM     33  C   UNL     1       6.394  -2.110   6.529  0.00  0.00    +0.004 A 
ATOM     34  C   UNL     1       7.709  -2.287   6.916  0.00  0.00    +0.000 A 
ATOM     35  C   UNL     1       8.002  -2.985   8.073  0.00  0.00    +0.000 A 
ATOM     36  C   UNL     1       6.979  -3.506   8.843  0.00  0.00    +0.000 A 
ATOM     37  C   UNL     1       5.664  -3.325   8.459  0.00  0.00    +0.004 A 
ENDBRANCH  31  32
ENDBRANCH  30  31
ENDBRANCH  17  30
TORSDOF 6
