REMARK  Name = ZINC06510767
REMARK  6 active torsions:
REMARK  status: ('A' for Active; 'I' for Inactive)
REMARK    1  A    between atoms: C_3  and  S_19
REMARK    2  A    between atoms: C_6  and  N_7
REMARK    3  A    between atoms: N_7  and  N_8
REMARK    4  A    between atoms: C_9  and  C_10
REMARK    5  A    between atoms: C_15  and  O_16
REMARK    6  A    between atoms: S_19  and  N_22
REMARK                            x       y       z     vdW  Elec       q    Type
REMARK                         _______ _______ _______ _____ _____    ______ ____
ROOT
ATOM      1  N   UNL     1      -1.196  -0.720   0.010  0.00  0.00    -0.238 N 
ATOM      2  H   UNL     1      -2.043  -0.247   0.021  0.00  0.00    +0.174 HD
ENDROOT
BRANCH   1   8
ATOM      3  C   UNL     1      -0.017   1.386   0.010  0.00  0.00    +0.026 A 
ATOM      4  C   UNL     1       1.171   2.091   0.002  0.00  0.00    +0.030 A 
ATOM      5  C   UNL     1       2.377   1.415  -0.013  0.00  0.00    +0.105 A 
ATOM      6  C   UNL     1       2.400   0.033  -0.021  0.00  0.00    +0.030 A 
ATOM      7  C   UNL     1       1.217  -0.679  -0.014  0.00  0.00    +0.026 A 
ATOM      8  C   UNL     1       0.002  -0.004   0.002  0.00  0.00    +0.048 A 
BRANCH   5   9
ATOM      9  S   UNL     1       3.890   2.319  -0.024  0.00  0.00    +0.056 S 
ATOM     10  O   UNL     1       4.872   1.461  -0.589  0.00  0.00    -0.153 OA
ATOM     11  O   UNL     1       3.594   3.599  -0.566  0.00  0.00    -0.153 OA
BRANCH   9  12
ATOM     12  N   UNL     1       4.326   2.562   1.555  0.00  0.00    -0.204 NA
ATOM     13  H   UNL     1       3.768   2.221   2.270  0.00  0.00    +0.144 HD
ATOM     14  H   UNL     1       5.140   3.047   1.764  0.00  0.00    +0.144 HD
ENDBRANCH   9  12
ENDBRANCH   5   9
ENDBRANCH   1   8
BRANCH   1  15
ATOM     15  N   UNL     1      -1.175  -2.120   0.002  0.00  0.00    -0.190 NA
ATOM     16  C   UNL     1      -2.289  -2.787   0.010  0.00  0.00    +0.142 C 
BRANCH  16  17
ATOM     17  C   UNL     1      -2.267  -4.260   0.002  0.00  0.00    +0.039 A 
ATOM     18  C   UNL     1      -3.464  -4.980   0.004  0.00  0.00    +0.033 A 
ATOM     19  C   UNL     1      -3.437  -6.360  -0.004  0.00  0.00    +0.043 A 
ATOM     20  C   UNL     1      -2.227  -7.035  -0.015  0.00  0.00    +0.043 A 
ATOM     21  C   UNL     1      -1.035  -6.332  -0.016  0.00  0.00    +0.084 A 
ATOM     22  C   UNL     1      -1.045  -4.946  -0.014  0.00  0.00    +0.144 A 
ATOM     23 CL   UNL     1       0.476  -7.187  -0.029  0.00  0.00    -0.080 Cl
ATOM     24 CL   UNL     1      -4.925  -7.255  -0.001  0.00  0.00    -0.083 Cl
BRANCH  22  25
ATOM     25  O   UNL     1       0.125  -4.255  -0.022  0.00  0.00    -0.505 OA
ATOM     26  H   UNL     1       0.472  -4.060   0.860  0.00  0.00    +0.292 HD
ENDBRANCH  22  25
ENDBRANCH  16  17
ENDBRANCH   1  15
TORSDOF 6
