REMARK  Name = ZINC46695046
REMARK  7 active torsions:
REMARK  status: ('A' for Active; 'I' for Inactive)
REMARK    1  A    between atoms: C_1  and  C_2
REMARK    2  A    between atoms: C_2  and  C_3
REMARK    3  A    between atoms: N_5  and  C_6
REMARK    4  A    between atoms: C_9  and  C_12
REMARK    5  A    between atoms: C_12  and  C_14
REMARK    6  A    between atoms: C_12  and  N_15
REMARK    7  A    between atoms: C_22  and  C_24
REMARK                            x       y       z     vdW  Elec       q    Type
REMARK                         _______ _______ _______ _____ _____    ______ ____
ROOT
ATOM      1  C   UNL     1      -7.027  -3.602  -0.316  0.00  0.00    +0.102 C 
ATOM      2  C   UNL     1      -7.529  -3.969   1.082  0.00  0.00    +0.033 C 
ENDROOT
BRANCH   1   3
ATOM      3  N   UNL     1      -7.108  -4.776  -1.189  0.00  0.00    -0.293 N 
ATOM      4  C   UNL     1      -8.262  -5.067  -1.821  0.00  0.00    +0.303 C 
ATOM      5  O   UNL     1      -9.237  -4.356  -1.667  0.00  0.00    -0.253 OA
ATOM      6  N   UNL     1      -8.337  -6.148  -2.623  0.00  0.00    -0.278 N 
ATOM      7  C   UNL     1      -7.240  -7.095  -2.893  0.00  0.00    +0.110 C 
ATOM      8  C   UNL     1      -7.590  -7.727  -4.263  0.00  0.00    +0.021 C 
ATOM      9  C   UNL     1      -9.134  -7.841  -4.168  0.00  0.00    +0.029 C 
ATOM     10  C   UNL     1      -9.527  -6.580  -3.369  0.00  0.00    +0.114 C 
ATOM     11  H   UNL     1      -6.331  -5.343  -1.311  0.00  0.00    +0.151 HD
BRANCH  10  12
ATOM     12  C   UNL     1     -10.643  -6.905  -2.410  0.00  0.00    +0.010 A 
ATOM     13  C   UNL     1     -11.972  -6.666  -2.534  0.00  0.00    +0.013 A 
ATOM     14  C   UNL     1     -12.821  -7.057  -1.516  0.00  0.00    +0.008 A 
ATOM     15  C   UNL     1     -12.300  -7.668  -0.424  0.00  0.00    +0.045 A 
ATOM     16  S   UNL     1     -10.560  -7.713  -0.820  0.00  0.00    -0.100 S 
ENDBRANCH  10  12
ENDBRANCH   1   3
BRANCH   1  20
ATOM     17  C   UNL     1      -2.969  -2.285  -0.072  0.00  0.00    +0.033 A 
ATOM     18  C   UNL     1      -3.998  -1.356  -0.159  0.00  0.00    +0.023 A 
ATOM     19  C   UNL     1      -5.308  -1.785  -0.237  0.00  0.00    +0.007 A 
ATOM     20  C   UNL     1      -5.596  -3.137  -0.230  0.00  0.00    -0.027 A 
ATOM     21  C   UNL     1      -4.574  -4.065  -0.144  0.00  0.00    +0.007 A 
ATOM     22  C   UNL     1      -3.261  -3.643  -0.071  0.00  0.00    +0.023 A 
BRANCH  17  25
ATOM     23  C   UNL     1      -0.664  -2.565  -0.591  0.00  0.00    +0.217 C 
ATOM     24  O   UNL     1      -0.924  -3.621  -1.126  0.00  0.00    -0.275 OA
ATOM     25  N   UNL     1      -1.640  -1.854   0.008  0.00  0.00    -0.286 N 
ATOM     26  H   UNL     1      -1.421  -1.043   0.494  0.00  0.00    +0.155 HD
BRANCH  23  28
ATOM     27  C   UNL     1       1.655  -3.037  -1.332  0.00  0.00    +0.013 C 
ATOM     28  C   UNL     1       0.751  -2.047  -0.594  0.00  0.00    +0.093 C 
ENDBRANCH  23  28
ENDBRANCH  17  25
ENDBRANCH   1  20
TORSDOF 5
