REMARK  Name = ZINC63279347
REMARK  5 active torsions:
REMARK  status: ('A' for Active; 'I' for Inactive)
REMARK    1  A    between atoms: C_1  and  C_2
REMARK    2  A    between atoms: C_11  and  C_12
REMARK    3  A    between atoms: C_15  and  O_19
REMARK    4  A    between atoms: C_16  and  O_18
REMARK    5  A    between atoms: O_19  and  C_20
REMARK                            x       y       z     vdW  Elec       q    Type
REMARK                         _______ _______ _______ _____ _____    ______ ____
ROOT
ATOM      1  C   UNL     1       0.537   1.172  -0.312  0.00  0.00    +0.047 C 
ATOM      2  C   UNL     1       0.284  -0.308  -0.183  0.00  0.00    -0.008 A 
ATOM      3  C   UNL     1       0.119  -1.079  -1.316  0.00  0.00    +0.007 A 
ATOM      4  C   UNL     1      -0.117  -2.441  -1.217  0.00  0.00    +0.001 A 
ATOM      5  C   UNL     1      -0.195  -3.039   0.024  0.00  0.00    +0.015 A 
ATOM      6  C   UNL     1      -0.032  -2.268   1.172  0.00  0.00    +0.064 A 
ATOM      7  C   UNL     1       0.222  -0.894   1.076  0.00  0.00    +0.135 A 
ATOM      8  O   UNL     1       0.422  -0.126   2.172  0.00  0.00    -0.486 OA
ATOM      9  C   UNL     1      -0.102  -0.541   3.433  0.00  0.00    +0.268 C 
ATOM     10  C   UNL     1       0.250  -2.005   3.640  0.00  0.00    +0.038 C 
ATOM     11  C   UNL     1       0.852  -2.458   4.763  0.00  0.00    +0.018 C 
ATOM     12  C   UNL     1      -0.129  -2.893   2.516  0.00  0.00    +0.196 C 
ATOM     13  O   UNL     1      -0.479  -4.048   2.679  0.00  0.00    -0.287 OA
ENDROOT
BRANCH  11  14
ATOM     14  C   UNL     1       1.323  -3.848   4.833  0.00  0.00    -0.021 A 
ATOM     15  C   UNL     1       1.793  -4.489   3.681  0.00  0.00    +0.012 A 
ATOM     16  C   UNL     1       2.234  -5.792   3.750  0.00  0.00    +0.050 A 
ATOM     17  C   UNL     1       2.216  -6.472   4.960  0.00  0.00    +0.161 A 
ATOM     18  C   UNL     1       1.750  -5.840   6.113  0.00  0.00    +0.159 A 
ATOM     19  C   UNL     1       1.311  -4.533   6.055  0.00  0.00    +0.057 A 
BRANCH  18  20
ATOM     20  O   UNL     1       1.733  -6.511   7.296  0.00  0.00    -0.503 OA
ATOM     21  H   UNL     1       2.546  -6.419   7.812  0.00  0.00    +0.292 HD
ENDBRANCH  18  20
BRANCH  17  22
ATOM     22  O   UNL     1       2.652  -7.757   5.022  0.00  0.00    -0.491 OA
ATOM     23  C   UNL     1       3.115  -8.344   3.804  0.00  0.00    +0.277 C 
ENDBRANCH  17  22
ENDBRANCH  11  14
TORSDOF 3
