REMARK  Name = ZINC63842646
REMARK  5 active torsions:
REMARK  status: ('A' for Active; 'I' for Inactive)
REMARK    1  A    between atoms: C_7  and  C_10
REMARK    2  A    between atoms: C_10  and  C_11
REMARK    3  A    between atoms: C_11  and  N_12
REMARK    4  A    between atoms: C_13  and  C_15
REMARK    5  A    between atoms: C_18  and  C_22
REMARK                            x       y       z     vdW  Elec       q    Type
REMARK                         _______ _______ _______ _____ _____    ______ ____
ROOT
ATOM      1  N   UNL     1      -0.320  -4.904  -1.466  0.00  0.00    -0.311 N 
ATOM      2  C   UNL     1      -0.849  -5.351  -2.622  0.00  0.00    +0.238 C 
ATOM      3  O   UNL     1      -0.600  -4.777  -3.667  0.00  0.00    -0.271 OA
ATOM      4  H   UNL     1      -0.518  -5.361  -0.634  0.00  0.00    +0.149 HD
ENDROOT
BRANCH   2   5
ATOM      5  C   UNL     1      -1.694  -6.485  -2.622  0.00  0.00    +0.086 C 
ATOM      6  C   UNL     1      -2.126  -7.005  -3.789  0.00  0.00    +0.020 C 
ATOM      7  N   UNL     1      -1.667  -6.575  -4.983  0.00  0.00    -0.331 N 
ATOM      8  C   UNL     1      -2.503  -6.790  -6.178  0.00  0.00    +0.160 C 
ATOM      9  S   UNL     1      -3.921  -7.748  -5.493  0.00  0.00    -0.128 S 
ATOM     10  C   UNL     1      -3.163  -8.121  -3.849  0.00  0.00    +0.121 C 
ATOM     11  H   UNL     1      -0.805  -6.135  -5.053  0.00  0.00    +0.147 HD
BRANCH   8  12
ATOM     12  C   UNL     1      -2.966  -5.476  -6.753  0.00  0.00    -0.010 A 
ATOM     13  C   UNL     1      -3.206  -5.349  -8.108  0.00  0.00    +0.014 A 
ATOM     14  C   UNL     1      -3.621  -4.153  -8.593  0.00  0.00    +0.045 A 
ATOM     15  S   UNL     1      -3.683  -3.157  -7.113  0.00  0.00    -0.105 S 
ATOM     16  C   UNL     1      -3.158  -4.403  -5.948  0.00  0.00    +0.051 A 
ENDBRANCH   8  12
ENDBRANCH   2   5
BRANCH   1  17
ATOM     17  C   UNL     1       0.555  -3.729  -1.466  0.00  0.00    +0.109 C 
BRANCH  17  18
ATOM     18  C   UNL     1       1.017  -3.436  -0.037  0.00  0.00    +0.052 C 
BRANCH  18  25
ATOM     19  C   UNL     1       0.222   1.021   0.708  0.00  0.00    +0.001 A 
ATOM     20  C   UNL     1       1.368   1.821   0.607  0.00  0.00    +0.002 A 
ATOM     21  C   UNL     1       2.586   1.316   0.317  0.00  0.00    +0.026 A 
ATOM     22  C   UNL     1       2.753  -0.079   0.099  0.00  0.00    +0.043 A 
ATOM     23  N   UNL     1       3.811  -0.797  -0.191  0.00  0.00    -0.380 N 
ATOM     24  C   UNL     1       3.405  -2.202  -0.306  0.00  0.00    +0.144 C 
ATOM     25  C   UNL     1       1.917  -2.228  -0.038  0.00  0.00    -0.040 C 
ATOM     26  C   UNL     1       1.557  -0.946   0.201  0.00  0.00    -0.001 A 
ATOM     27  C   UNL     1       0.270  -0.318   0.520  0.00  0.00    +0.010 A 
ATOM     28  H   UNL     1       4.711  -0.456  -0.309  0.00  0.00    +0.160 HD
ENDBRANCH  18  25
ENDBRANCH  17  18
ENDBRANCH   1  17
TORSDOF 5
