REMARK  Name = ZINC63192800
REMARK  5 active torsions:
REMARK  status: ('A' for Active; 'I' for Inactive)
REMARK    1  A    between atoms: C_1  and  C_2
REMARK    2  A    between atoms: C_2  and  C_4
REMARK    3  A    between atoms: C_2  and  N_22
REMARK    4  A    between atoms: C_11  and  C_13
REMARK    5  A    between atoms: N_17  and  C_18
REMARK                            x       y       z     vdW  Elec       q    Type
REMARK                         _______ _______ _______ _____ _____    ______ ____
ROOT
ATOM      1  C   UNL     1       0.400  -0.553  -1.217  0.00  0.00    +0.062 C 
ATOM      2  C   UNL     1      -0.752  -0.035  -2.083  0.00  0.00    +0.021 C 
ATOM      3  C   UNL     1      -0.695  -0.708  -3.457  0.00  0.00    +0.003 C 
ATOM      4  C   UNL     1      -0.856  -2.221  -3.293  0.00  0.00    +0.019 C 
ATOM      5  C   UNL     1       0.295  -2.763  -2.440  0.00  0.00    +0.108 C 
ATOM      6  N   UNL     1       0.340  -2.020  -1.173  0.00  0.00    -0.295 N 
ATOM      7  C   UNL     1       0.323  -2.672   0.007  0.00  0.00    +0.263 C 
ATOM      8  O   UNL     1       0.366  -2.045   1.049  0.00  0.00    -0.268 OA
ENDROOT
BRANCH   7   9
ATOM      9  C   UNL     1       0.251  -4.137   0.034  0.00  0.00    +0.106 A 
ATOM     10  C   UNL     1       0.734  -4.994  -0.931  0.00  0.00    +0.047 A 
ATOM     11  C   UNL     1       0.454  -6.296  -0.502  0.00  0.00    +0.036 A 
ATOM     12  C   UNL     1      -0.181  -6.212   0.692  0.00  0.00    +0.102 A 
ATOM     13  N   UNL     1      -0.306  -4.905   1.031  0.00  0.00    -0.339 N 
ATOM     14 BR   UNL     1       0.886  -7.890  -1.423  0.00  0.00    -0.049 Br
BRANCH  13  15
ATOM     15  C   UNL     1      -0.932  -4.396   2.254  0.00  0.00    +0.088 C 
ATOM     16  C   UNL     1      -1.564  -5.416   3.202  0.00  0.00    +0.027 C 
ATOM     17  C   UNL     1      -0.253  -4.726   3.585  0.00  0.00    +0.027 C 
ENDBRANCH  13  15
ENDBRANCH   7   9
BRANCH   1  19
ATOM     18  C   UNL     1      -1.123  -0.316   0.750  0.00  0.00    -0.012 C 
ATOM     19  C   UNL     1       0.268   0.008   0.200  0.00  0.00    -0.057 C 
BRANCH  19  20
ATOM     20  N   UNL     1       0.455   1.465   0.170  0.00  0.00    +0.381 N 
ATOM     21  H   UNL     1       0.453   1.825   1.113  0.00  0.00    -0.090 HD
ATOM     22  H   UNL     1       1.337   1.682  -0.271  0.00  0.00    -0.090 HD
ATOM     23  H   UNL     1      -0.295   1.890  -0.354  0.00  0.00    -0.090 HD
ENDBRANCH  19  20
ENDBRANCH   1  19
TORSDOF 4
