REMARK  Name = ZINC05690328
REMARK  5 active torsions:
REMARK  status: ('A' for Active; 'I' for Inactive)
REMARK    1  A    between atoms: C_1  and  C_2
REMARK    2  A    between atoms: C_2  and  C_29
REMARK    3  A    between atoms: C_4  and  N_9
REMARK    4  A    between atoms: C_12  and  O_14
REMARK    5  A    between atoms: C_15  and  C_22
REMARK                            x       y       z     vdW  Elec       q    Type
REMARK                         _______ _______ _______ _____ _____    ______ ____
ROOT
ATOM      1  N   UNL     1      -2.774  -2.579   0.152  0.00  0.00    -0.243 N 
ATOM      2  C   UNL     1      -3.376  -3.421  -0.752  0.00  0.00    +0.132 A 
ATOM      3  C   UNL     1      -4.629  -3.653  -0.306  0.00  0.00    +0.072 A 
ATOM      4  C   UNL     1      -4.797  -2.934   0.901  0.00  0.00    +0.238 A 
ATOM      5  N   UNL     1      -3.687  -2.302   1.169  0.00  0.00    -0.131 NA
ATOM      6  C   UNL     1      -5.723  -4.492  -0.888  0.00  0.00    +0.115 C 
ATOM      7  S   UNL     1      -5.121  -5.958  -1.730  0.00  0.00    -0.138 S 
ATOM      8  C   UNL     1      -4.237  -5.370  -3.182  0.00  0.00    +0.166 C 
ATOM      9  C   UNL     1      -2.979  -4.669  -2.846  0.00  0.00    +0.228 C 
ATOM     10  O   UNL     1      -2.058  -4.884  -3.606  0.00  0.00    -0.275 OA
ATOM     11  N   UNL     1      -2.704  -3.860  -1.868  0.00  0.00    -0.270 N 
ATOM     12  H   UNL     1      -1.816  -3.477  -1.942  0.00  0.00    +0.156 HD
ENDROOT
BRANCH   1  16
ATOM     13  C   UNL     1      -0.019   1.526   0.010  0.00  0.00    +0.041 C 
ATOM     14  C   UNL     1       0.002  -0.004   0.002  0.00  0.00    +0.066 C 
ATOM     15  C   UNL     1      -1.434  -0.534   0.014  0.00  0.00    +0.061 C 
ATOM     16  C   UNL     1      -1.405  -2.065   0.067  0.00  0.00    +0.114 C 
ATOM     17  C   UNL     1      -0.611  -2.507   1.300  0.00  0.00    +0.055 C 
ATOM     18  C   UNL     1       0.793  -1.901   1.238  0.00  0.00    +0.162 C 
ATOM     19  O   UNL     1       0.693  -0.478   1.160  0.00  0.00    -0.374 OA
ATOM     20  C   UNL     1       0.718  -0.498  -1.257  0.00  0.00    +0.041 C 
ENDBRANCH   1  16
BRANCH   6  21
ATOM     21  C   UNL     1      -6.647  -4.921   0.222  0.00  0.00    -0.030 A 
ATOM     22  C   UNL     1      -6.159  -5.666   1.279  0.00  0.00    +0.006 A 
ATOM     23  C   UNL     1      -7.006  -6.059   2.298  0.00  0.00    +0.020 A 
ATOM     24  C   UNL     1      -8.343  -5.707   2.260  0.00  0.00    +0.041 A 
ATOM     25  C   UNL     1      -8.831  -4.960   1.202  0.00  0.00    +0.020 A 
ATOM     26  C   UNL     1      -7.982  -4.563   0.187  0.00  0.00    +0.006 A 
ATOM     27 CL   UNL     1      -9.408  -6.201   3.539  0.00  0.00    -0.084 Cl
ENDBRANCH   6  21
BRANCH   4  28
ATOM     28  O   UNL     1      -5.926  -2.909   1.658  0.00  0.00    -0.491 OA
ATOM     29  H   UNL     1      -5.963  -3.600   2.334  0.00  0.00    +0.294 HD
ENDBRANCH   4  28
TORSDOF 3
