REMARK  Name = ZINC36559039
REMARK  5 active torsions:
REMARK  status: ('A' for Active; 'I' for Inactive)
REMARK    1  A    between atoms: C_1  and  C_2
REMARK    2  A    between atoms: C_2  and  S_3
REMARK    3  A    between atoms: S_3  and  C_22
REMARK    4  A    between atoms: N_4  and  C_5
REMARK    5  A    between atoms: C_22  and  C_23
REMARK                            x       y       z     vdW  Elec       q    Type
REMARK                         _______ _______ _______ _____ _____    ______ ____
ROOT
ATOM      1  C   UNL     1      -1.094  -0.553   2.899  0.00  0.00    +0.085 A 
ATOM      2  C   UNL     1      -1.748  -1.498   1.983  0.00  0.00    +0.029 A 
ATOM      3  C   UNL     1      -3.018  -1.913   2.245  0.00  0.00    +0.003 A 
ATOM      4  C   UNL     1      -3.717  -1.468   3.359  0.00  0.00    +0.012 A 
ATOM      5  C   UNL     1      -3.156  -0.573   4.269  0.00  0.00    +0.035 A 
ATOM      6  C   UNL     1      -1.849  -0.100   4.076  0.00  0.00    +0.059 A 
ATOM      7  C   UNL     1      -1.254   0.838   5.038  0.00  0.00    +0.197 C 
ATOM      8  O   UNL     1      -0.237   1.444   4.758  0.00  0.00    -0.287 OA
ATOM      9  C   UNL     1      -1.906   1.035   6.351  0.00  0.00    +0.033 A 
ATOM     10  C   UNL     1      -1.238   1.682   7.385  0.00  0.00    +0.012 A 
ATOM     11  C   UNL     1      -1.865   1.857   8.606  0.00  0.00    +0.001 A 
ATOM     12  C   UNL     1      -3.153   1.392   8.806  0.00  0.00    +0.001 A 
ATOM     13  C   UNL     1      -3.832   0.746   7.788  0.00  0.00    +0.012 A 
ATOM     14  C   UNL     1      -3.216   0.562   6.553  0.00  0.00    +0.033 A 
ATOM     15  C   UNL     1      -3.927  -0.118   5.447  0.00  0.00    +0.195 C 
ATOM     16  O   UNL     1      -5.125  -0.313   5.511  0.00  0.00    -0.287 OA
ENDROOT
BRANCH   1  18
ATOM     17  S   UNL     1       0.879  -0.605   1.472  0.00  0.00    +0.053 S 
ATOM     18  N   UNL     1       0.133  -0.130   2.675  0.00  0.00    -0.197 NA
ATOM     19  O   UNL     1       0.942  -2.023   1.538  0.00  0.00    -0.247 OA
BRANCH  17  21
ATOM     20  C   UNL     1      -0.019   1.526   0.010  0.00  0.00    +0.019 C 
ATOM     21  C   UNL     1       0.002  -0.004   0.002  0.00  0.00    +0.111 C 
ENDBRANCH  17  21
BRANCH  17  22
ATOM     22  C   UNL     1       2.516   0.177   1.489  0.00  0.00    +0.111 C 
ATOM     23  C   UNL     1       3.315  -0.285   0.269  0.00  0.00    +0.019 C 
ENDBRANCH  17  22
ENDBRANCH   1  18
TORSDOF 3
