REMARK  Name = ZINC00490379
REMARK  3 active torsions:
REMARK  status: ('A' for Active; 'I' for Inactive)
REMARK    1  A    between atoms: C_1  and  O_2
REMARK    2  A    between atoms: O_2  and  C_3
REMARK    3  A    between atoms: C_7  and  C_14
REMARK                            x       y       z     vdW  Elec       q    Type
REMARK                         _______ _______ _______ _____ _____    ______ ____
ROOT
ATOM      1  C   UNL     1      -4.865   8.453  -3.172  0.00  0.00    +0.124 A 
ATOM      2  C   UNL     1      -3.664   7.749  -3.230  0.00  0.00    +0.046 A 
ATOM      3  C   UNL     1      -3.282   6.949  -2.191  0.00  0.00    +0.016 A 
ATOM      4  C   UNL     1      -4.100   6.836  -1.065  0.00  0.00    +0.026 A 
ATOM      5  C   UNL     1      -3.713   5.980   0.071  0.00  0.00    +0.006 A 
ATOM      6  C   UNL     1      -4.576   5.912   1.152  0.00  0.00    +0.101 A 
ATOM      7  C   UNL     1      -5.766   6.655   1.135  0.00  0.00    +0.338 A 
ATOM      8  O   UNL     1      -6.517   6.593   2.092  0.00  0.00    -0.245 OA
ATOM      9  O   UNL     1      -6.101   7.430   0.091  0.00  0.00    -0.422 OA
ATOM     10  C   UNL     1      -5.312   7.543  -0.999  0.00  0.00    +0.143 A 
ATOM     11  C   UNL     1      -5.687   8.351  -2.062  0.00  0.00    +0.092 A 
ENDROOT
BRANCH   5  12
ATOM     12  C   UNL     1      -2.451   5.217   0.053  0.00  0.00    +0.068 A 
ATOM     13  C   UNL     1      -2.465   3.834   0.047  0.00  0.00    +0.027 A 
ATOM     14  C   UNL     1      -1.228   3.140   0.031  0.00  0.00    +0.018 A 
ATOM     15  C   UNL     1      -1.207   1.737   0.017  0.00  0.00    +0.011 A 
ATOM     16  C   UNL     1      -0.013   1.076   0.008  0.00  0.00    +0.001 A 
ATOM     17  C   UNL     1       1.183   1.781   0.000  0.00  0.00    +0.004 A 
ATOM     18  C   UNL     1       1.185   3.160   0.007  0.00  0.00    +0.047 A 
ATOM     19  C   UNL     1      -0.019   3.857   0.022  0.00  0.00    +0.139 A 
ATOM     20  O   UNL     1      -0.014   5.207   0.029  0.00  0.00    -0.422 OA
ATOM     21  C   UNL     1      -1.158   5.911   0.043  0.00  0.00    +0.345 A 
ATOM     22  O   UNL     1      -1.122   7.127   0.049  0.00  0.00    -0.245 OA
ENDBRANCH   5  12
BRANCH   1  24
ATOM     23  C   UNL     1      -4.341   9.306  -5.327  0.00  0.00    +0.277 C 
ATOM     24  O   UNL     1      -5.233   9.245  -4.212  0.00  0.00    -0.495 OA
ENDBRANCH   1  24
TORSDOF 2
