REMARK  Name = ZINC20026775
REMARK  9 active torsions:
REMARK  status: ('A' for Active; 'I' for Inactive)
REMARK    1  A    between atoms: C_1  and  C_2
REMARK    2  A    between atoms: C_2  and  C_3
REMARK    3  A    between atoms: C_2  and  C_4
REMARK    4  A    between atoms: C_2  and  C_5
REMARK    5  A    between atoms: C_13  and  C_25
REMARK    6  A    between atoms: C_15  and  C_23
REMARK    7  A    between atoms: C_16  and  N_22
REMARK    8  A    between atoms: C_17  and  C_18
REMARK    9  A    between atoms: C_17  and  C_20
REMARK                            x       y       z     vdW  Elec       q    Type
REMARK                         _______ _______ _______ _____ _____    ______ ____
ROOT
ATOM      1  C   UNL     1      -4.133   4.050  -2.661  0.00  0.00    -0.001 C 
ATOM      2  C   UNL     1      -4.662   5.465  -2.920  0.00  0.00    +0.031 C 
ATOM      3  C   UNL     1      -4.281   6.343  -1.761  0.00  0.00    -0.024 C 
ATOM      4  C   UNL     1      -3.244   6.113  -1.016  0.00  0.00    -0.030 C 
ATOM      5  C   UNL     1      -2.299   4.958  -1.209  0.00  0.00    +0.031 C 
ATOM      6  C   UNL     1      -2.643   4.136  -2.439  0.00  0.00    +0.013 C 
ATOM      7  C   UNL     1      -2.355   4.080   0.044  0.00  0.00    +0.075 C 
ATOM      8  C   UNL     1      -2.278   4.928   1.278  0.00  0.00    +0.057 C 
ATOM      9  C   UNL     1      -2.550   6.227   1.335  0.00  0.00    +0.054 C 
ATOM     10  C   UNL     1      -2.941   7.051   0.140  0.00  0.00    +0.202 C 
ENDROOT
BRANCH   7  11
ATOM     11  C   UNL     1      -1.196   3.117   0.029  0.00  0.00    -0.000 A 
ATOM     12  C   UNL     1      -1.213   1.762   0.017  0.00  0.00    +0.013 A 
ATOM     13  C   UNL     1      -0.013   1.076   0.008  0.00  0.00    +0.028 A 
ATOM     14  C   UNL     1       1.147   1.780   0.001  0.00  0.00    +0.078 A 
ATOM     15  S   UNL     1       0.555   3.465   0.015  0.00  0.00    -0.081 S 
ATOM     16 CL   UNL     1       2.781   1.196  -0.017  0.00  0.00    -0.076 Cl
ENDBRANCH   7  11
BRANCH   1  18
ATOM     17  C   UNL     1      -3.744   3.741  -5.110  0.00  0.00    +0.011 C 
ATOM     18  C   UNL     1      -4.429   3.161  -3.871  0.00  0.00    -0.035 C 
ATOM     19  C   UNL     1      -3.900   1.750  -3.608  0.00  0.00    +0.011 C 
ATOM     20  C   UNL     1      -5.940   3.103  -4.104  0.00  0.00    +0.011 C 
ENDBRANCH   1  18
BRANCH   9  21
ATOM     21  N   UNL     1      -2.467   6.853   2.551  0.00  0.00    -0.358 N 
ATOM     22  H   UNL     1      -2.686   7.928   2.633  0.00  0.00    +0.142 HD
ATOM     23  H   UNL     1      -2.181   6.280   3.446  0.00  0.00    +0.142 HD
ENDBRANCH   9  21
BRANCH  10  24
ATOM     24  C   UNL     1      -1.831   7.946  -0.228  0.00  0.00    +0.095 C 
ATOM     25  N   UNL     1      -0.975   8.636  -0.512  0.00  0.00    -0.194 NA
ENDBRANCH  10  24
BRANCH  10  26
ATOM     26  C   UNL     1      -4.136   7.851   0.454  0.00  0.00    +0.095 C 
ATOM     27  N   UNL     1      -5.059   8.467   0.697  0.00  0.00    -0.194 NA
ENDBRANCH  10  26
BRANCH   8  28
ATOM     28  C   UNL     1      -1.886   4.286   2.496  0.00  0.00    +0.097 C 
ATOM     29  N   UNL     1      -1.574   3.777   3.463  0.00  0.00    -0.191 NA
ENDBRANCH   8  28
TORSDOF 6
