REMARK  Name = ZINC03231087
REMARK  11 active torsions:
REMARK  status: ('A' for Active; 'I' for Inactive)
REMARK    1  A    between atoms: C_3  and  S_28
REMARK    2  A    between atoms: C_6  and  C_7
REMARK    3  A    between atoms: C_8  and  C_9
REMARK    4  A    between atoms: N_11  and  C_12
REMARK    5  A    between atoms: C_12  and  C_14
REMARK    6  A    between atoms: C_12  and  C_16
REMARK    7  A    between atoms: C_14  and  O_15
REMARK    8  A    between atoms: C_16  and  C_18
REMARK    9  A    between atoms: C_16  and  O_27
REMARK   10  A    between atoms: C_21  and  N_24
REMARK   11  A    between atoms: S_28  and  N_31
REMARK                            x       y       z     vdW  Elec       q    Type
REMARK                         _______ _______ _______ _____ _____    ______ ____
ROOT
ATOM      1  C   UNK A   0      -2.415   1.290   0.239  0.00  0.00    +0.237 C 
ATOM      2  O   UNK A   0      -2.215   0.122   0.516  0.00  0.00    -0.271 OA
ATOM      3  N   UNK A   1      -3.676   1.744   0.101  0.00  0.00    -0.304 N 
ATOM      4  H   UNK A   1      -3.835   2.675  -0.120  0.00  0.00    +0.149 HD
ENDROOT
BRANCH   1   6
ATOM      5  C   UNK A   0      -0.022   1.749   0.193  0.00  0.00    +0.013 C 
ATOM      6  C   UNK A   0      -1.284   2.203   0.055  0.00  0.00    +0.068 C 
BRANCH   5  12
ATOM      7  C   UNK A   0       0.889   4.006  -0.321  0.00  0.00    +0.010 A 
ATOM      8  C   UNK A   0       1.959   4.859  -0.494  0.00  0.00    +0.029 A 
ATOM      9  C   UNK A   0       3.253   4.387  -0.356  0.00  0.00    +0.106 A 
ATOM     10  C   UNK A   0       3.484   3.060  -0.041  0.00  0.00    +0.029 A 
ATOM     11  C   UNK A   0       2.425   2.196   0.140  0.00  0.00    +0.010 A 
ATOM     12  C   UNK A   0       1.114   2.664   0.003  0.00  0.00    -0.025 A 
BRANCH   9  13
ATOM     13  S   UNK A   0       4.614   5.483  -0.585  0.00  0.00    +0.061 S 
ATOM     14  O   UNK A   0       4.126   6.794  -0.336  0.00  0.00    -0.153 OA
ATOM     15  O   UNK A   0       5.707   4.928   0.134  0.00  0.00    -0.153 OA
BRANCH  13  16
ATOM     16  N   UNK A   0       5.024   5.427  -2.188  0.00  0.00    -0.172 NA
ATOM     17  C   UNK A   0       6.017   4.461  -2.683  0.00  0.00    +0.137 C 
ATOM     18  C   UNK A   0       5.411   3.725  -3.888  0.00  0.00    +0.177 C 
ATOM     19  O   UNK A   0       4.935   4.686  -4.834  0.00  0.00    -0.377 OA
ATOM     20  C   UNK A   0       3.886   5.523  -4.341  0.00  0.00    +0.177 C 
ATOM     21  C   UNK A   0       4.410   6.347  -3.159  0.00  0.00    +0.137 C 
ENDBRANCH  13  16
ENDBRANCH   9  13
ENDBRANCH   5  12
ENDBRANCH   1   6
BRANCH   3  22
ATOM     22  C   UNK A   1      -4.807   0.832   0.284  0.00  0.00    +0.131 C 
BRANCH  22  23
ATOM     23  C   UNK A   1      -5.085   0.094  -1.027  0.00  0.00    +0.181 C 
BRANCH  23  24
ATOM     24  O   UNK A   1      -5.498   1.032  -2.023  0.00  0.00    -0.393 OA
ATOM     25  H   UNK A   1      -5.691   0.633  -2.883  0.00  0.00    +0.209 HD
ENDBRANCH  23  24
ENDBRANCH  22  23
BRANCH  22  26
ATOM     26  C   UNK A   1      -6.046   1.631   0.692  0.00  0.00    +0.167 C 
BRANCH  26  27
ATOM     27  C   UNK A   1      -5.798   2.299   2.020  0.00  0.00    -0.017 A 
ATOM     28  C   UNK A   1      -5.927   1.577   3.192  0.00  0.00    +0.008 A 
ATOM     29  C   UNK A   1      -5.695   2.188   4.410  0.00  0.00    +0.033 A 
ATOM     30  C   UNK A   1      -5.344   3.524   4.457  0.00  0.00    +0.126 A 
ATOM     31  C   UNK A   1      -5.221   4.248   3.285  0.00  0.00    +0.033 A 
ATOM     32  C   UNK A   1      -5.448   3.635   2.067  0.00  0.00    +0.008 A 
BRANCH  30  33
ATOM     33  N   UNK A   1      -5.102   4.180   5.761  0.00  0.00    +0.056 N 
ATOM     34  O   UNK A   1      -4.793   5.358   5.802  0.00  0.00    -0.126 OA
ATOM     35  O   UNK A   1      -5.211   3.543   6.793  0.00  0.00    -0.126 OA
ENDBRANCH  30  33
ENDBRANCH  26  27
BRANCH  26  36
ATOM     36  O   UNK A   1      -7.166   0.750   0.804  0.00  0.00    -0.385 OA
ATOM     37  H   UNK A   1      -7.017  -0.003   1.393  0.00  0.00    +0.210 HD
ENDBRANCH  26  36
ENDBRANCH  22  26
ENDBRANCH   3  22
TORSDOF 11
