REMARK  Name = ZINC01868674
REMARK  6 active torsions:
REMARK  status: ('A' for Active; 'I' for Inactive)
REMARK    1  A    between atoms: C_1  and  C_2
REMARK    2  A    between atoms: C_2  and  O_3
REMARK    3  A    between atoms: O_3  and  C_4
REMARK    4  A    between atoms: C_9  and  C_10
REMARK    5  A    between atoms: N_11  and  N_12
REMARK    6  A    between atoms: C_22  and  C_24
REMARK                            x       y       z     vdW  Elec       q    Type
REMARK                         _______ _______ _______ _____ _____    ______ ____
ROOT
ATOM      1  N   UNL     1      -1.131  -4.844  -0.345  0.00  0.00    -0.111 NA
ATOM      2  C   UNL     1      -0.086  -4.287  -0.943  0.00  0.00    +0.248 A 
ATOM      3  N   UNL     1       1.139  -4.904  -0.847  0.00  0.00    -0.322 N 
ATOM      4  H   UNL     1       1.229  -5.731  -0.349  0.00  0.00    +0.169 HD
ATOM      5  C   UNL     1       2.244  -4.342  -1.463  0.00  0.00    +0.051 A 
ATOM      6  C   UNL     1       3.498  -4.931  -1.391  0.00  0.00    +0.028 A 
ATOM      7  C   UNL     1       4.571  -4.335  -2.021  0.00  0.00    +0.022 A 
ATOM      8  C   UNL     1       4.409  -3.150  -2.726  0.00  0.00    +0.042 A 
ATOM      9  C   UNL     1       3.171  -2.550  -2.810  0.00  0.00    +0.032 A 
ATOM     10  C   UNL     1       2.075  -3.144  -2.183  0.00  0.00    +0.026 A 
ATOM     11  C   UNL     1       0.735  -2.541  -2.235  0.00  0.00    +0.084 A 
ATOM     12  N   UNL     1      -0.263  -3.147  -1.616  0.00  0.00    -0.210 NA
ATOM     13 CL   UNL     1       5.776  -2.420  -3.510  0.00  0.00    -0.084 Cl
ENDROOT
BRANCH  11  14
ATOM     14  C   UNL     1       0.506  -1.280  -2.971  0.00  0.00    +0.001 A 
ATOM     15  C   UNL     1      -0.606  -1.147  -3.805  0.00  0.00    +0.010 A 
ATOM     16  C   UNL     1      -0.814   0.032  -4.490  0.00  0.00    +0.001 A 
ATOM     17  C   UNL     1       0.078   1.082  -4.353  0.00  0.00    +0.000 A 
ATOM     18  C   UNL     1       1.182   0.956  -3.528  0.00  0.00    +0.001 A 
ATOM     19  C   UNL     1       1.401  -0.217  -2.837  0.00  0.00    +0.010 A 
ENDBRANCH  11  14
BRANCH   1  21
ATOM     20  C   UNL     1      -3.302  -4.786   0.240  0.00  0.00    +0.146 C 
ATOM     21  N   UNL     1      -2.248  -4.204  -0.269  0.00  0.00    -0.153 NA
BRANCH  20  27
ATOM     22  C   UNL     1      -4.489  -2.601   0.392  0.00  0.00    +0.129 A 
ATOM     23  C   UNL     1      -5.627  -1.867   0.680  0.00  0.00    +0.046 A 
ATOM     24  C   UNL     1      -6.773  -2.507   1.115  0.00  0.00    +0.004 A 
ATOM     25  C   UNL     1      -6.794  -3.883   1.266  0.00  0.00    +0.001 A 
ATOM     26  C   UNL     1      -5.672  -4.631   0.979  0.00  0.00    +0.013 A 
ATOM     27  C   UNL     1      -4.504  -3.997   0.543  0.00  0.00    +0.036 A 
BRANCH  22  28
ATOM     28  O   UNL     1      -3.362  -1.974  -0.036  0.00  0.00    -0.492 OA
BRANCH  28  30
ATOM     29  C   UNL     1      -2.038  -0.022  -0.564  0.00  0.00    +0.048 C 
ATOM     30  C   UNL     1      -3.392  -0.546  -0.081  0.00  0.00    +0.226 C 
ENDBRANCH  28  30
ENDBRANCH  22  28
ENDBRANCH  20  27
ENDBRANCH   1  21
TORSDOF 5
