REMARK  Name = ZINC33880041
REMARK  9 active torsions:
REMARK  status: ('A' for Active; 'I' for Inactive)
REMARK    1  A    between atoms: C_4  and  C_7
REMARK    2  A    between atoms: C_7  and  C_8
REMARK    3  A    between atoms: C_8  and  C_38
REMARK    4  A    between atoms: C_13  and  C_16
REMARK    5  A    between atoms: C_19  and  C_22
REMARK    6  A    between atoms: C_23  and  C_24
REMARK    7  A    between atoms: N_32  and  C_35
REMARK    8  A    between atoms: C_35  and  C_36
REMARK    9  A    between atoms: C_36  and  O_37
REMARK                            x       y       z     vdW  Elec       q    Type
REMARK                         _______ _______ _______ _____ _____    ______ ____
ROOT
ATOM      1  C   UNL     1       4.171  -0.963   1.399  0.00  0.00    +0.052 C 
ATOM      2  C   UNL     1       5.607  -1.528   1.411  0.00  0.00    +0.086 C 
ATOM      3  C   UNL     1       6.521  -0.290   1.613  0.00  0.00    +0.077 C 
ATOM      4  C   UNL     1       5.552   0.909   1.688  0.00  0.00    -0.027 C 
ATOM      5  N   UNL     1       4.263   0.316   2.149  0.00  0.00    +0.396 N 
ATOM      6  C   UNL     1       7.142  -0.532   2.970  0.00  0.00    +0.224 C 
ATOM      7  O   UNL     1       7.931   0.205   3.521  0.00  0.00    -0.275 OA
ATOM      8  N   UNL     1       6.684  -1.686   3.469  0.00  0.00    -0.240 N 
ATOM      9  C   UNL     1       5.811  -2.342   2.669  0.00  0.00    +0.225 C 
ATOM     10  O   UNL     1       5.276  -3.402   2.913  0.00  0.00    -0.275 OA
ATOM     11  H   UNL     1       3.494   0.922   1.907  0.00  0.00    -0.083 HD
ATOM     12  H   UNL     1       4.279   0.142   3.143  0.00  0.00    -0.083 HD
ENDROOT
BRANCH   4  13
ATOM     13  C   UNL     1       6.041   1.917   2.696  0.00  0.00    -0.061 A 
ATOM     14  C   UNL     1       5.820   1.704   4.045  0.00  0.00    +0.002 A 
ATOM     15  C   UNL     1       6.265   2.622   4.973  0.00  0.00    +0.008 A 
ATOM     16  C   UNL     1       6.941   3.769   4.548  0.00  0.00    -0.025 A 
ATOM     17  C   UNL     1       7.160   3.977   3.184  0.00  0.00    +0.008 A 
ATOM     18  C   UNL     1       6.714   3.048   2.268  0.00  0.00    +0.002 A 
BRANCH  16  19
ATOM     19  C   UNL     1       7.419   4.755   5.534  0.00  0.00    +0.008 C 
ATOM     20  C   UNL     1       8.068   5.856   5.122  0.00  0.00    +0.008 C 
BRANCH  20  21
ATOM     21  C   UNL     1       8.546   6.841   6.108  0.00  0.00    -0.025 A 
ATOM     22  C   UNL     1       8.331   6.631   7.473  0.00  0.00    +0.008 A 
ATOM     23  C   UNL     1       8.782   7.557   8.389  0.00  0.00    +0.001 A 
ATOM     24  C   UNL     1       9.445   8.693   7.960  0.00  0.00    +0.000 A 
ATOM     25  C   UNL     1       9.662   8.909   6.611  0.00  0.00    +0.001 A 
ATOM     26  C   UNL     1       9.221   7.988   5.683  0.00  0.00    +0.008 A 
ENDBRANCH  20  21
ENDBRANCH  16  19
ENDBRANCH   4  13
BRANCH   1  27
ATOM     27  C   UNL     1       3.226  -1.911   2.091  0.00  0.00    +0.347 C 
ATOM     28  O   UNL     1       3.062  -3.037   1.653  0.00  0.00    -0.248 OA
ATOM     29  O   UNL     1       2.625  -1.552   3.089  0.00  0.00    -0.248 OA
ENDBRANCH   1  27
BRANCH   1  30
ATOM     30  C   UNL     1       3.711  -0.707  -0.038  0.00  0.00    +0.035 C 
BRANCH  30  34
ATOM     31  C   UNL     1      -0.017   1.378   0.010  0.00  0.00    +0.000 A 
ATOM     32  C   UNL     1       1.171   2.086   0.002  0.00  0.00    +0.000 A 
ATOM     33  C   UNL     1       2.377   1.411  -0.013  0.00  0.00    +0.003 A 
ATOM     34  C   UNL     1       2.396   0.029  -0.020  0.00  0.00    -0.048 A 
ATOM     35  C   UNL     1       1.208  -0.679  -0.012  0.00  0.00    +0.003 A 
ATOM     36  C   UNL     1       0.002  -0.004   0.002  0.00  0.00    +0.000 A 
ENDBRANCH  30  34
ENDBRANCH   1  30
BRANCH   8  37
ATOM     37  C   UNL     1       7.098  -2.204   4.775  0.00  0.00    +0.144 C 
BRANCH  37  38
ATOM     38  C   UNL     1       6.149  -1.681   5.856  0.00  0.00    +0.175 C 
BRANCH  38  39
ATOM     39  O   UNL     1       4.840  -2.210   5.637  0.00  0.00    -0.393 OA
ATOM     40  H   UNL     1       4.185  -1.919   6.286  0.00  0.00    +0.209 HD
ENDBRANCH  38  39
ENDBRANCH  37  38
ENDBRANCH   8  37
TORSDOF 9
