REMARK  Name = ZINC34829629
REMARK  7 active torsions:
REMARK  status: ('A' for Active; 'I' for Inactive)
REMARK    1  A    between atoms: C_1  and  C_2
REMARK    2  A    between atoms: C_9  and  C_11
REMARK    3  A    between atoms: C_13  and  C_15
REMARK    4  A    between atoms: C_15  and  N_16
REMARK    5  A    between atoms: C_24  and  C_26
REMARK    6  A    between atoms: C_29  and  O_32
REMARK    7  A    between atoms: O_32  and  C_33
REMARK                            x       y       z     vdW  Elec       q    Type
REMARK                         _______ _______ _______ _____ _____    ______ ____
ROOT
ATOM      1  N   UNL     1      -0.053  -5.013  -3.047  0.00  0.00    +0.393 N 
ATOM      2  C   UNL     1       0.548  -4.604  -4.324  0.00  0.00    -0.072 C 
ATOM      3  C   UNL     1      -0.350  -5.090  -5.475  0.00  0.00    +0.024 C 
ATOM      4  C   UNL     1      -0.690  -6.520  -5.208  0.00  0.00    -0.010 A 
ATOM      5  C   UNL     1      -0.505  -7.190  -4.035  0.00  0.00    -0.047 A 
ATOM      6  C   UNL     1      -0.893  -8.527  -4.016  0.00  0.00    +0.010 A 
ATOM      7  C   UNL     1      -1.424  -9.094  -5.125  0.00  0.00    +0.045 A 
ATOM      8  S   UNL     1      -1.403  -7.731  -6.282  0.00  0.00    -0.101 S 
ATOM      9  C   UNL     1       0.096  -6.458  -2.840  0.00  0.00    -0.005 C 
ATOM     10  H   UNL     1      -1.034  -4.778  -3.053  0.00  0.00    -0.080 HD
ENDROOT
BRANCH   9  11
ATOM     11  C   UNL     1      -0.628  -6.865  -1.582  0.00  0.00    -0.056 A 
ATOM     12  C   UNL     1      -1.858  -6.309  -1.283  0.00  0.00    +0.006 A 
ATOM     13  C   UNL     1      -2.523  -6.681  -0.131  0.00  0.00    +0.046 A 
ATOM     14  C   UNL     1      -1.956  -7.612   0.727  0.00  0.00    +0.120 A 
ATOM     15  C   UNL     1      -0.722  -8.168   0.425  0.00  0.00    +0.046 A 
ATOM     16  C   UNL     1      -0.063  -7.798  -0.732  0.00  0.00    +0.006 A 
BRANCH  14  17
ATOM     17  O   UNL     1      -2.608  -7.978   1.862  0.00  0.00    -0.495 OA
ATOM     18  C   UNL     1      -1.964  -8.942   2.697  0.00  0.00    +0.277 C 
ENDBRANCH  14  17
ENDBRANCH   9  11
BRANCH   1  19
ATOM     19  C   UNL     1       0.610  -4.296  -1.950  0.00  0.00    +0.020 C 
BRANCH  19  29
ATOM     20  C   UNL     1       0.003   1.527  -0.003  0.00  0.00    +0.029 C 
ATOM     21  C   UNL     1       0.013  -0.003  -0.005  0.00  0.00    +0.090 C 
ATOM     22  C   UNL     1       0.631  -0.512  -1.314  0.00  0.00    +0.130 C 
ATOM     23  N   UNL     1       0.870  -1.956  -1.189  0.00  0.00    -0.300 N 
ATOM     24  C   UNL     1       1.681  -2.446  -0.065  0.00  0.00    +0.126 C 
ATOM     25  C   UNL     1       1.063  -1.937   1.243  0.00  0.00    +0.127 C 
ATOM     26  N   UNL     1       0.820  -0.492   1.121  0.00  0.00    -0.295 N 
ATOM     27  C   UNL     1       1.333   0.368   2.023  0.00  0.00    +0.231 C 
ATOM     28  O   UNL     1       1.046   1.545   1.968  0.00  0.00    -0.274 OA
ATOM     29  C   UNL     1       0.356  -2.817  -2.090  0.00  0.00    +0.199 C 
ATOM     30  O   UNL     1      -0.311  -2.401  -3.014  0.00  0.00    -0.278 OA
BRANCH  27  31
ATOM     31  C   UNL     1       2.261  -0.133   3.099  0.00  0.00    +0.204 C 
ATOM     32 CL   UNL     1       2.773   1.247   4.141  0.00  0.00    -0.116 Cl
ENDBRANCH  27  31
ENDBRANCH  19  29
ENDBRANCH   1  19
TORSDOF 5
