REMARK  Name = ZINC24895483
REMARK  10 active torsions:
REMARK  status: ('A' for Active; 'I' for Inactive)
REMARK    1  A    between atoms: C_1  and  O_2
REMARK    2  A    between atoms: O_2  and  C_3
REMARK    3  A    between atoms: C_8  and  N_9
REMARK    4  A    between atoms: N_9  and  S_10
REMARK    5  A    between atoms: S_10  and  C_13
REMARK    6  A    between atoms: C_16  and  O_36
REMARK    7  A    between atoms: C_17  and  N_19
REMARK    8  A    between atoms: C_20  and  C_22
REMARK    9  A    between atoms: C_22  and  C_23
REMARK   10  A    between atoms: C_32  and  O_35
REMARK                            x       y       z     vdW  Elec       q    Type
REMARK                         _______ _______ _______ _____ _____    ______ ____
ROOT
ATOM      1  C   UNL     1      -1.777   0.519   5.019  0.00  0.00    +0.110 A 
ATOM      2  C   UNL     1      -2.770  -0.339   5.455  0.00  0.00    +0.032 A 
ATOM      3  C   UNL     1      -2.495  -1.286   6.424  0.00  0.00    +0.049 A 
ATOM      4  C   UNL     1      -1.224  -1.370   6.970  0.00  0.00    +0.138 A 
ATOM      5  C   UNL     1      -0.225  -0.502   6.536  0.00  0.00    +0.077 A 
ATOM      6  C   UNL     1      -0.507   0.441   5.559  0.00  0.00    +0.055 A 
ENDROOT
BRANCH   5   7
ATOM      7  N   UNL     1       1.062  -0.583   7.084  0.00  0.00    -0.283 N 
ATOM      8  C   UNL     1       1.799   0.535   7.242  0.00  0.00    +0.218 C 
ATOM      9  O   UNL     1       1.383   1.598   6.832  0.00  0.00    -0.275 OA
ATOM     10  H   UNL     1       1.472  -1.558   7.385  0.00  0.00    +0.155 HD
BRANCH   8  11
ATOM     11  C   UNL     1       3.138   0.464   7.929  0.00  0.00    +0.103 C 
BRANCH  11  12
ATOM     12  C   UNL     1       3.761   1.860   7.977  0.00  0.00    -0.018 C 
ATOM     13  C   UNL     1       3.946   2.386   6.552  0.00  0.00    +0.011 C 
ATOM     14  C   UNL     1       4.569   3.783   6.601  0.00  0.00    -0.007 C 
ATOM     15  C   UNL     1       3.647   4.726   7.377  0.00  0.00    +0.007 C 
ATOM     16  C   UNL     1       3.462   4.200   8.802  0.00  0.00    -0.007 C 
ATOM     17  C   UNL     1       2.840   2.803   8.753  0.00  0.00    +0.011 C 
ATOM     18  C   UNL     1       4.822   4.128   9.499  0.00  0.00    +0.038 C 
ATOM     19  C   UNL     1       5.744   3.185   8.723  0.00  0.00    +0.067 C 
ATOM     20  C   UNL     1       5.929   3.711   7.298  0.00  0.00    +0.038 C 
ATOM     21  C   UNL     1       5.121   1.788   8.675  0.00  0.00    +0.042 C 
BRANCH  19  22
ATOM     22  O   UNL     1       7.014   3.118   9.374  0.00  0.00    -0.389 OA
ATOM     23  H   UNL     1       7.812   2.485   8.959  0.00  0.00    +0.210 HD
ENDBRANCH  19  22
ENDBRANCH  11  12
ENDBRANCH   8  11
ENDBRANCH   5   7
BRANCH   1  24
ATOM     24  S   UNL     1      -2.133   1.718   3.779  0.00  0.00    +0.073 S 
ATOM     25  O   UNL     1      -1.184   2.763   3.940  0.00  0.00    -0.150 OA
ATOM     26  O   UNL     1      -3.534   1.948   3.827  0.00  0.00    -0.150 OA
BRANCH  24  27
ATOM     27  N   UNL     1      -1.819   1.015   2.313  0.00  0.00    -0.213 N 
ATOM     28  H   UNL     1      -1.063   1.452   1.643  0.00  0.00    +0.174 HD
BRANCH  27  34
ATOM     29  C   UNL     1      -1.873  -1.122   1.179  0.00  0.00    +0.142 A 
ATOM     30  C   UNL     1      -2.564  -2.262   0.803  0.00  0.00    +0.047 A 
ATOM     31  C   UNL     1      -3.890  -2.417   1.164  0.00  0.00    +0.004 A 
ATOM     32  C   UNL     1      -4.529  -1.437   1.900  0.00  0.00    +0.002 A 
ATOM     33  C   UNL     1      -3.846  -0.297   2.280  0.00  0.00    +0.028 A 
ATOM     34  C   UNL     1      -2.514  -0.137   1.925  0.00  0.00    +0.090 A 
BRANCH  29  36
ATOM     35  C   UNL     1       0.026  -2.022   0.064  0.00  0.00    +0.277 C 
ATOM     36  O   UNL     1      -0.569  -0.968   0.824  0.00  0.00    -0.493 OA
ENDBRANCH  29  36
ENDBRANCH  27  34
ENDBRANCH  24  27
ENDBRANCH   1  24
BRANCH   4  37
ATOM     37  O   UNL     1      -0.954  -2.296   7.928  0.00  0.00    -0.505 OA
ATOM     38  H   UNL     1       0.056  -2.362   8.360  0.00  0.00    +0.292 HD
ENDBRANCH   4  37
TORSDOF 9
