REMARK  Name = ZINC13759230
REMARK  4 active torsions:
REMARK  status: ('A' for Active; 'I' for Inactive)
REMARK    1  A    between atoms: C_1  and  C_2
REMARK    2  A    between atoms: C_3  and  C_12
REMARK    3  A    between atoms: N_20  and  C_23
REMARK    4  A    between atoms: N_31  and  C_32
REMARK                            x       y       z     vdW  Elec       q    Type
REMARK                         _______ _______ _______ _____ _____    ______ ____
ROOT
ATOM      1  C   UNL     1      -0.006  -0.284  -2.528  0.00  0.00    +0.159 C 
ATOM      2  C   UNL     1      -1.379   0.269  -2.893  0.00  0.00    +0.145 C 
ATOM      3  C   UNL     1      -0.889   1.352  -3.929  0.00  0.00    +0.249 C 
ATOM      4  C   UNL     1      -2.110   1.630  -4.657  0.00  0.00    +0.259 C 
ATOM      5  O   UNL     1      -2.454   2.688  -5.140  0.00  0.00    -0.272 OA
ATOM      6  N   UNL     1      -2.795   0.443  -4.683  0.00  0.00    -0.208 N 
ATOM      7  C   UNL     1      -2.288  -0.492  -3.807  0.00  0.00    +0.235 C 
ATOM      8  O   UNL     1      -2.519  -1.682  -3.779  0.00  0.00    -0.274 OA
ATOM      9  O   UNL     1       0.113   1.988  -3.250  0.00  0.00    -0.257 OA
ATOM     10  N   UNL     1       0.901   0.889  -2.693  0.00  0.00    -0.244 N 
ENDROOT
BRANCH   1  13
ATOM     11  C   UNL     1      -0.018   1.503   0.010  0.00  0.00    +0.063 C 
ATOM     12  C   UNL     1       0.002  -0.004   0.002  0.00  0.00    +0.019 A 
ATOM     13  C   UNL     1       0.007  -0.769  -1.101  0.00  0.00    +0.006 A 
ATOM     14  C   UNL     1       0.029  -2.164  -0.655  0.00  0.00    +0.005 A 
ATOM     15  C   UNL     1       0.043  -3.394  -1.316  0.00  0.00    +0.010 A 
ATOM     16  C   UNL     1       0.063  -4.552  -0.593  0.00  0.00    +0.001 A 
ATOM     17  C   UNL     1       0.070  -4.517   0.795  0.00  0.00    +0.002 A 
ATOM     18  C   UNL     1       0.056  -3.315   1.468  0.00  0.00    +0.026 A 
ATOM     19  C   UNL     1       0.036  -2.122   0.751  0.00  0.00    +0.047 A 
ATOM     20  N   UNL     1       0.024  -0.795   1.118  0.00  0.00    -0.358 N 
ATOM     21  H   UNL     1       0.029  -0.470   2.032  0.00  0.00    +0.166 HD
ENDBRANCH   1  13
BRANCH   6  22
ATOM     22  C   UNL     1      -3.905   0.205  -5.506  0.00  0.00    +0.044 A 
ATOM     23  C   UNL     1      -4.547  -1.025  -5.469  0.00  0.00    +0.025 A 
ATOM     24  C   UNL     1      -5.641  -1.256  -6.280  0.00  0.00    +0.017 A 
ATOM     25  C   UNL     1      -6.096  -0.264  -7.130  0.00  0.00    +0.018 A 
ATOM     26  C   UNL     1      -5.457   0.963  -7.169  0.00  0.00    +0.017 A 
ATOM     27  C   UNL     1      -4.367   1.202  -6.355  0.00  0.00    +0.025 A 
ATOM     28 BR   UNL     1      -7.593  -0.585  -8.240  0.00  0.00    -0.050 Br
ENDBRANCH   6  22
BRANCH  10  29
ATOM     29  C   UNL     1       2.257   0.930  -2.363  0.00  0.00    +0.065 A 
ATOM     30  C   UNL     1       2.879  -0.194  -1.834  0.00  0.00    +0.028 A 
ATOM     31  C   UNL     1       4.221  -0.150  -1.509  0.00  0.00    +0.002 A 
ATOM     32  C   UNL     1       4.945   1.011  -1.710  0.00  0.00    +0.000 A 
ATOM     33  C   UNL     1       4.329   2.131  -2.237  0.00  0.00    +0.002 A 
ATOM     34  C   UNL     1       2.989   2.093  -2.569  0.00  0.00    +0.028 A 
ENDBRANCH  10  29
TORSDOF 3
