REMARK  Name = ZINC01509581
REMARK  3 active torsions:
REMARK  status: ('A' for Active; 'I' for Inactive)
REMARK    1  A    between atoms: C_4  and  C_7
REMARK    2  A    between atoms: C_20  and  C_22
REMARK    3  A    between atoms: C_25  and  N_28
REMARK                            x       y       z     vdW  Elec       q    Type
REMARK                         _______ _______ _______ _____ _____    ______ ____
ROOT
ATOM      1  C   UNL     1      -2.415   3.845  -0.088  0.00  0.00    +0.139 C 
ATOM      2  C   UNL     1      -2.829   3.640   1.336  0.00  0.00    -0.000 A 
ATOM      3  C   UNL     1      -2.551   4.691   2.208  0.00  0.00    +0.023 A 
ATOM      4  C   UNL     1      -2.879   4.620   3.544  0.00  0.00    +0.018 A 
ATOM      5  C   UNL     1      -3.497   3.482   4.032  0.00  0.00    +0.017 A 
ATOM      6  C   UNL     1      -3.778   2.442   3.179  0.00  0.00    +0.025 A 
ATOM      7  C   UNL     1      -3.449   2.503   1.814  0.00  0.00    +0.039 A 
ATOM      8  N   UNL     1      -3.790   1.391   1.082  0.00  0.00    -0.284 N 
ATOM      9  C   UNL     1      -3.919   1.087  -0.177  0.00  0.00    +0.235 C 
ATOM     10  O   UNL     1      -4.586   0.108  -0.436  0.00  0.00    -0.274 OA
ATOM     11  C   UNL     1      -3.327   1.822  -1.336  0.00  0.00    +0.205 C 
ATOM     12  N   UNL     1      -3.292   3.248  -1.060  0.00  0.00    -0.278 N 
ATOM     13  C   UNL     1      -4.123   4.053  -1.750  0.00  0.00    +0.248 C 
ATOM     14  O   UNL     1      -4.056   5.258  -1.612  0.00  0.00    -0.270 OA
ATOM     15 BR   UNL     1      -2.488   6.064   4.701  0.00  0.00    -0.050 Br
ATOM     16  H   UNL     1      -3.987   0.633   1.654  0.00  0.00    +0.155 HD
ENDROOT
BRANCH   1  20
ATOM     17  C   UNL     1       1.496   2.208  -0.609  0.00  0.00    +0.000 A 
ATOM     18  C   UNL     1       1.268   3.547  -0.862  0.00  0.00    +0.000 A 
ATOM     19  C   UNL     1       0.004   4.078  -0.688  0.00  0.00    +0.006 A 
ATOM     20  C   UNL     1      -1.035   3.267  -0.271  0.00  0.00    -0.023 A 
ATOM     21  C   UNL     1      -0.808   1.927  -0.019  0.00  0.00    +0.006 A 
ATOM     22  C   UNL     1       0.458   1.397  -0.188  0.00  0.00    +0.000 A 
ENDBRANCH   1  20
BRANCH  13  23
ATOM     23  C   UNL     1      -5.117   3.470  -2.676  0.00  0.00    +0.037 A 
ATOM     24  C   UNL     1      -5.303   4.023  -3.944  0.00  0.00    +0.015 A 
ATOM     25  C   UNL     1      -6.228   3.470  -4.806  0.00  0.00    +0.033 A 
ATOM     26  C   UNL     1      -6.979   2.377  -4.411  0.00  0.00    +0.126 A 
ATOM     27  C   UNL     1      -6.803   1.827  -3.153  0.00  0.00    +0.033 A 
ATOM     28  C   UNL     1      -5.878   2.367  -2.284  0.00  0.00    +0.015 A 
BRANCH  26  29
ATOM     29  N   UNL     1      -7.974   1.793  -5.338  0.00  0.00    +0.056 N 
ATOM     30  O   UNL     1      -8.637   0.831  -4.993  0.00  0.00    -0.126 OA
ATOM     31  O   UNL     1      -8.131   2.275  -6.445  0.00  0.00    -0.126 OA
ENDBRANCH  26  29
ENDBRANCH  13  23
TORSDOF 3
