REMARK  Name = ZINC40172661
REMARK  13 active torsions:
REMARK  status: ('A' for Active; 'I' for Inactive)
REMARK    1  A    between atoms: C_1  and  C_2
REMARK    2  A    between atoms: C_2  and  C_3
REMARK    3  A    between atoms: C_3  and  C_5
REMARK    4  A    between atoms: C_3  and  N_20
REMARK    5  A    between atoms: N_7  and  C_8
REMARK    6  A    between atoms: C_11  and  S_14
REMARK    7  A    between atoms: S_14  and  N_17
REMARK    8  A    between atoms: N_17  and  C_18
REMARK    9  A    between atoms: N_17  and  C_19
REMARK   10  A    between atoms: C_24  and  S_25
REMARK   11  A    between atoms: S_25  and  C_26
REMARK   12  A    between atoms: C_26  and  C_27
REMARK   13  A    between atoms: C_27  and  C_28
REMARK                            x       y       z     vdW  Elec       q    Type
REMARK                         _______ _______ _______ _____ _____    ______ ____
ROOT
ATOM      1  C   UNL     1       0.630  -0.459  -0.668  0.00  0.00    +0.178 C 
ENDROOT
BRANCH   1   2
ATOM      2  N   UNL     1       0.386  -1.893  -0.847  0.00  0.00    -0.279 N 
ATOM      3  C   UNL     1       0.755  -2.884   0.017  0.00  0.00    +0.216 A 
ATOM      4  N   UNL     1       0.363  -4.028  -0.488  0.00  0.00    -0.113 NA
ATOM      5  N   UNL     1      -0.275  -3.768  -1.707  0.00  0.00    -0.121 NA
ATOM      6  C   UNL     1      -0.256  -2.472  -1.905  0.00  0.00    +0.194 A 
ATOM      7  N   UNL     1       1.429  -2.711   1.219  0.00  0.00    -0.328 N 
ATOM      8  H   UNL     1       1.680  -1.820   1.510  0.00  0.00    +0.145 HD
ATOM      9  H   UNL     1       1.649  -3.480   1.767  0.00  0.00    +0.145 HD
BRANCH   6  10
ATOM     10  S   UNL     1      -0.936  -1.626  -3.294  0.00  0.00    -0.086 S 
BRANCH  10  11
ATOM     11  C   UNL     1      -1.635  -2.952  -4.316  0.00  0.00    +0.082 C 
BRANCH  11  12
ATOM     12  C   UNL     1      -2.266  -2.348  -5.572  0.00  0.00    +0.046 C 
BRANCH  12  13
ATOM     13  C   UNL     1      -2.846  -3.449  -6.422  0.00  0.00    -0.047 A 
ATOM     14  C   UNL     1      -2.067  -4.064  -7.383  0.00  0.00    +0.003 A 
ATOM     15  C   UNL     1      -2.599  -5.074  -8.163  0.00  0.00    +0.000 A 
ATOM     16  C   UNL     1      -3.911  -5.470  -7.980  0.00  0.00    +0.000 A 
ATOM     17  C   UNL     1      -4.690  -4.855  -7.018  0.00  0.00    +0.000 A 
ATOM     18  C   UNL     1      -4.157  -3.848  -6.236  0.00  0.00    +0.003 A 
ENDBRANCH  12  13
ENDBRANCH  11  12
ENDBRANCH  10  11
ENDBRANCH   6  10
ENDBRANCH   1   2
BRANCH   1  19
ATOM     19  C   UNL     1       2.114  -0.209  -0.582  0.00  0.00    +0.240 C 
ATOM     20  O   UNL     1       2.852  -1.079  -0.169  0.00  0.00    -0.273 OA
ATOM     21  N   UNL     1       2.620   0.980  -0.963  0.00  0.00    -0.284 N 
ATOM     22  H   UNL     1       2.044   1.642  -1.377  0.00  0.00    +0.155 HD
BRANCH  21  23
ATOM     23  C   UNL     1       3.976   1.261  -0.760  0.00  0.00    +0.034 A 
ATOM     24  C   UNL     1       4.912   0.236  -0.802  0.00  0.00    +0.025 A 
ATOM     25  C   UNL     1       6.250   0.516  -0.602  0.00  0.00    +0.030 A 
ATOM     26  C   UNL     1       6.657   1.815  -0.360  0.00  0.00    +0.106 A 
ATOM     27  C   UNL     1       5.727   2.838  -0.318  0.00  0.00    +0.030 A 
ATOM     28  C   UNL     1       4.389   2.565  -0.523  0.00  0.00    +0.025 A 
BRANCH  26  29
ATOM     29  S   UNL     1       8.364   2.168  -0.106  0.00  0.00    +0.060 S 
ATOM     30  O   UNL     1       8.422   3.376   0.642  0.00  0.00    -0.153 OA
ATOM     31  O   UNL     1       8.965   0.963   0.347  0.00  0.00    -0.153 OA
BRANCH  29  32
ATOM     32  N   UNL     1       9.023   2.498  -1.589  0.00  0.00    -0.183 NA
ATOM     33  C   UNL     1       9.037   3.873  -2.095  0.00  0.00    +0.131 C 
ATOM     34  C   UNL     1       9.591   1.415  -2.395  0.00  0.00    +0.131 C 
ENDBRANCH  29  32
ENDBRANCH  26  29
ENDBRANCH  21  23
ENDBRANCH   1  19
BRANCH   1  36
ATOM     35  C   UNL     1      -1.562  -0.057   0.461  0.00  0.00    +0.006 C 
ATOM     36  C   UNL     1      -0.043   0.015   0.622  0.00  0.00    +0.031 C 
ENDBRANCH   1  36
TORSDOF 10
