REMARK  Name = ZINC12156276
REMARK  10 active torsions:
REMARK  status: ('A' for Active; 'I' for Inactive)
REMARK    1  A    between atoms: C_1  and  C_2
REMARK    2  A    between atoms: C_2  and  O_3
REMARK    3  A    between atoms: O_3  and  C_4
REMARK    4  A    between atoms: C_4  and  C_6
REMARK    5  A    between atoms: C_7  and  C_21
REMARK    6  A    between atoms: C_12  and  C_14
REMARK    7  A    between atoms: C_21  and  S_22
REMARK    8  A    between atoms: S_22  and  C_23
REMARK    9  A    between atoms: C_27  and  C_29
REMARK   10  A    between atoms: C_29  and  C_30
REMARK                            x       y       z     vdW  Elec       q    Type
REMARK                         _______ _______ _______ _____ _____    ______ ____
ROOT
ATOM      1  C   UNL     1       1.330  -2.340  -2.530  0.00  0.00    +0.079 C 
ATOM      2  C   UNL     1       1.628  -3.654  -2.615  0.00  0.00    +0.034 C 
ATOM      3  N   UNL     1       2.352  -4.147  -3.663  0.00  0.00    -0.272 N 
ATOM      4  C   UNL     1       2.815  -3.390  -4.666  0.00  0.00    +0.304 C 
ATOM      5  O   UNL     1       3.451  -3.920  -5.556  0.00  0.00    -0.252 OA
ATOM      6  N   UNL     1       2.599  -2.061  -4.720  0.00  0.00    -0.288 N 
ATOM      7  C   UNL     1       1.822  -1.432  -3.639  0.00  0.00    +0.144 C 
ATOM      8  H   UNL     1       2.541  -5.098  -3.682  0.00  0.00    +0.156 HD
ATOM      9  H   UNL     1       2.945  -1.532  -5.456  0.00  0.00    +0.151 HD
ENDROOT
BRANCH   7  10
ATOM     10  C   UNL     1       2.682  -0.362  -3.017  0.00  0.00    -0.022 A 
ATOM     11  C   UNL     1       3.997  -0.637  -2.687  0.00  0.00    +0.007 A 
ATOM     12  C   UNL     1       4.786   0.343  -2.116  0.00  0.00    +0.020 A 
ATOM     13  C   UNL     1       4.261   1.600  -1.875  0.00  0.00    +0.041 A 
ATOM     14  C   UNL     1       2.945   1.875  -2.206  0.00  0.00    +0.020 A 
ATOM     15  C   UNL     1       2.159   0.895  -2.782  0.00  0.00    +0.007 A 
ATOM     16 CL   UNL     1       5.251   2.832  -1.158  0.00  0.00    -0.084 Cl
ENDBRANCH   7  10
BRANCH   1  17
ATOM     17  C   UNL     1       0.580  -1.828  -1.445  0.00  0.00    +0.339 C 
ATOM     18  O   UNL     1      -0.605  -1.590  -1.584  0.00  0.00    -0.245 OA
BRANCH  17  19
ATOM     19  O   UNL     1       1.179  -1.605  -0.257  0.00  0.00    -0.462 OA
BRANCH  19  21
ATOM     20  C   UNL     1       1.207  -0.901   2.055  0.00  0.00    +0.048 C 
ATOM     21  C   UNL     1       0.360  -1.087   0.794  0.00  0.00    +0.229 C 
ENDBRANCH  19  21
ENDBRANCH  17  19
ENDBRANCH   1  17
BRANCH   2  22
ATOM     22  C   UNL     1       1.153  -4.593  -1.536  0.00  0.00    +0.128 C 
BRANCH  22  23
ATOM     23  S   UNL     1      -0.251  -5.562  -2.152  0.00  0.00    -0.081 S 
BRANCH  23  24
ATOM     24  C   UNL     1      -0.684  -6.596  -0.793  0.00  0.00    +0.185 A 
ATOM     25  N   UNL     1      -1.680  -7.508  -0.773  0.00  0.00    -0.254 N 
ATOM     26  H   UNL     1      -2.290  -7.720  -1.497  0.00  0.00    +0.191 HD
ATOM     27  N   UNL     1      -1.657  -8.091   0.505  0.00  0.00    -0.157 NA
ATOM     28  C   UNL     1      -0.685  -7.522   1.166  0.00  0.00    +0.152 A 
ATOM     29  N   UNL     1      -0.091  -6.621   0.383  0.00  0.00    -0.206 NA
BRANCH  28  30
ATOM     30  C   UNL     1      -0.294  -7.837   2.587  0.00  0.00    +0.081 C 
BRANCH  30  31
ATOM     31  C   UNL     1       0.754  -8.952   2.591  0.00  0.00    -0.004 C 
ATOM     32  C   UNL     1       2.103  -8.431   2.036  0.00  0.00    +0.004 C 
ATOM     33  C   UNL     1       3.129  -9.411   2.657  0.00  0.00    +0.000 C 
ATOM     34  C   UNL     1       2.591  -9.672   4.079  0.00  0.00    +0.000 C 
ATOM     35  C   UNL     1       1.080  -9.381   4.037  0.00  0.00    +0.004 C 
ENDBRANCH  30  31
ENDBRANCH  28  30
ENDBRANCH  23  24
ENDBRANCH  22  23
ENDBRANCH   2  22
TORSDOF 9
