REMARK  Name = ZINC37188686
REMARK  14 active torsions:
REMARK  status: ('A' for Active; 'I' for Inactive)
REMARK    1  A    between atoms: C_1  and  C_2
REMARK    2  A    between atoms: C_2  and  C_4
REMARK    3  A    between atoms: C_2  and  N_13
REMARK    4  A    between atoms: C_7  and  O_11
REMARK    5  A    between atoms: O_11  and  C_12
REMARK    6  A    between atoms: N_13  and  C_14
REMARK    7  A    between atoms: C_14  and  C_15
REMARK    8  A    between atoms: C_15  and  N_16
REMARK    9  A    between atoms: N_16  and  C_17
REMARK   10  A    between atoms: N_16  and  C_20
REMARK   11  A    between atoms: C_17  and  C_18
REMARK   12  A    between atoms: C_17  and  C_19
REMARK   13  A    between atoms: C_20  and  C_21
REMARK   14  A    between atoms: C_20  and  C_22
REMARK                            x       y       z     vdW  Elec       q    Type
REMARK                         _______ _______ _______ _____ _____    ______ ____
ROOT
ATOM      1  N   UNL     1      -1.327   0.329   0.218  0.00  0.00    +0.382 N 
ATOM      2  H   UNL     1      -1.086  -0.646   0.310  0.00  0.00    -0.085 HD
ATOM      3  H   UNL     1      -1.875   0.617   1.015  0.00  0.00    -0.085 HD
ENDROOT
BRANCH   1   5
ATOM      4  C   UNL     1      -0.464   2.619   0.136  0.00  0.00    -0.009 C 
ATOM      5  C   UNL     1      -0.100   1.133   0.151  0.00  0.00    -0.044 C 
BRANCH   5   6
ATOM      6  C   UNL     1       0.760   0.838   1.353  0.00  0.00    -0.060 A 
ATOM      7  C   UNL     1       0.176   0.667   2.594  0.00  0.00    +0.005 A 
ATOM      8  C   UNL     1       0.962   0.397   3.698  0.00  0.00    +0.047 A 
ATOM      9  C   UNL     1       2.338   0.297   3.560  0.00  0.00    +0.134 A 
ATOM     10  C   UNL     1       2.923   0.469   2.313  0.00  0.00    +0.060 A 
ATOM     11  C   UNL     1       2.131   0.734   1.211  0.00  0.00    +0.021 A 
ATOM     12 BR   UNL     1       4.799   0.335   2.120  0.00  0.00    -0.047 Br
BRANCH   9  13
ATOM     13  O   UNL     1       3.114   0.032   4.644  0.00  0.00    -0.494 OA
ATOM     14  C   UNL     1       2.444  -0.133   5.896  0.00  0.00    +0.277 C 
ENDBRANCH   9  13
ENDBRANCH   5   6
ENDBRANCH   1   5
BRANCH   1  15
ATOM     15  C   UNL     1      -2.109   0.526  -1.010  0.00  0.00    -0.101 C 
BRANCH  15  16
ATOM     16  C   UNL     1      -3.388  -0.311  -0.940  0.00  0.00    -0.098 C 
BRANCH  16  17
ATOM     17  N   UNL     1      -4.237  -0.007  -2.100  0.00  0.00    +0.382 N 
ATOM     18  H   UNL     1      -4.401   0.987  -2.145  0.00  0.00    -0.081 HD
BRANCH  17  19
ATOM     19  C   UNL     1      -3.563  -0.448  -3.329  0.00  0.00    -0.075 C 
ATOM     20  C   UNL     1      -3.840  -1.935  -3.557  0.00  0.00    -0.014 C 
ATOM     21  C   UNL     1      -4.092   0.357  -4.518  0.00  0.00    -0.014 C 
ENDBRANCH  17  19
BRANCH  17  22
ATOM     22  C   UNL     1      -5.520  -0.710  -1.966  0.00  0.00    -0.075 C 
ATOM     23  C   UNL     1      -6.154  -0.361  -0.618  0.00  0.00    -0.014 C 
ATOM     24  C   UNL     1      -6.457  -0.281  -3.097  0.00  0.00    -0.014 C 
ENDBRANCH  17  22
ENDBRANCH  16  17
ENDBRANCH  15  16
ENDBRANCH   1  15
TORSDOF 8
