REMARK  Name = ZINC40476287
REMARK  10 active torsions:
REMARK  status: ('A' for Active; 'I' for Inactive)
REMARK    1  A    between atoms: C_1  and  C_2
REMARK    2  A    between atoms: C_2  and  C_3
REMARK    3  A    between atoms: C_3  and  C_4
REMARK    4  A    between atoms: C_4  and  C_5
REMARK    5  A    between atoms: C_5  and  S_6
REMARK    6  A    between atoms: S_6  and  C_7
REMARK    7  A    between atoms: C_17  and  C_19
REMARK    8  A    between atoms: C_22  and  N_25
REMARK    9  A    between atoms: C_31  and  C_33
REMARK   10  A    between atoms: C_31  and  C_34
REMARK                            x       y       z     vdW  Elec       q    Type
REMARK                         _______ _______ _______ _____ _____    ______ ____
ROOT
ATOM      1  C   UNL     1       2.326  -4.741  -4.025  0.00  0.00    +0.171 A 
ATOM      2  N   UNL     1       2.763  -3.774  -4.805  0.00  0.00    -0.185 NA
ATOM      3  C   UNL     1       3.410  -4.048  -5.948  0.00  0.00    +0.280 A 
ATOM      4  O   UNL     1       3.811  -3.140  -6.661  0.00  0.00    -0.265 OA
ATOM      5  C   UNL     1       3.625  -5.393  -6.323  0.00  0.00    +0.069 A 
ATOM      6  C   UNL     1       3.173  -6.382  -5.507  0.00  0.00    +0.111 A 
ATOM      7  N   UNL     1       2.522  -6.050  -4.348  0.00  0.00    -0.322 N 
ATOM      8  N   UNL     1       3.375  -7.701  -5.840  0.00  0.00    -0.304 N 
ATOM      9  C   UNL     1       4.333  -8.052  -6.753  0.00  0.00    +0.017 C 
ATOM     10  C   UNL     1       4.831  -7.139  -7.613  0.00  0.00    +0.024 C 
ATOM     11  C   UNL     1       4.338  -5.714  -7.604  0.00  0.00    +0.092 C 
ATOM     12  C   UNL     1       5.825  -7.488  -8.544  0.00  0.00    +0.162 C 
ATOM     13  O   UNL     1       6.247  -6.644  -9.309  0.00  0.00    -0.292 OA
ATOM     14  C   UNL     1       6.376  -8.886  -8.610  0.00  0.00    +0.086 C 
ATOM     15  C   UNL     1       6.274  -9.529  -7.223  0.00  0.00    -0.023 C 
ATOM     16  C   UNL     1       4.812  -9.483  -6.774  0.00  0.00    +0.058 C 
ATOM     17  C   UNL     1       7.141  -8.751  -6.231  0.00  0.00    +0.011 C 
ATOM     18  C   UNL     1       6.745 -10.983  -7.294  0.00  0.00    +0.011 C 
ATOM     19  H   UNL     1       2.834  -8.390  -5.423  0.00  0.00    +0.153 HD
ATOM     20  H   UNL     1       2.197  -6.748  -3.758  0.00  0.00    +0.169 HD
ENDROOT
BRANCH  11  21
ATOM     21  C   UNL     1       3.392  -5.511  -8.759  0.00  0.00    -0.035 A 
ATOM     22  C   UNL     1       2.217  -6.237  -8.827  0.00  0.00    +0.007 A 
ATOM     23  C   UNL     1       1.350  -6.051  -9.887  0.00  0.00    +0.033 A 
ATOM     24  C   UNL     1       1.656  -5.138 -10.878  0.00  0.00    +0.126 A 
ATOM     25  C   UNL     1       2.829  -4.411 -10.810  0.00  0.00    +0.033 A 
ATOM     26  C   UNL     1       3.695  -4.594  -9.748  0.00  0.00    +0.007 A 
BRANCH  24  27
ATOM     27  N   UNL     1       0.727  -4.939 -12.014  0.00  0.00    +0.056 N 
ATOM     28  O   UNL     1      -0.299  -5.576 -12.074  0.00  0.00    -0.126 OA
ATOM     29  O   UNL     1       0.995  -4.141 -12.881  0.00  0.00    -0.126 OA
ENDBRANCH  24  27
ENDBRANCH  11  21
BRANCH   1  30
ATOM     30  S   UNL     1       1.480  -4.335  -2.534  0.00  0.00    -0.088 S 
BRANCH  30  31
ATOM     31  C   UNL     1       1.455  -2.521  -2.524  0.00  0.00    +0.077 C 
BRANCH  31  32
ATOM     32  C   UNL     1       0.739  -2.027  -1.265  0.00  0.00    +0.011 C 
BRANCH  32  33
ATOM     33  C   UNL     1       0.718  -0.497  -1.257  0.00  0.00    +0.001 C 
BRANCH  33  35
ATOM     34  C   UNL     1      -0.019   1.526   0.010  0.00  0.00    +0.004 C 
ATOM     35  C   UNL     1       0.002  -0.004   0.002  0.00  0.00    -0.003 C 
ENDBRANCH  33  35
ENDBRANCH  32  33
ENDBRANCH  31  32
ENDBRANCH  30  31
ENDBRANCH   1  30
TORSDOF 7
