REMARK  Name = ZINC40152772
REMARK  10 active torsions:
REMARK  status: ('A' for Active; 'I' for Inactive)
REMARK    1  A    between atoms: C_1  and  C_2
REMARK    2  A    between atoms: C_2  and  C_3
REMARK    3  A    between atoms: C_2  and  C_4
REMARK    4  A    between atoms: C_2  and  C_5
REMARK    5  A    between atoms: C_8  and  C_11
REMARK    6  A    between atoms: C_11  and  N_12
REMARK    7  A    between atoms: N_12  and  C_13
REMARK    8  A    between atoms: C_14  and  C_16
REMARK    9  A    between atoms: C_20  and  N_23
REMARK   10  A    between atoms: C_21  and  N_22
REMARK                            x       y       z     vdW  Elec       q    Type
REMARK                         _______ _______ _______ _____ _____    ______ ____
ROOT
ATOM      1  N   UNL     1       2.664  -1.263  -5.793  0.00  0.00    -0.296 N 
ATOM      2  C   UNL     1       3.620  -0.218  -6.165  0.00  0.00    +0.132 C 
ATOM      3  C   UNL     1       1.579  -1.489  -6.561  0.00  0.00    +0.249 C 
ATOM      4  O   UNL     1       0.737  -2.289  -6.203  0.00  0.00    -0.270 OA
ENDROOT
BRANCH   3   5
ATOM      5  C   UNL     1       1.415  -0.765  -7.835  0.00  0.00    +0.062 A 
ATOM      6  C   UNL     1       2.501  -0.608  -8.700  0.00  0.00    +0.053 A 
ATOM      7  C   UNL     1       2.340   0.070  -9.890  0.00  0.00    +0.126 A 
ATOM      8  C   UNL     1       1.103   0.599 -10.233  0.00  0.00    +0.073 A 
ATOM      9  C   UNL     1       0.023   0.451  -9.388  0.00  0.00    +0.150 A 
ATOM     10  C   UNL     1       0.165  -0.235  -8.188  0.00  0.00    +0.068 A 
ATOM     11  F   UNL     1       3.391   0.221 -10.725  0.00  0.00    -0.205 F 
BRANCH  10  12
ATOM     12  N   UNL     1      -0.925  -0.389  -7.339  0.00  0.00    -0.356 N 
ATOM     13  H   UNL     1      -0.786  -0.489  -6.385  0.00  0.00    +0.142 HD
ATOM     14  H   UNL     1      -1.825  -0.398  -7.702  0.00  0.00    +0.142 HD
ENDBRANCH  10  12
BRANCH   9  15
ATOM     15  N   UNL     1      -1.292   1.020  -9.763  0.00  0.00    +0.058 N 
ATOM     16  O   UNL     1      -1.438   1.540 -10.845  0.00  0.00    -0.126 OA
ATOM     17  O   UNL     1      -2.218   0.963  -8.989  0.00  0.00    -0.126 OA
ENDBRANCH   9  15
ENDBRANCH   3   5
BRANCH   1  18
ATOM     18  C   UNL     1       2.886  -2.063  -4.586  0.00  0.00    +0.142 C 
BRANCH  18  22
ATOM     19  C   UNL     1       1.014  -0.162  -1.250  0.00  0.00    -0.042 A 
ATOM     20  C   UNL     1       0.310  -1.077  -2.008  0.00  0.00    +0.004 A 
ATOM     21  C   UNL     1       0.915  -1.693  -3.088  0.00  0.00    +0.005 A 
ATOM     22  C   UNL     1       2.225  -1.392  -3.409  0.00  0.00    -0.030 A 
ATOM     23  C   UNL     1       2.930  -0.475  -2.651  0.00  0.00    +0.005 A 
ATOM     24  C   UNL     1       2.323   0.143  -1.575  0.00  0.00    +0.004 A 
BRANCH  19  26
ATOM     25  C   UNL     1       0.338   2.023  -0.292  0.00  0.00    +0.015 C 
ATOM     26  C   UNL     1       0.354   0.509  -0.073  0.00  0.00    -0.013 C 
ATOM     27  C   UNL     1       1.136   0.187   1.202  0.00  0.00    +0.015 C 
ATOM     28  C   UNL     1      -1.081  -0.002   0.066  0.00  0.00    +0.015 C 
ENDBRANCH  19  26
ENDBRANCH  18  22
ENDBRANCH   1  18
TORSDOF 6
