REMARK  Name = ZINC35134079
REMARK  9 active torsions:
REMARK  status: ('A' for Active; 'I' for Inactive)
REMARK    1  A    between atoms: C_1  and  C_2
REMARK    2  A    between atoms: C_2  and  C_3
REMARK    3  A    between atoms: C_3  and  C_4
REMARK    4  A    between atoms: C_4  and  C_5
REMARK    5  A    between atoms: C_5  and  C_6
REMARK    6  A    between atoms: C_6  and  C_8
REMARK    7  A    between atoms: C_6  and  N_9
REMARK    8  A    between atoms: N_9  and  C_10
REMARK    9  A    between atoms: C_10  and  C_11
REMARK                            x       y       z     vdW  Elec       q    Type
REMARK                         _______ _______ _______ _____ _____    ______ ____
ROOT
ATOM      1  C   UNL     1       0.111  -6.023  -2.531  0.00  0.00    -0.046 C 
ENDROOT
BRANCH   1   2
ATOM      2  C   UNL     1      -1.299  -6.544  -2.644  0.00  0.00    -0.060 A 
ATOM      3  C   UNL     1      -2.075  -6.687  -1.508  0.00  0.00    +0.051 A 
ATOM      4  C   UNL     1      -3.371  -7.165  -1.609  0.00  0.00    +0.168 A 
ATOM      5  C   UNL     1      -3.890  -7.502  -2.857  0.00  0.00    +0.180 A 
ATOM      6  C   UNL     1      -3.107  -7.357  -3.991  0.00  0.00    +0.063 A 
ATOM      7  C   UNL     1      -1.815  -6.872  -3.883  0.00  0.00    +0.021 A 
ATOM      8 BR   UNL     1      -3.807  -7.812  -5.688  0.00  0.00    -0.046 Br
ATOM      9  O   UNL     1      -5.171  -7.943  -2.692  0.00  0.00    -0.451 OA
ATOM     10  C   UNL     1      -5.292  -8.259  -1.293  0.00  0.00    +0.466 C 
ATOM     11  O   UNL     1      -4.327  -7.395  -0.663  0.00  0.00    -0.453 OA
ENDBRANCH   1   2
BRANCH   1  12
ATOM     12  N   UNL     1       0.102  -4.558  -2.643  0.00  0.00    +0.383 N 
ATOM     13  H   UNL     1      -0.462  -4.168  -1.902  0.00  0.00    -0.085 HD
ATOM     14  H   UNL     1      -0.285  -4.292  -3.536  0.00  0.00    -0.085 HD
BRANCH  12  15
ATOM     15  C   UNL     1       1.476  -4.051  -2.532  0.00  0.00    -0.075 C 
ATOM     16  C   UNL     1       2.299  -4.543  -3.725  0.00  0.00    -0.014 C 
BRANCH  15  17
ATOM     17  C   UNL     1       1.455  -2.521  -2.524  0.00  0.00    -0.016 C 
BRANCH  17  18
ATOM     18  C   UNL     1       0.739  -2.027  -1.265  0.00  0.00    -0.002 C 
BRANCH  18  19
ATOM     19  C   UNL     1       0.718  -0.497  -1.257  0.00  0.00    -0.000 C 
BRANCH  19  21
ATOM     20  C   UNL     1      -0.019   1.526   0.010  0.00  0.00    +0.004 C 
ATOM     21  C   UNL     1       0.002  -0.004   0.002  0.00  0.00    -0.003 C 
ENDBRANCH  19  21
ENDBRANCH  18  19
ENDBRANCH  17  18
ENDBRANCH  15  17
ENDBRANCH  12  15
ENDBRANCH   1  12
TORSDOF 7
