REMARK  Name = ZINC01223244
REMARK  7 active torsions:
REMARK  status: ('A' for Active; 'I' for Inactive)
REMARK    1  A    between atoms: C_1  and  C_2
REMARK    2  A    between atoms: C_6  and  C_28
REMARK    3  A    between atoms: C_10  and  S_16
REMARK    4  A    between atoms: C_14  and  C_15
REMARK    5  A    between atoms: S_16  and  C_17
REMARK    6  A    between atoms: C_17  and  C_18
REMARK    7  A    between atoms: C_25  and  C_27
REMARK                            x       y       z     vdW  Elec       q    Type
REMARK                         _______ _______ _______ _____ _____    ______ ____
ROOT
ATOM      1  C   UNL     1       0.035   3.100   7.170  0.00  0.00    +0.044 C 
ATOM      2  C   UNL     1      -0.714   2.830   5.890  0.00  0.00    -0.047 A 
ATOM      3  C   UNL     1      -0.038   2.358   4.787  0.00  0.00    +0.013 A 
ATOM      4  C   UNL     1      -0.735   2.110   3.602  0.00  0.00    -0.000 A 
ATOM      5  C   UNL     1      -0.043   1.607   2.411  0.00  0.00    +0.017 A 
ATOM      6  C   UNL     1      -0.753   1.378   1.283  0.00  0.00    -0.005 A 
ATOM      7  C   UNL     1      -2.145   1.626   1.252  0.00  0.00    +0.165 A 
ATOM      8  N   UNL     1      -3.051   1.494   0.299  0.00  0.00    -0.128 NA
ATOM      9  N   UNL     1      -4.205   1.847   0.743  0.00  0.00    -0.122 NA
ATOM     10  C   UNL     1      -4.114   2.215   2.003  0.00  0.00    +0.197 A 
ATOM     11  N   UNL     1      -2.805   2.093   2.366  0.00  0.00    -0.270 N 
ATOM     12  C   UNL     1      -2.121   2.342   3.543  0.00  0.00    +0.058 A 
ATOM     13  C   UNL     1      -2.783   2.818   4.667  0.00  0.00    +0.030 A 
ATOM     14  C   UNL     1      -2.080   3.058   5.830  0.00  0.00    -0.046 A 
ATOM     15  C   UNL     1      -2.805   3.574   7.047  0.00  0.00    +0.044 C 
ATOM     16  C   UNL     1      -0.056   0.861   0.051  0.00  0.00    +0.047 C 
ENDROOT
BRANCH  10  17
ATOM     17  S   UNL     1      -5.435   2.778   3.024  0.00  0.00    -0.076 S 
BRANCH  17  18
ATOM     18  C   UNL     1      -6.811   2.656   1.855  0.00  0.00    +0.173 C 
BRANCH  18  19
ATOM     19  C   UNL     1      -8.084   3.100   2.528  0.00  0.00    +0.226 C 
ATOM     20  O   UNL     1      -8.062   3.463   3.685  0.00  0.00    -0.275 OA
ATOM     21  N   UNL     1      -9.245   3.094   1.845  0.00  0.00    -0.298 N 
ATOM     22  C   UNL     1      -9.268   2.785   0.409  0.00  0.00    +0.108 C 
ATOM     23  C   UNL     1     -10.272   1.647   0.170  0.00  0.00    +0.019 C 
ATOM     24  C   UNL     1     -11.632   2.045   0.748  0.00  0.00    +0.003 C 
ATOM     25  C   UNL     1     -11.503   2.264   2.257  0.00  0.00    +0.022 C 
ATOM     26  C   UNL     1     -10.513   3.403   2.521  0.00  0.00    +0.073 C 
ATOM     27  C   UNL     1     -10.272   3.538   4.026  0.00  0.00    +0.028 C 
ENDBRANCH  18  19
ENDBRANCH  17  18
ENDBRANCH  10  17
TORSDOF 3
