REMARK  Name = ZINC30836532
REMARK  1 active torsions:
REMARK  status: ('A' for Active; 'I' for Inactive)
REMARK    1  A    between atoms: C_7  and  N_15
REMARK                            x       y       z     vdW  Elec       q    Type
REMARK                         _______ _______ _______ _____ _____    ______ ____
ROOT
ATOM      1  C   UNL     1      -2.063  -0.189   3.602  0.00  0.00    +0.001 A 
ATOM      2  C   UNL     1      -3.445  -0.147   3.548  0.00  0.00    +0.004 A 
ATOM      3  C   UNL     1      -4.094  -0.344   2.347  0.00  0.00    +0.046 A 
ATOM      4  C   UNL     1      -3.363  -0.586   1.190  0.00  0.00    +0.134 A 
ATOM      5  C   UNL     1      -1.980  -0.629   1.247  0.00  0.00    +0.024 A 
ATOM      6  C   UNL     1      -1.333  -0.429   2.454  0.00  0.00    +0.010 A 
ATOM      7  C   UNL     1      -1.166  -0.888   0.008  0.00  0.00    +0.177 C 
ATOM      8  C   UNL     1      -1.989  -0.634  -1.225  0.00  0.00    +0.024 A 
ATOM      9  C   UNL     1      -1.353  -0.441  -2.438  0.00  0.00    +0.010 A 
ATOM     10  C   UNL     1      -2.091  -0.205  -3.582  0.00  0.00    +0.001 A 
ATOM     11  C   UNL     1      -3.472  -0.160  -3.516  0.00  0.00    +0.004 A 
ATOM     12  C   UNL     1      -4.112  -0.352  -2.309  0.00  0.00    +0.046 A 
ATOM     13  C   UNL     1      -3.372  -0.590  -1.157  0.00  0.00    +0.134 A 
ATOM     14  O   UNL     1      -4.018  -0.775   0.019  0.00  0.00    -0.455 OA
ENDROOT
BRANCH   7  15
ATOM     15  N   UNL     1       0.002  -0.004   0.002  0.00  0.00    -0.229 N 
ATOM     16  C   UNL     1       1.296  -0.388  -0.012  0.00  0.00    +0.176 A 
ATOM     17  S   UNL     1       1.875  -1.998  -0.027  0.00  0.00    -0.011 S 
ATOM     18  N   UNL     1       2.048   0.731  -0.014  0.00  0.00    -0.324 N 
ATOM     19  H   UNL     1       3.145   0.656  -0.025  0.00  0.00    +0.169 HD
ATOM     20  C   UNL     1       1.207   1.817   0.000  0.00  0.00    +0.220 A 
ATOM     21  N   UNL     1      -0.017   1.397   0.010  0.00  0.00    -0.159 NA
ENDBRANCH   7  15
TORSDOF 1
