REMARK  Name = ZINC06963607
REMARK  3 active torsions:
REMARK  status: ('A' for Active; 'I' for Inactive)
REMARK    1  A    between atoms: C_1  and  C_2
REMARK    2  A    between atoms: C_4  and  N_26
REMARK    3  A    between atoms: C_9  and  C_18
REMARK                            x       y       z     vdW  Elec       q    Type
REMARK                         _______ _______ _______ _____ _____    ______ ____
ROOT
ATOM      1  C   UNL     1      -1.346  -0.802  -0.408  0.00  0.00    +0.046 C 
ATOM      2  C   UNL     1      -0.045  -0.052  -0.278  0.00  0.00    -0.027 A 
ATOM      3  C   UNL     1       1.149  -0.742  -0.304  0.00  0.00    +0.038 A 
ATOM      4  C   UNL     1       2.342  -0.052  -0.185  0.00  0.00    +0.127 A 
ATOM      5  C   UNL     1       2.336   1.320  -0.042  0.00  0.00    +0.038 A 
ATOM      6  C   UNL     1       1.139   2.023  -0.015  0.00  0.00    -0.017 A 
ATOM      7  C   UNL     1      -0.056   1.334  -0.134  0.00  0.00    +0.034 A 
ATOM      8  N   UNL     1      -1.292   1.979  -0.108  0.00  0.00    -0.336 N 
ATOM      9  C   UNL     1      -1.205   3.369  -0.523  0.00  0.00    +0.106 C 
ATOM     10  C   UNL     1      -0.202   4.120   0.356  0.00  0.00    +0.029 C 
ATOM     11  C   UNL     1       1.202   3.514   0.140  0.00  0.00    +0.049 C 
ATOM     12  C   UNL     1       1.709   4.163  -1.127  0.00  0.00    -0.023 C 
ATOM     13  C   UNL     1       1.057   5.274  -1.365  0.00  0.00    -0.030 C 
ATOM     14  C   UNL     1       0.026   5.528  -0.284  0.00  0.00    +0.033 C 
ATOM     15  H   UNL     1      -1.975   1.473  -0.650  0.00  0.00    +0.147 HD
ENDROOT
BRANCH   9  16
ATOM     16  C   UNL     1      -2.560   4.019  -0.407  0.00  0.00    -0.007 A 
ATOM     17  C   UNL     1      -3.052   4.781  -1.450  0.00  0.00    +0.007 A 
ATOM     18  C   UNL     1      -4.294   5.378  -1.345  0.00  0.00    +0.002 A 
ATOM     19  C   UNL     1      -5.046   5.214  -0.196  0.00  0.00    +0.021 A 
ATOM     20  C   UNL     1      -4.555   4.452   0.848  0.00  0.00    +0.060 A 
ATOM     21  C   UNL     1      -3.313   3.848   0.740  0.00  0.00    +0.064 A 
ATOM     22 CL   UNL     1      -2.698   2.885   2.047  0.00  0.00    -0.082 Cl
ATOM     23 CL   UNL     1      -5.498   4.245   2.291  0.00  0.00    -0.082 Cl
ENDBRANCH   9  16
BRANCH   4  24
ATOM     24  N   UNL     1       3.627  -0.787  -0.211  0.00  0.00    +0.056 N 
ATOM     25  O   UNL     1       3.632  -1.999  -0.338  0.00  0.00    -0.126 OA
ATOM     26  O   UNL     1       4.677  -0.181  -0.107  0.00  0.00    -0.126 OA
ENDBRANCH   4  24
TORSDOF 2
