REMARK  Name = ZINC21105430
REMARK  10 active torsions:
REMARK  status: ('A' for Active; 'I' for Inactive)
REMARK    1  A    between atoms: C_1  and  C_2
REMARK    2  A    between atoms: C_2  and  O_3
REMARK    3  A    between atoms: O_3  and  C_4
REMARK    4  A    between atoms: C_7  and  N_10
REMARK    5  A    between atoms: C_11  and  N_21
REMARK    6  A    between atoms: N_21  and  C_22
REMARK    7  A    between atoms: C_25  and  O_30
REMARK    8  A    between atoms: C_27  and  O_28
REMARK    9  A    between atoms: O_28  and  C_29
REMARK   10  A    between atoms: O_30  and  C_31
REMARK                            x       y       z     vdW  Elec       q    Type
REMARK                         _______ _______ _______ _____ _____    ______ ____
ROOT
ATOM      1  N   UNL     1      -2.939   3.976  -0.276  0.00  0.00    -0.243 N 
ATOM      2  C   UNL     1      -4.149   3.165  -0.099  0.00  0.00    +0.217 C 
ATOM      3  C   UNL     1      -5.281   4.136   0.133  0.00  0.00    +0.092 A 
ATOM      4  C   UNL     1      -4.717   5.413   0.076  0.00  0.00    +0.062 A 
ATOM      5  C   UNL     1      -5.546   6.525   0.255  0.00  0.00    +0.016 A 
ATOM      6  C   UNL     1      -6.894   6.306   0.480  0.00  0.00    +0.020 A 
ATOM      7  C   UNL     1      -7.374   5.010   0.522  0.00  0.00    +0.111 A 
ATOM      8  N   UNL     1      -6.567   3.978   0.350  0.00  0.00    -0.256 NA
ATOM      9  C   UNL     1      -3.272   5.275  -0.178  0.00  0.00    +0.254 C 
ATOM     10  O   UNL     1      -2.493   6.202  -0.282  0.00  0.00    -0.270 OA
ENDROOT
BRANCH   1  14
ATOM     11  C   UNL     1       0.894   2.499  -0.989  0.00  0.00    +0.121 A 
ATOM     12  C   UNL     1      -0.189   1.633  -0.962  0.00  0.00    +0.047 A 
ATOM     13  C   UNL     1      -1.460   2.122  -0.730  0.00  0.00    +0.027 A 
ATOM     14  C   UNL     1      -1.652   3.480  -0.515  0.00  0.00    +0.039 A 
ATOM     15  C   UNL     1      -0.567   4.347  -0.542  0.00  0.00    +0.027 A 
ATOM     16  C   UNL     1       0.702   3.857  -0.778  0.00  0.00    +0.047 A 
BRANCH  11  17
ATOM     17  O   UNL     1       2.144   2.018  -1.221  0.00  0.00    -0.492 OA
BRANCH  17  19
ATOM     18  C   UNL     1       4.533   2.244  -1.510  0.00  0.00    +0.048 C 
ATOM     19  C   UNL     1       3.212   2.966  -1.236  0.00  0.00    +0.225 C 
ENDBRANCH  17  19
ENDBRANCH  11  17
ENDBRANCH   1  14
BRANCH   2  20
ATOM     20  N   UNL     1      -3.998   2.284   1.062  0.00  0.00    -0.318 N 
ATOM     21  H   UNL     1      -4.020   2.706   2.078  0.00  0.00    +0.148 HD
BRANCH  20  22
ATOM     22  C   UNL     1      -3.827   0.905   0.879  0.00  0.00    +0.073 A 
ATOM     23  C   UNL     1      -3.971   0.349  -0.383  0.00  0.00    +0.050 A 
ATOM     24  C   UNL     1      -3.796  -1.011  -0.565  0.00  0.00    +0.084 A 
ATOM     25  C   UNL     1      -3.488  -1.823   0.517  0.00  0.00    +0.142 A 
ATOM     26  C   UNL     1      -3.348  -1.272   1.782  0.00  0.00    +0.094 A 
ATOM     27  C   UNL     1      -3.517   0.091   1.966  0.00  0.00    +0.144 A 
ATOM     28 CL   UNL     1      -3.971  -1.704  -2.147  0.00  0.00    -0.080 Cl
BRANCH  27  29
ATOM     29  O   UNL     1      -3.381   0.633   3.206  0.00  0.00    -0.493 OA
ATOM     30  C   UNL     1      -3.063  -0.262   4.274  0.00  0.00    +0.277 C 
ENDBRANCH  27  29
BRANCH  25  31
ATOM     31  O   UNL     1      -3.322  -3.161   0.337  0.00  0.00    -0.494 OA
ATOM     32  C   UNL     1      -3.006  -3.937   1.495  0.00  0.00    +0.277 C 
ENDBRANCH  25  31
ENDBRANCH  20  22
ENDBRANCH   2  20
TORSDOF 7
