REMARK  Name = ZINC64059785
REMARK  9 active torsions:
REMARK  status: ('A' for Active; 'I' for Inactive)
REMARK    1  A    between atoms: C_1  and  C_2
REMARK    2  A    between atoms: C_2  and  N_3
REMARK    3  A    between atoms: N_6  and  C_9
REMARK    4  A    between atoms: C_12  and  N_16
REMARK    5  A    between atoms: C_13  and  C_15
REMARK    6  A    between atoms: N_16  and  C_17
REMARK    7  A    between atoms: C_17  and  C_19
REMARK    8  A    between atoms: C_17  and  C_20
REMARK    9  A    between atoms: C_20  and  C_22
REMARK                            x       y       z     vdW  Elec       q    Type
REMARK                         _______ _______ _______ _____ _____    ______ ____
ROOT
ATOM      1  N   UNL     1      -6.841  -5.505  -3.594  0.00  0.00    -0.334 N 
ATOM      2  H   UNL     1      -6.833  -6.450  -3.377  0.00  0.00    +0.147 HD
ENDROOT
BRANCH   1   6
ATOM      3  C   UNL     1      -4.442  -2.854  -1.448  0.00  0.00    +0.030 A 
ATOM      4  C   UNL     1      -5.252  -2.383  -2.473  0.00  0.00    +0.025 A 
ATOM      5  C   UNL     1      -6.046  -3.261  -3.184  0.00  0.00    +0.025 A 
ATOM      6  C   UNL     1      -6.035  -4.615  -2.874  0.00  0.00    +0.031 A 
ATOM      7  C   UNL     1      -5.225  -5.085  -1.849  0.00  0.00    -0.028 A 
ATOM      8  C   UNL     1      -4.426  -4.208  -1.143  0.00  0.00    +0.028 A 
ATOM      9  C   UNL     1      -5.213  -6.554  -1.513  0.00  0.00    +0.046 C 
BRANCH   3  13
ATOM     10  N   UNL     1      -2.905  -0.096   1.206  0.00  0.00    -0.300 NA
ATOM     11  C   UNL     1      -3.156  -1.485   1.614  0.00  0.00    +0.103 C 
ATOM     12  C   UNL     1      -2.862  -2.420   0.436  0.00  0.00    +0.120 C 
ATOM     13  N   UNL     1      -3.637  -1.964  -0.728  0.00  0.00    -0.327 N 
ATOM     14  C   UNL     1      -3.543  -0.548  -1.115  0.00  0.00    +0.120 C 
ATOM     15  C   UNL     1      -3.810   0.314   0.124  0.00  0.00    +0.103 C 
BRANCH  10  17
ATOM     16  C   UNL     1      -1.887   0.513   3.349  0.00  0.00    +0.020 C 
ATOM     17  C   UNL     1      -3.009   0.816   2.353  0.00  0.00    +0.081 C 
ENDBRANCH  10  17
ENDBRANCH   3  13
ENDBRANCH   1   6
BRANCH   1  18
ATOM     18  C   UNL     1      -7.696  -5.008  -4.675  0.00  0.00    +0.138 C 
ATOM     19  C   UNL     1      -9.020  -4.511  -4.090  0.00  0.00    +0.036 C 
BRANCH  18  20
ATOM     20  C   UNL     1      -7.965  -6.121  -5.654  0.00  0.00    +0.181 C 
ATOM     21  O   UNL     1      -7.816  -7.277  -5.315  0.00  0.00    -0.290 OA
BRANCH  20  22
ATOM     22  C   UNL     1      -8.391  -5.819  -6.966  0.00  0.00    +0.025 C 
ATOM     23  C   UNL     1      -8.684  -6.716  -7.977  0.00  0.00    +0.006 A 
ATOM     24  C   UNL     1      -8.661  -8.129  -8.047  0.00  0.00    +0.010 A 
ATOM     25  C   UNL     1      -9.004  -8.760  -9.192  0.00  0.00    +0.001 A 
ATOM     26  C   UNL     1      -9.393  -8.065 -10.348  0.00  0.00    +0.002 A 
ATOM     27  C   UNL     1      -9.448  -6.717 -10.387  0.00  0.00    +0.026 A 
ATOM     28  C   UNL     1      -9.090  -5.951  -9.182  0.00  0.00    +0.043 A 
ATOM     29  N   UNL     1      -9.054  -4.671  -8.943  0.00  0.00    -0.380 N 
ATOM     30  C   UNL     1      -8.628  -4.447  -7.558  0.00  0.00    +0.152 C 
ATOM     31  H   UNL     1      -9.278  -3.975  -9.580  0.00  0.00    +0.160 HD
ENDBRANCH  20  22
ENDBRANCH  18  20
ENDBRANCH   1  18
TORSDOF 6
