REMARK  Name = ZINC09376496
REMARK  10 active torsions:
REMARK  status: ('A' for Active; 'I' for Inactive)
REMARK    1  A    between atoms: C_3  and  C_6
REMARK    2  A    between atoms: C_8  and  C_11
REMARK    3  A    between atoms: C_11  and  C_12
REMARK    4  A    between atoms: C_12  and  C_13
REMARK    5  A    between atoms: C_13  and  C_14
REMARK    6  A    between atoms: C_14  and  C_15
REMARK    7  A    between atoms: C_15  and  N_16
REMARK    8  A    between atoms: C_17  and  C_19
REMARK    9  A    between atoms: N_22  and  C_25
REMARK   10  A    between atoms: C_28  and  C_30
REMARK                            x       y       z     vdW  Elec       q    Type
REMARK                         _______ _______ _______ _____ _____    ______ ____
ROOT
ATOM      1  N   UNL     1      -4.790   6.442   8.089  0.00  0.00    -0.315 N 
ATOM      2  C   UNL     1      -5.114   5.327   7.405  0.00  0.00    +0.216 C 
ATOM      3  O   UNL     1      -5.971   4.582   7.831  0.00  0.00    -0.276 OA
ATOM      4  H   UNL     1      -4.105   7.038   7.750  0.00  0.00    +0.149 HD
ENDROOT
BRANCH   2   5
ATOM      5  C   UNL     1      -4.410   5.005   6.112  0.00  0.00    +0.078 C 
ATOM      6  C   UNL     1      -4.959   3.695   5.543  0.00  0.00    +0.031 C 
ATOM      7  C   UNL     1      -4.200   3.343   4.262  0.00  0.00    +0.107 C 
ATOM      8  N   UNL     1      -2.769   3.205   4.561  0.00  0.00    -0.317 N 
ATOM      9  C   UNL     1      -2.208   4.465   5.066  0.00  0.00    +0.107 C 
ATOM     10  C   UNL     1      -2.908   4.850   6.371  0.00  0.00    +0.031 C 
BRANCH   8  11
ATOM     11  C   UNL     1      -2.068   2.757   3.448  0.00  0.00    +0.099 A 
ATOM     12  C   UNL     1      -0.692   2.563   3.532  0.00  0.00    +0.042 A 
ATOM     13  C   UNL     1      -0.007   2.118   2.416  0.00  0.00    +0.017 A 
ATOM     14  C   UNL     1      -0.722   1.881   1.250  0.00  0.00    +0.071 A 
ATOM     15  C   UNL     1      -2.085   2.100   1.236  0.00  0.00    +0.096 A 
ATOM     16  N   UNL     1      -2.792   2.532   2.314  0.00  0.00    -0.349 N 
ATOM     17  H   UNL     1      -3.808   2.679   2.277  0.00  0.00    +0.167 HD
BRANCH  14  18
ATOM     18  C   UNL     1      -0.017   1.395   0.010  0.00  0.00    +0.419 C 
ATOM     19  F   UNL     1       0.002  -0.004   0.002  0.00  0.00    -0.166 F 
ATOM     20  F   UNL     1       1.296   1.879  -0.000  0.00  0.00    -0.166 F 
ATOM     21  F   UNL     1      -0.694   1.858  -1.124  0.00  0.00    -0.166 F 
ENDBRANCH  14  18
ENDBRANCH   8  11
ENDBRANCH   2   5
BRANCH   1  22
ATOM     22  C   UNL     1      -5.475   6.755   9.346  0.00  0.00    +0.104 C 
BRANCH  22  23
ATOM     23  C   UNL     1      -4.925   8.065   9.915  0.00  0.00    +0.019 C 
BRANCH  23  24
ATOM     24  C   UNL     1      -5.640   8.391  11.227  0.00  0.00    +0.002 C 
BRANCH  24  25
ATOM     25  C   UNL     1      -5.089   9.701  11.796  0.00  0.00    +0.009 C 
BRANCH  25  26
ATOM     26  C   UNL     1      -5.804  10.028  13.108  0.00  0.00    +0.099 C 
BRANCH  26  29
ATOM     27  C   UNL     1      -4.926  13.358  14.138  0.00  0.00    +0.209 A 
ATOM     28  N   UNL     1      -5.715  12.521  13.424  0.00  0.00    -0.191 NA
ATOM     29  C   UNL     1      -5.262  11.318  13.668  0.00  0.00    +0.228 A 
ATOM     30  O   UNL     1      -4.233  11.446  14.511  0.00  0.00    -0.338 OA
ATOM     31  N   UNL     1      -4.048  12.617  14.768  0.00  0.00    -0.056 NA
BRANCH  27  34
ATOM     32  C   UNL     1      -4.559  17.067  14.794  0.00  0.00    +0.008 A 
ATOM     33  C   UNL     1      -4.272  15.725  14.900  0.00  0.00    +0.019 A 
ATOM     34  C   UNL     1      -5.034  14.831  14.195  0.00  0.00    +0.060 A 
ATOM     35  S   UNL     1      -6.195  15.907  13.370  0.00  0.00    -0.093 S 
ATOM     36  C   UNL     1      -5.592  17.463  14.006  0.00  0.00    +0.046 A 
ENDBRANCH  27  34
ENDBRANCH  26  29
ENDBRANCH  25  26
ENDBRANCH  24  25
ENDBRANCH  23  24
ENDBRANCH  22  23
ENDBRANCH   1  22
TORSDOF 10
