REMARK  Name = ZINC09795429
REMARK  7 active torsions:
REMARK  status: ('A' for Active; 'I' for Inactive)
REMARK    1  A    between atoms: C_1  and  C_2
REMARK    2  A    between atoms: C_5  and  C_8
REMARK    3  A    between atoms: C_12  and  S_14
REMARK    4  A    between atoms: S_14  and  C_15
REMARK    5  A    between atoms: C_15  and  C_16
REMARK    6  A    between atoms: N_18  and  C_19
REMARK    7  A    between atoms: C_24  and  N_25
REMARK                            x       y       z     vdW  Elec       q    Type
REMARK                         _______ _______ _______ _____ _____    ______ ____
ROOT
ATOM      1  C   UNL     1       0.107  -8.062   4.470  0.00  0.00    +0.228 C 
ATOM      2  O   UNL     1       0.133  -9.223   4.121  0.00  0.00    -0.275 OA
ATOM      3  N   UNL     1       0.101  -7.753   5.782  0.00  0.00    -0.283 N 
ATOM      4  H   UNL     1       0.161  -6.826   6.062  0.00  0.00    +0.155 HD
ENDROOT
BRANCH   3   5
ATOM      5  C   UNL     1       0.009  -8.769   6.740  0.00  0.00    +0.061 A 
ATOM      6  C   UNL     1      -0.581  -9.982   6.413  0.00  0.00    +0.045 A 
ATOM      7  C   UNL     1      -0.670 -10.984   7.362  0.00  0.00    +0.043 A 
ATOM      8  C   UNL     1      -0.173 -10.781   8.638  0.00  0.00    +0.022 A 
ATOM      9  C   UNL     1       0.415  -9.576   8.971  0.00  0.00    +0.031 A 
ATOM     10  C   UNL     1       0.514  -8.568   8.024  0.00  0.00    +0.088 A 
ATOM     11 CL   UNL     1      -1.409 -12.501   6.951  0.00  0.00    -0.083 Cl
BRANCH  10  12
ATOM     12  N   UNL     1       1.117  -7.346   8.359  0.00  0.00    -0.218 N 
ATOM     13  C   UNL     1       1.734  -7.040   9.516  0.00  0.00    +0.225 A 
ATOM     14  N   UNL     1       2.160  -5.806   9.434  0.00  0.00    -0.222 NA
ATOM     15  C   UNL     1       1.837  -5.293   8.248  0.00  0.00    +0.245 A 
ATOM     16  N   UNL     1       1.202  -6.200   7.551  0.00  0.00    -0.153 NA
ENDBRANCH  10  12
ENDBRANCH   3   5
BRANCH   1  17
ATOM     17  C   UNL     1       0.082  -6.965   3.438  0.00  0.00    +0.173 C 
BRANCH  17  18
ATOM     18  S   UNL     1       0.097  -7.696   1.778  0.00  0.00    -0.077 S 
BRANCH  18  23
ATOM     19  C   UNL     1       0.018  -4.256  -0.021  0.00  0.00    +0.182 A 
ATOM     20  N   UNL     1       0.034  -5.014  -1.094  0.00  0.00    -0.152 NA
ATOM     21  H   UNL     1       0.082  -7.142  -1.208  0.00  0.00    +0.191 HD
ATOM     22  N   UNL     1       0.064  -6.347  -0.653  0.00  0.00    -0.253 N 
ATOM     23  C   UNL     1       0.065  -6.304   0.698  0.00  0.00    +0.185 A 
ATOM     24  N   UNL     1       0.042  -5.042   1.066  0.00  0.00    -0.201 NA
BRANCH  19  29
ATOM     25  C   UNL     1      -0.113   1.502   0.011  0.00  0.00    +0.044 C 
ATOM     26  C   UNL     1      -0.079  -0.005   0.003  0.00  0.00    -0.050 A 
ATOM     27  C   UNL     1      -0.070  -0.687  -1.201  0.00  0.00    +0.004 A 
ATOM     28  C   UNL     1      -0.038  -2.067  -1.214  0.00  0.00    +0.012 A 
ATOM     29  C   UNL     1      -0.015  -2.773  -0.013  0.00  0.00    +0.021 A 
ATOM     30  C   UNL     1      -0.024  -2.080   1.196  0.00  0.00    +0.012 A 
ATOM     31  C   UNL     1      -0.050  -0.700   1.198  0.00  0.00    +0.004 A 
ENDBRANCH  19  29
ENDBRANCH  18  23
ENDBRANCH  17  18
ENDBRANCH   1  17
TORSDOF 6
