REMARK  Name = ZINC02759178
REMARK  11 active torsions:
REMARK  status: ('A' for Active; 'I' for Inactive)
REMARK    1  A    between atoms: C_1  and  C_2
REMARK    2  A    between atoms: C_2  and  C_3
REMARK    3  A    between atoms: C_3  and  C_4
REMARK    4  A    between atoms: C_4  and  C_5
REMARK    5  A    between atoms: C_5  and  C_6
REMARK    6  A    between atoms: C_6  and  C_7
REMARK    7  A    between atoms: C_11  and  C_27
REMARK    8  A    between atoms: N_13  and  C_14
REMARK    9  A    between atoms: C_19  and  O_20
REMARK   10  A    between atoms: O_20  and  C_21
REMARK   11  A    between atoms: C_25  and  O_26
REMARK                            x       y       z     vdW  Elec       q    Type
REMARK                         _______ _______ _______ _____ _____    ______ ____
ROOT
ATOM      1  C   UNL     1      -4.609  -3.216  -0.355  0.00  0.00    -0.005 A 
ATOM      2  C   UNL     1      -5.083  -3.910  -1.431  0.00  0.00    +0.018 A 
ATOM      3  C   UNL     1      -6.250  -4.673  -1.307  0.00  0.00    +0.019 A 
ATOM      4  C   UNL     1      -6.782  -5.418  -2.450  0.00  0.00    +0.028 A 
ATOM      5  C   UNL     1      -8.069  -5.923  -2.340  0.00  0.00    +0.078 A 
ATOM      6  C   UNL     1      -8.789  -5.663  -1.077  0.00  0.00    +0.210 A 
ATOM      7  N   UNL     1     -10.103  -5.619  -1.043  0.00  0.00    -0.322 N 
ATOM      8  O   UNL     1      -8.053  -5.472   0.048  0.00  0.00    -0.438 OA
ATOM      9  C   UNL     1      -6.928  -4.726  -0.073  0.00  0.00    +0.141 A 
ATOM     10  C   UNL     1      -6.434  -4.015   1.007  0.00  0.00    +0.092 A 
ATOM     11  C   UNL     1      -5.275  -3.266   0.867  0.00  0.00    +0.124 A 
ATOM     12  H   UNL     1     -10.612  -5.681  -1.867  0.00  0.00    +0.169 HD
ENDROOT
BRANCH   5  13
ATOM     13  C   UNL     1      -8.693  -6.687  -3.437  0.00  0.00    +0.144 A 
ATOM     14  N   UNL     1      -8.094  -6.976  -4.635  0.00  0.00    -0.338 N 
ATOM     15  H   UNL     1      -7.200  -6.719  -4.909  0.00  0.00    +0.167 HD
ATOM     16  C   UNL     1      -9.004  -7.703  -5.380  0.00  0.00    +0.066 A 
ATOM     17  C   UNL     1      -8.977  -8.267  -6.648  0.00  0.00    +0.028 A 
ATOM     18  C   UNL     1     -10.080  -8.950  -7.115  0.00  0.00    +0.002 A 
ATOM     19  C   UNL     1     -11.216  -9.076  -6.327  0.00  0.00    +0.002 A 
ATOM     20  C   UNL     1     -11.261  -8.527  -5.077  0.00  0.00    +0.030 A 
ATOM     21  C   UNL     1     -10.154  -7.830  -4.582  0.00  0.00    +0.089 A 
ATOM     22  N   UNL     1      -9.902  -7.197  -3.411  0.00  0.00    -0.228 NA
ENDBRANCH   5  13
BRANCH   7  23
ATOM     23  C   UNL     1     -10.752  -5.485   0.153  0.00  0.00    +0.084 A 
ATOM     24  C   UNL     1     -10.432  -6.323   1.223  0.00  0.00    +0.029 A 
ATOM     25  C   UNL     1     -11.091  -6.183   2.427  0.00  0.00    +0.002 A 
ATOM     26  C   UNL     1     -12.067  -5.214   2.579  0.00  0.00    +0.004 A 
ATOM     27  C   UNL     1     -12.393  -4.378   1.526  0.00  0.00    +0.048 A 
ATOM     28  C   UNL     1     -11.737  -4.502   0.314  0.00  0.00    +0.143 A 
BRANCH  28  29
ATOM     29  O   UNL     1     -12.052  -3.676  -0.719  0.00  0.00    -0.493 OA
ATOM     30  C   UNL     1     -13.066  -2.697  -0.482  0.00  0.00    +0.277 C 
ENDBRANCH  28  29
ENDBRANCH   7  23
BRANCH  11  31
ATOM     31  O   UNL     1      -4.789  -2.573   1.928  0.00  0.00    -0.506 OA
ATOM     32  H   UNL     1      -5.132  -1.672   2.000  0.00  0.00    +0.292 HD
ENDBRANCH  11  31
BRANCH   1  33
ATOM     33  C   UNL     1      -3.352  -2.395  -0.489  0.00  0.00    +0.039 C 
BRANCH  33  34
ATOM     34  C   UNL     1      -3.723  -0.921  -0.671  0.00  0.00    +0.005 C 
BRANCH  34  35
ATOM     35  C   UNL     1      -2.447  -0.088  -0.807  0.00  0.00    +0.000 C 
BRANCH  35  36
ATOM     36  C   UNL     1      -2.818   1.385  -0.990  0.00  0.00    -0.000 C 
BRANCH  36  38
ATOM     37  C   UNL     1      -1.913   3.692  -1.308  0.00  0.00    +0.004 C 
ATOM     38  C   UNL     1      -1.542   2.219  -1.126  0.00  0.00    -0.003 C 
ENDBRANCH  36  38
ENDBRANCH  35  36
ENDBRANCH  34  35
ENDBRANCH  33  34
ENDBRANCH   1  33
TORSDOF 9
