REMARK  Name = ZINC40839591
REMARK  5 active torsions:
REMARK  status: ('A' for Active; 'I' for Inactive)
REMARK    1  A    between atoms: C_1  and  C_2
REMARK    2  A    between atoms: C_2  and  C_4
REMARK    3  A    between atoms: C_2  and  C_16
REMARK    4  A    between atoms: C_21  and  C_24
REMARK    5  A    between atoms: C_27  and  N_30
REMARK                            x       y       z     vdW  Elec       q    Type
REMARK                         _______ _______ _______ _____ _____    ______ ____
ROOT
ATOM      1  C   UNL     1       0.731  -0.503   1.223  0.00  0.00    +0.223 C 
ATOM      2  O   UNL     1       0.159  -1.213   2.023  0.00  0.00    -0.275 OA
ATOM      3  N   UNL     1       2.019  -0.161   1.426  0.00  0.00    -0.264 N 
ATOM      4  C   UNL     1       2.691  -0.622   2.551  0.00  0.00    +0.165 A 
ATOM      5  N   UNL     1       3.935  -0.399   2.930  0.00  0.00    -0.225 NA
ATOM      6  C   UNL     1       4.419  -0.923   4.047  0.00  0.00    +0.080 A 
ATOM      7  C   UNL     1       3.613  -1.709   4.822  0.00  0.00    +0.076 A 
ATOM      8  S   UNL     1       2.097  -1.666   3.875  0.00  0.00    -0.060 S 
ATOM      9  H   UNL     1       2.476   0.406   0.786  0.00  0.00    +0.157 HD
ENDROOT
BRANCH   6  10
ATOM     10  C   UNL     1       5.821  -0.659   4.452  0.00  0.00    +0.001 A 
ATOM     11  C   UNL     1       6.327  -1.217   5.625  0.00  0.00    +0.012 A 
ATOM     12  C   UNL     1       7.633  -0.968   5.997  0.00  0.00    +0.033 A 
ATOM     13  C   UNL     1       8.438  -0.165   5.208  0.00  0.00    +0.126 A 
ATOM     14  C   UNL     1       7.941   0.391   4.044  0.00  0.00    +0.033 A 
ATOM     15  C   UNL     1       6.639   0.144   3.659  0.00  0.00    +0.012 A 
BRANCH  13  16
ATOM     16  N   UNL     1       9.837   0.099   5.613  0.00  0.00    +0.056 N 
ATOM     17  O   UNL     1      10.274  -0.386   6.631  0.00  0.00    -0.126 OA
ATOM     18  O   UNL     1      10.543   0.800   4.926  0.00  0.00    -0.126 OA
ENDBRANCH  13  16
ENDBRANCH   6  10
BRANCH   1  20
ATOM     19  C   UNL     1      -0.019   1.526   0.010  0.00  0.00    +0.019 C 
ATOM     20  C   UNL     1       0.002  -0.004   0.002  0.00  0.00    +0.094 C 
BRANCH  20  21
ATOM     21  C   UNL     1      -1.433  -0.534   0.013  0.00  0.00    +0.149 C 
ATOM     22  C   UNL     1      -2.161  -0.043  -1.208  0.00  0.00    +0.231 C 
ATOM     23  O   UNL     1      -2.824   0.969  -1.113  0.00  0.00    -0.274 OA
ATOM     24  N   UNL     1      -2.119  -0.657  -2.388  0.00  0.00    -0.284 N 
ATOM     25  C   UNL     1      -1.408  -1.816  -2.688  0.00  0.00    +0.047 A 
ATOM     26  C   UNL     1      -1.082  -2.095  -4.011  0.00  0.00    +0.024 A 
ATOM     27  C   UNL     1      -0.381  -3.242  -4.327  0.00  0.00    +0.002 A 
ATOM     28  C   UNL     1       0.003  -4.125  -3.334  0.00  0.00    +0.001 A 
ATOM     29  C   UNL     1      -0.312  -3.859  -2.014  0.00  0.00    +0.016 A 
ATOM     30  C   UNL     1      -1.012  -2.709  -1.691  0.00  0.00    +0.030 A 
ATOM     31  S   UNL     1      -1.412  -2.352  -0.006  0.00  0.00    -0.110 S 
ATOM     32  H   UNL     1      -2.633  -0.259  -3.108  0.00  0.00    +0.155 HD
ENDBRANCH  20  21
ENDBRANCH   1  20
TORSDOF 4
