REMARK  Name = ZINC58942203
REMARK  10 active torsions:
REMARK  status: ('A' for Active; 'I' for Inactive)
REMARK    1  A    between atoms: C_1  and  O_2
REMARK    2  A    between atoms: O_2  and  C_3
REMARK    3  A    between atoms: C_6  and  C_9
REMARK    4  A    between atoms: C_9  and  C_10
REMARK    5  A    between atoms: C_10  and  N_11
REMARK    6  A    between atoms: C_15  and  C_28
REMARK    7  A    between atoms: N_19  and  C_20
REMARK    8  A    between atoms: C_23  and  O_26
REMARK    9  A    between atoms: O_26  and  C_27
REMARK   10  A    between atoms: N_30  and  C_31
REMARK                            x       y       z     vdW  Elec       q    Type
REMARK                         _______ _______ _______ _____ _____    ______ ____
ROOT
ATOM      1  N   UNL     1      -6.718  -3.580  -1.374  0.00  0.00    -0.250 N 
ATOM      2  C   UNL     1      -6.730  -4.905  -1.374  0.00  0.00    +0.223 C 
ATOM      3  O   UNL     1      -5.650  -5.441  -1.240  0.00  0.00    -0.275 OA
ATOM      4  C   UNL     1      -7.894  -5.824  -1.515  0.00  0.00    +0.120 C 
ATOM      5  C   UNL     1      -9.197  -5.200  -1.011  0.00  0.00    +0.149 C 
ATOM      6  S   UNL     1      -9.385  -3.572  -1.809  0.00  0.00    -0.077 S 
ATOM      7  C   UNL     1      -7.855  -2.792  -1.366  0.00  0.00    +0.164 C 
ATOM      8  N   UNL     1      -7.802  -1.520  -1.048  0.00  0.00    -0.226 NA
ENDROOT
BRANCH   8   9
ATOM      9  C   UNL     1      -8.946  -0.765  -1.050  0.00  0.00    +0.067 A 
ATOM     10  C   UNL     1      -9.851  -0.868  -2.107  0.00  0.00    +0.031 A 
ATOM     11  C   UNL     1     -11.001  -0.106  -2.105  0.00  0.00    +0.048 A 
ATOM     12  C   UNL     1     -11.258   0.762  -1.053  0.00  0.00    +0.120 A 
ATOM     13  C   UNL     1     -10.361   0.868   0.000  0.00  0.00    +0.048 A 
ATOM     14  C   UNL     1      -9.211   0.105   0.009  0.00  0.00    +0.031 A 
BRANCH  12  15
ATOM     15  O   UNL     1     -12.393   1.512  -1.055  0.00  0.00    -0.495 OA
ATOM     16  C   UNL     1     -12.595   2.385   0.058  0.00  0.00    +0.277 C 
ENDBRANCH  12  15
ENDBRANCH   8   9
BRANCH   5  17
ATOM     17  C   UNL     1     -10.360  -6.085  -1.376  0.00  0.00    +0.231 C 
ATOM     18  O   UNL     1     -10.311  -6.771  -2.375  0.00  0.00    -0.274 OA
ATOM     19  N   UNL     1     -11.456  -6.115  -0.591  0.00  0.00    -0.282 N 
ATOM     20  H   UNL     1     -11.470  -5.618   0.241  0.00  0.00    +0.155 HD
BRANCH  19  21
ATOM     21  C   UNL     1     -12.574  -6.865  -0.978  0.00  0.00    +0.069 A 
ATOM     22  C   UNL     1     -12.406  -8.061  -1.663  0.00  0.00    +0.026 A 
ATOM     23  C   UNL     1     -13.510  -8.799  -2.042  0.00  0.00    +0.002 A 
ATOM     24  C   UNL     1     -14.783  -8.349  -1.742  0.00  0.00    +0.003 A 
ATOM     25  C   UNL     1     -14.955  -7.158  -1.061  0.00  0.00    +0.040 A 
ATOM     26  C   UNL     1     -13.854  -6.417  -0.672  0.00  0.00    +0.144 A 
ATOM     27  F   UNL     1     -14.022  -5.256  -0.001  0.00  0.00    -0.204 F 
ENDBRANCH  19  21
ENDBRANCH   5  17
BRANCH   1  28
ATOM     28  C   UNL     1      -5.417  -2.907  -1.377  0.00  0.00    +0.120 C 
BRANCH  28  29
ATOM     29  C   UNL     1      -4.958  -2.678   0.065  0.00  0.00    +0.054 C 
BRANCH  29  33
ATOM     30  C   UNL     1      -1.163  -0.714   0.057  0.00  0.00    +0.120 A 
ATOM     31  C   UNL     1      -2.331   0.033   0.065  0.00  0.00    +0.046 A 
ATOM     32  C   UNL     1      -3.557  -0.604   0.067  0.00  0.00    +0.007 A 
ATOM     33  C   UNL     1      -3.619  -1.986   0.062  0.00  0.00    -0.046 A 
ATOM     34  C   UNL     1      -2.456  -2.732   0.055  0.00  0.00    +0.007 A 
ATOM     35  C   UNL     1      -1.228  -2.100   0.046  0.00  0.00    +0.046 A 
BRANCH  30  37
ATOM     36  C   UNL     1       0.035   1.339   0.066  0.00  0.00    +0.277 C 
ATOM     37  O   UNL     1       0.044  -0.090   0.055  0.00  0.00    -0.495 OA
ENDBRANCH  30  37
ENDBRANCH  29  33
ENDBRANCH  28  29
ENDBRANCH   1  28
TORSDOF 8
