REMARK  Name = ZINC24712075
REMARK  8 active torsions:
REMARK  status: ('A' for Active; 'I' for Inactive)
REMARK    1  A    between atoms: C_1  and  C_2
REMARK    2  A    between atoms: C_11  and  N_13
REMARK    3  A    between atoms: C_14  and  C_16
REMARK    4  A    between atoms: C_16  and  S_17
REMARK    5  A    between atoms: S_17  and  C_18
REMARK    6  A    between atoms: C_21  and  C_26
REMARK    7  A    between atoms: N_22  and  C_23
REMARK    8  A    between atoms: C_23  and  C_24
REMARK                            x       y       z     vdW  Elec       q    Type
REMARK                         _______ _______ _______ _____ _____    ______ ____
ROOT
ATOM      1  C   UNL     1       1.524   8.289   1.006  0.00  0.00    +0.173 C 
ENDROOT
BRANCH   1   3
ATOM      2  N   UNL     1       1.615  10.639   1.773  0.00  0.00    -0.285 N 
ATOM      3  C   UNL     1       1.797   9.753   0.774  0.00  0.00    +0.227 C 
ATOM      4  O   UNL     1       2.181  10.134  -0.312  0.00  0.00    -0.275 OA
ATOM      5  H   UNL     1       1.188  10.308   2.731  0.00  0.00    +0.155 HD
BRANCH   2  16
ATOM      6  C   UNL     1       4.000  18.153   0.601  0.00  0.00    +0.109 C 
ATOM      7  C   UNL     1       3.829  16.660   0.486  0.00  0.00    +0.217 C 
ATOM      8  O   UNL     1       4.564  16.020  -0.237  0.00  0.00    -0.276 OA
ATOM      9  N   UNL     1       2.861  16.036   1.185  0.00  0.00    -0.271 N 
ATOM     10  C   UNL     1       1.850  16.709   2.005  0.00  0.00    +0.118 C 
ATOM     11  C   UNL     1       0.987  15.579   2.589  0.00  0.00    +0.056 C 
ATOM     12  C   UNL     1       1.595  14.310   2.037  0.00  0.00    -0.023 A 
ATOM     13  C   UNL     1       2.673  14.649   1.235  0.00  0.00    +0.040 A 
ATOM     14  C   UNL     1       3.401  13.636   0.608  0.00  0.00    +0.025 A 
ATOM     15  C   UNL     1       3.055  12.315   0.791  0.00  0.00    +0.025 A 
ATOM     16  C   UNL     1       1.970  11.982   1.592  0.00  0.00    +0.034 A 
ATOM     17  C   UNL     1       1.244  12.986   2.217  0.00  0.00    +0.028 A 
ENDBRANCH   2  16
ENDBRANCH   1   3
BRANCH   1  18
ATOM     18  S   UNL     1       1.859   7.365  -0.513  0.00  0.00    -0.077 S 
BRANCH  18  19
ATOM     19  C   UNL     1       1.469   5.734   0.028  0.00  0.00    +0.192 A 
ATOM     20  N   UNL     1       1.056   5.387   1.225  0.00  0.00    -0.122 NA
ATOM     21  N   UNL     1       0.867   4.117   1.270  0.00  0.00    -0.133 NA
ATOM     22  C   UNL     1       1.145   3.582   0.115  0.00  0.00    +0.139 A 
ATOM     23  N   UNL     1       1.544   4.592  -0.716  0.00  0.00    -0.302 N 
BRANCH  22  24
ATOM     24  C   UNL     1       1.052   2.119  -0.238  0.00  0.00    +0.079 C 
ATOM     25  C   UNL     1      -0.397   1.640  -0.048  0.00  0.00    +0.035 C 
ATOM     26  C   UNL     1      -0.405   0.086  -0.110  0.00  0.00    +0.166 C 
ATOM     27  S   UNL     1       1.121  -0.298   0.849  0.00  0.00    -0.030 S 
ATOM     28  O   UNL     1       0.773  -0.492   2.213  0.00  0.00    -0.174 OA
ATOM     29  O   UNL     1       1.856  -1.303   0.165  0.00  0.00    -0.174 OA
ATOM     30  C   UNL     1       2.000   1.308   0.678  0.00  0.00    +0.177 C 
ENDBRANCH  22  24
BRANCH  23  31
ATOM     31  C   UNL     1       1.961   4.473  -2.115  0.00  0.00    +0.152 C 
BRANCH  31  32
ATOM     32  C   UNL     1       0.759   4.620  -3.012  0.00  0.00    -0.013 C 
ATOM     33  C   UNL     1       0.756   5.524  -3.961  0.00  0.00    +0.005 C 
ENDBRANCH  31  32
ENDBRANCH  23  31
ENDBRANCH  18  19
ENDBRANCH   1  18
TORSDOF 7
