REMARK  Name = ZINC00717201
REMARK  5 active torsions:
REMARK  status: ('A' for Active; 'I' for Inactive)
REMARK    1  A    between atoms: C_1  and  C_2
REMARK    2  A    between atoms: C_5  and  C_8
REMARK    3  A    between atoms: C_11  and  C_13
REMARK    4  A    between atoms: C_17  and  S_27
REMARK    5  A    between atoms: C_18  and  C_25
REMARK                            x       y       z     vdW  Elec       q    Type
REMARK                         _______ _______ _______ _____ _____    ______ ____
ROOT
ATOM      1  C   UNL     1      -1.259   3.400   0.760  0.00  0.00    +0.117 C 
ATOM      2  C   UNL     1      -1.251   3.607   2.262  0.00  0.00    +0.080 C 
ATOM      3  N   UNL     1      -0.240   2.970   2.963  0.00  0.00    -0.298 N 
ATOM      4  C   UNL     1       0.135   1.709   2.542  0.00  0.00    +0.077 C 
ATOM      5  C   UNL     1      -0.335   1.177   1.387  0.00  0.00    +0.064 C 
ATOM      6  C   UNL     1      -1.308   1.891   0.493  0.00  0.00    +0.023 C 
ATOM      7  C   UNL     1      -0.948   1.628  -0.972  0.00  0.00    +0.013 C 
ATOM      8  C   UNL     1      -1.937   2.363  -1.879  0.00  0.00    +0.001 C 
ATOM      9  C   UNL     1      -3.354   1.856  -1.605  0.00  0.00    +0.000 C 
ATOM     10  C   UNL     1      -3.715   2.114  -0.141  0.00  0.00    +0.001 C 
ATOM     11  C   UNL     1      -2.725   1.379   0.765  0.00  0.00    +0.013 C 
ATOM     12  H   UNL     1      -2.191   4.511   3.814  0.00  0.00    +0.157 HD
ATOM     13  H   UNL     1       0.189   3.395   3.722  0.00  0.00    +0.154 HD
ATOM     14  N   UNL     1      -2.181   4.360   2.805  0.00  0.00    -0.390 N 
ATOM     15  H   UNL     1      -2.897   4.798   2.213  0.00  0.00    +0.157 HD
ENDROOT
BRANCH   1  19
ATOM     16  C   UNL     1       1.290   5.322  -1.187  0.00  0.00    +0.078 A 
ATOM     17  C   UNL     1       2.403   4.742  -0.641  0.00  0.00    +0.075 A 
ATOM     18  S   UNL     1       1.649   3.601   0.509  0.00  0.00    -0.079 S 
ATOM     19  C   UNL     1      -0.007   3.984   0.158  0.00  0.00    +0.090 A 
ATOM     20  N   UNL     1       0.106   4.913  -0.760  0.00  0.00    -0.243 NA
BRANCH  16  25
ATOM     21  C   UNL     1       1.746   9.408  -5.220  0.00  0.00    +0.044 C 
ATOM     22  C   UNL     1       1.627   8.339  -4.165  0.00  0.00    -0.050 A 
ATOM     23  C   UNL     1       2.761   7.697  -3.703  0.00  0.00    +0.004 A 
ATOM     24  C   UNL     1       2.658   6.716  -2.737  0.00  0.00    +0.010 A 
ATOM     25  C   UNL     1       1.408   6.375  -2.226  0.00  0.00    +0.001 A 
ATOM     26  C   UNL     1       0.267   7.021  -2.698  0.00  0.00    +0.010 A 
ATOM     27  C   UNL     1       0.383   8.004  -3.661  0.00  0.00    +0.004 A 
ENDBRANCH  16  25
ENDBRANCH   1  19
BRANCH   5  28
ATOM     28  C   UNL     1       0.119  -0.126   1.002  0.00  0.00    +0.098 C 
ATOM     29  N   UNL     1       0.478  -1.159   0.696  0.00  0.00    -0.191 NA
ENDBRANCH   5  28
BRANCH   4  30
ATOM     30  S   UNL     1       1.250   0.769   3.531  0.00  0.00    -0.127 S 
ATOM     31  H   UNL     1       1.465   1.677   4.588  0.00  0.00    +0.108 HD
ENDBRANCH   4  30
TORSDOF 4
