REMARK  Name = ZINC51606485
REMARK  6 active torsions:
REMARK  status: ('A' for Active; 'I' for Inactive)
REMARK    1  A    between atoms: C_1  and  C_2
REMARK    2  A    between atoms: C_4  and  C_20
REMARK    3  A    between atoms: C_6  and  S_8
REMARK    4  A    between atoms: S_8  and  C_9
REMARK    5  A    between atoms: C_9  and  C_10
REMARK    6  A    between atoms: C_14  and  N_16
REMARK                            x       y       z     vdW  Elec       q    Type
REMARK                         _______ _______ _______ _____ _____    ______ ____
ROOT
ATOM      1  C   UNL     1       0.041  -1.542   3.919  0.00  0.00    +0.112 C 
ENDROOT
BRANCH   1   2
ATOM      2  C   UNL     1       0.056  -2.148   5.299  0.00  0.00    -0.035 A 
ATOM      3  C   UNL     1      -1.135  -2.448   5.935  0.00  0.00    +0.006 A 
ATOM      4  C   UNL     1      -1.122  -3.004   7.200  0.00  0.00    +0.022 A 
ATOM      5  C   UNL     1       0.083  -3.262   7.830  0.00  0.00    +0.071 A 
ATOM      6  C   UNL     1       1.274  -2.962   7.193  0.00  0.00    +0.145 A 
ATOM      7  C   UNL     1       1.260  -2.410   5.926  0.00  0.00    +0.038 A 
ATOM      8 CL   UNL     1       0.100  -3.960   9.419  0.00  0.00    -0.081 Cl
BRANCH   6   9
ATOM      9  N   UNL     1       2.562  -3.237   7.867  0.00  0.00    +0.058 N 
ATOM     10  O   UNL     1       3.603  -2.975   7.310  0.00  0.00    -0.126 OA
ATOM     11  O   UNL     1       2.575  -3.724   8.973  0.00  0.00    -0.126 OA
ENDBRANCH   6   9
ENDBRANCH   1   2
BRANCH   1  12
ATOM     12  S   UNL     1       0.053  -2.864   2.678  0.00  0.00    -0.081 S 
BRANCH  12  18
ATOM     13  C   UNL     1      -0.018   1.503   0.010  0.00  0.00    +0.066 C 
ATOM     14  C   UNL     1       0.002  -0.004   0.002  0.00  0.00    +0.043 A 
ATOM     15  C   UNL     1       0.006  -0.699  -1.198  0.00  0.00    +0.046 A 
ATOM     16  C   UNL     1       0.025  -2.084  -1.161  0.00  0.00    +0.043 A 
ATOM     17  N   UNL     1       0.039  -2.699   0.010  0.00  0.00    -0.227 NA
ATOM     18  C   UNL     1       0.035  -2.005   1.140  0.00  0.00    +0.189 A 
ATOM     19  N   UNL     1       0.022  -0.679   1.139  0.00  0.00    -0.227 NA
ATOM     20  C   UNL     1       0.029  -2.881  -2.440  0.00  0.00    +0.066 C 
ENDBRANCH  12  18
ENDBRANCH   1  12
TORSDOF 4
