REMARK  Name = ZINC57866645
REMARK  6 active torsions:
REMARK  status: ('A' for Active; 'I' for Inactive)
REMARK    1  A    between atoms: C_1  and  C_2
REMARK    2  A    between atoms: C_7  and  C_8
REMARK    3  A    between atoms: N_9  and  C_16
REMARK    4  A    between atoms: C_10  and  C_12
REMARK    5  A    between atoms: C_16  and  C_17
REMARK    6  A    between atoms: C_17  and  C_18
REMARK                            x       y       z     vdW  Elec       q    Type
REMARK                         _______ _______ _______ _____ _____    ______ ____
ROOT
ATOM      1  C   UNL     1      -0.018   1.503   0.010  0.00  0.00    +0.044 C 
ATOM      2  C   UNL     1       0.002  -0.004   0.002  0.00  0.00    -0.045 A 
ATOM      3  C   UNL     1       0.006  -0.674  -1.189  0.00  0.00    +0.033 A 
ATOM      4  C   UNL     1       0.025  -2.071  -1.202  0.00  0.00    +0.090 A 
ATOM      5  C   UNL     1       0.041  -2.773   0.015  0.00  0.00    +0.069 A 
ATOM      6  C   UNL     1       0.037  -2.076   1.215  0.00  0.00    +0.031 A 
ATOM      7  C   UNL     1       0.023  -0.697   1.204  0.00  0.00    -0.045 A 
ATOM      8  C   UNL     1       0.024   0.062   2.506  0.00  0.00    +0.044 C 
ATOM      9  N   UNL     1       0.058  -4.113  -0.319  0.00  0.00    -0.320 N 
ATOM     10  C   UNL     1       0.052  -4.192  -1.677  0.00  0.00    +0.216 A 
ATOM     11  N   UNL     1       0.033  -2.998  -2.194  0.00  0.00    -0.224 NA
ENDROOT
BRANCH  10  12
ATOM     12  C   UNL     1       0.066  -5.475  -2.467  0.00  0.00    +0.451 C 
ATOM     13  F   UNL     1       0.397  -5.199  -3.798  0.00  0.00    -0.163 F 
ATOM     14  F   UNL     1       1.014  -6.348  -1.922  0.00  0.00    -0.163 F 
ATOM     15  F   UNL     1      -1.199  -6.068  -2.415  0.00  0.00    -0.163 F 
ENDBRANCH  10  12
BRANCH   9  16
ATOM     16  C   UNL     1       0.078  -5.240   0.616  0.00  0.00    +0.122 C 
BRANCH  16  17
ATOM     17  C   UNL     1      -1.357  -5.653   0.949  0.00  0.00    +0.006 C 
BRANCH  17  18
ATOM     18  C   UNL     1      -1.335  -6.831   1.926  0.00  0.00    -0.070 C 
ATOM     19  C   UNL     1      -2.764  -7.324   2.161  0.00  0.00    -0.016 C 
ATOM     20  C   UNL     1      -2.738  -8.503   3.138  0.00  0.00    -0.003 C 
ATOM     21  C   UNL     1      -2.056  -8.061   4.436  0.00  0.00    -0.019 C 
ATOM     22  C   UNL     1      -0.653  -7.540   4.117  0.00  0.00    -0.082 C 
ATOM     23  N   UNL     1      -0.748  -6.398   3.200  0.00  0.00    +0.381 N 
ATOM     24  H   UNL     1       0.174  -6.024   3.034  0.00  0.00    -0.086 HD
ATOM     25  H   UNL     1      -1.330  -5.684   3.612  0.00  0.00    -0.086 HD
ENDBRANCH  17  18
ENDBRANCH  16  17
ENDBRANCH   9  16
TORSDOF 4
