REMARK  Name = ZINC12080645
REMARK  7 active torsions:
REMARK  status: ('A' for Active; 'I' for Inactive)
REMARK    1  A    between atoms: C_5  and  C_7
REMARK    2  A    between atoms: C_7  and  N_8
REMARK    3  A    between atoms: C_9  and  C_11
REMARK    4  A    between atoms: N_13  and  C_14
REMARK    5  A    between atoms: C_14  and  C_15
REMARK    6  A    between atoms: N_17  and  S_21
REMARK    7  A    between atoms: S_21  and  C_24
REMARK                            x       y       z     vdW  Elec       q    Type
REMARK                         _______ _______ _______ _____ _____    ______ ____
ROOT
ATOM      1  C   UNL     1      -0.023   4.579   2.452  0.00  0.00    +0.226 C 
ATOM      2  N   UNL     1       1.149   4.335   1.596  0.00  0.00    -0.145 NA
ATOM      3  C   UNL     1       2.336   4.612   2.436  0.00  0.00    +0.140 C 
ATOM      4  C   UNL     1       1.778   4.467   3.874  0.00  0.00    +0.179 C 
ATOM      5  O   UNL     1       0.442   5.005   3.743  0.00  0.00    -0.357 OA
ENDROOT
BRANCH   2   6
ATOM      6  S   UNL     1       1.142   3.853   0.011  0.00  0.00    +0.063 S 
ATOM      7  O   UNL     1       2.376   4.282  -0.549  0.00  0.00    -0.153 OA
ATOM      8  O   UNL     1      -0.115   4.242  -0.525  0.00  0.00    -0.153 OA
BRANCH   6   9
ATOM      9  C   UNL     1       1.170   2.091   0.002  0.00  0.00    +0.109 A 
ATOM     10  C   UNL     1       2.378   1.420  -0.013  0.00  0.00    +0.032 A 
ATOM     11  C   UNL     1       2.404   0.039  -0.022  0.00  0.00    +0.051 A 
ATOM     12  C   UNL     1       1.217  -0.679  -0.016  0.00  0.00    +0.162 A 
ATOM     13  C   UNL     1       0.002  -0.004   0.002  0.00  0.00    +0.164 A 
ATOM     14  C   UNL     1      -0.017   1.383   0.010  0.00  0.00    +0.078 A 
ATOM     15  O   UNL     1      -1.174  -0.688   0.017  0.00  0.00    -0.485 OA
ATOM     16  C   UNL     1      -1.122  -2.067  -0.365  0.00  0.00    +0.270 C 
ATOM     17  C   UNL     1       0.061  -2.723   0.359  0.00  0.00    +0.270 C 
ATOM     18  O   UNL     1       1.258  -2.039  -0.029  0.00  0.00    -0.485 OA
ENDBRANCH   6   9
ENDBRANCH   2   6
BRANCH   1  19
ATOM     19  C   UNL     1      -0.898   5.669   1.830  0.00  0.00    +0.154 C 
BRANCH  19  22
ATOM     20  C   UNL     1      -0.692   8.008   1.179  0.00  0.00    +0.299 C 
ATOM     21  O   UNL     1      -1.847   7.977   0.809  0.00  0.00    -0.265 OA
ATOM     22  N   UNL     1      -0.122   6.905   1.705  0.00  0.00    -0.304 N 
ATOM     23  H   UNL     1       0.801   6.931   2.000  0.00  0.00    +0.149 HD
BRANCH  20  25
ATOM     24  N   UNL     1      -0.470  10.372   0.526  0.00  0.00    -0.303 N 
ATOM     25  C   UNL     1       0.100   9.270   1.052  0.00  0.00    +0.299 C 
ATOM     26  O   UNL     1       1.255   9.301   1.422  0.00  0.00    -0.265 OA
ATOM     27  H   UNL     1      -1.393  10.347   0.231  0.00  0.00    +0.149 HD
BRANCH  24  28
ATOM     28  C   UNL     1       0.306  11.609   0.401  0.00  0.00    +0.141 C 
BRANCH  28  33
ATOM     29  C   UNL     1      -1.228  13.964  -2.118  0.00  0.00    +0.000 A 
ATOM     30  C   UNL     1      -2.136  14.654  -1.336  0.00  0.00    +0.001 A 
ATOM     31  C   UNL     1      -2.253  14.358   0.009  0.00  0.00    +0.020 A 
ATOM     32  C   UNL     1      -1.463  13.372   0.572  0.00  0.00    +0.046 A 
ATOM     33  C   UNL     1      -0.555  12.683  -0.211  0.00  0.00    -0.012 A 
ATOM     34  C   UNL     1      -0.435  12.983  -1.555  0.00  0.00    +0.006 A 
ATOM     35 CL   UNL     1      -1.611  13.000   2.261  0.00  0.00    -0.083 Cl
ENDBRANCH  28  33
ENDBRANCH  24  28
ENDBRANCH  20  25
ENDBRANCH  19  22
ENDBRANCH   1  19
TORSDOF 7
