REMARK  Name = ZINC63514674
REMARK  10 active torsions:
REMARK  status: ('A' for Active; 'I' for Inactive)
REMARK    1  A    between atoms: C_1  and  C_2
REMARK    2  A    between atoms: C_2  and  C_3
REMARK    3  A    between atoms: C_3  and  C_4
REMARK    4  A    between atoms: C_4  and  C_5
REMARK    5  A    between atoms: C_9  and  C_13
REMARK    6  A    between atoms: N_19  and  C_20
REMARK    7  A    between atoms: C_20  and  C_21
REMARK    8  A    between atoms: C_21  and  C_22
REMARK    9  A    between atoms: C_25  and  C_33
REMARK   10  A    between atoms: C_30  and  C_32
REMARK                            x       y       z     vdW  Elec       q    Type
REMARK                         _______ _______ _______ _____ _____    ______ ____
ROOT
ATOM      1  C   UNL     1       0.616  -2.354  -1.440  0.00  0.00    +0.050 C 
ATOM      2  N   UNL     1       0.151  -2.966  -0.397  0.00  0.00    -0.287 NA
ENDROOT
BRANCH   1   3
ATOM      3  C   UNL     1       1.493  -3.067  -2.382  0.00  0.00    +0.081 C 
ATOM      4  C   UNL     1       2.112  -2.359  -3.411  0.00  0.00    +0.169 C 
ATOM      5  O   UNL     1       1.921  -1.157  -3.519  0.00  0.00    -0.292 OA
ATOM      6  C   UNL     1       3.015  -3.062  -4.391  0.00  0.00    +0.088 C 
ATOM      7  C   UNL     1       3.673  -4.261  -3.704  0.00  0.00    +0.034 C 
ATOM      8  C   UNL     1       2.581  -5.196  -3.178  0.00  0.00    +0.088 C 
ATOM      9  C   UNL     1       1.694  -4.438  -2.226  0.00  0.00    +0.169 C 
ATOM     10  O   UNL     1       1.143  -5.030  -1.311  0.00  0.00    -0.292 OA
BRANCH   7  11
ATOM     11  C   UNL     1       4.535  -4.999  -4.696  0.00  0.00    -0.043 A 
ATOM     12  C   UNL     1       3.971  -5.533  -5.839  0.00  0.00    +0.004 A 
ATOM     13  C   UNL     1       4.761  -6.211  -6.748  0.00  0.00    +0.000 A 
ATOM     14  C   UNL     1       6.116  -6.353  -6.515  0.00  0.00    +0.000 A 
ATOM     15  C   UNL     1       6.681  -5.819  -5.372  0.00  0.00    +0.000 A 
ATOM     16  C   UNL     1       5.891  -5.138  -4.464  0.00  0.00    +0.004 A 
ENDBRANCH   7  11
ENDBRANCH   1   3
BRANCH   1  17
ATOM     17  C   UNL     1       0.258  -0.911  -1.689  0.00  0.00    +0.055 C 
BRANCH  17  19
ATOM     18  C   UNL     1       1.020   1.452  -1.410  0.00  0.00    +0.004 C 
ATOM     19  C   UNL     1       1.313  -0.006  -1.050  0.00  0.00    +0.003 C 
ENDBRANCH  17  19
ENDBRANCH   1  17
BRANCH   2  20
ATOM     20  C   UNL     1      -0.612  -2.223   0.609  0.00  0.00    +0.146 C 
BRANCH  20  21
ATOM     21  C   UNL     1      -2.057  -2.728   0.629  0.00  0.00    +0.056 C 
BRANCH  21  22
ATOM     22  C   UNL     1      -2.842  -1.962   1.662  0.00  0.00    -0.037 C 
ATOM     23  C   UNL     1      -2.384  -0.975   2.465  0.00  0.00    -0.001 A 
ATOM     24  C   UNL     1      -1.067  -0.343   2.612  0.00  0.00    +0.013 A 
ATOM     25  C   UNL     1      -0.910   0.643   3.523  0.00  0.00    -0.050 A 
ATOM     26  C   UNL     1      -1.972   1.076   4.330  0.00  0.00    +0.005 A 
ATOM     27  C   UNL     1      -3.210   0.544   4.254  0.00  0.00    +0.026 A 
ATOM     28  C   UNL     1      -3.488  -0.500   3.329  0.00  0.00    +0.043 A 
ATOM     29  N   UNL     1      -4.586  -1.167   3.070  0.00  0.00    -0.378 N 
ATOM     30  C   UNL     1      -4.304  -2.138   2.007  0.00  0.00    +0.103 C 
ATOM     31  C   UNL     1      -5.173  -1.851   0.781  0.00  0.00    +0.035 C 
ATOM     32  C   UNL     1       0.440   1.294   3.676  0.00  0.00    +0.044 C 
ATOM     33  H   UNL     1      -5.443  -1.038   3.505  0.00  0.00    +0.160 HD
ENDBRANCH  21  22
ENDBRANCH  20  21
ENDBRANCH   2  20
TORSDOF 7
