REMARK  Name = ZINC00890955
REMARK  11 active torsions:
REMARK  status: ('A' for Active; 'I' for Inactive)
REMARK    1  A    between atoms: C_1  and  C_2
REMARK    2  A    between atoms: C_5  and  O_9
REMARK    3  A    between atoms: C_7  and  C_8
REMARK    4  A    between atoms: O_9  and  C_10
REMARK    5  A    between atoms: C_10  and  C_11
REMARK    6  A    between atoms: C_14  and  C_22
REMARK    7  A    between atoms: C_14  and  O_26
REMARK    8  A    between atoms: C_16  and  C_18
REMARK    9  A    between atoms: C_22  and  C_23
REMARK   10  A    between atoms: C_22  and  C_24
REMARK   11  A    between atoms: C_22  and  C_25
REMARK                            x       y       z     vdW  Elec       q    Type
REMARK                         _______ _______ _______ _____ _____    ______ ____
ROOT
ATOM      1  C   UNL     1      -1.779   1.998   4.683  0.00  0.00    +0.275 C 
ATOM      2  O   UNL     1      -2.470   2.662   5.427  0.00  0.00    -0.270 OA
ATOM      3  N   UNL     1      -1.315   2.534   3.537  0.00  0.00    -0.158 N 
ATOM      4  C   UNL     1      -1.676   3.857   3.000  0.00  0.00    +0.166 C 
ATOM      5  C   UNL     1      -0.859   3.944   1.695  0.00  0.00    +0.119 C 
ATOM      6  C   UNL     1      -0.121   2.625   1.643  0.00  0.00    +0.144 C 
ATOM      7  N   UNL     1      -0.415   1.928   2.663  0.00  0.00    -0.175 NA
ENDROOT
BRANCH   6   8
ATOM      8  C   UNL     1       0.826   2.204   0.549  0.00  0.00    +0.432 C 
ATOM      9  F   UNL     1       1.328   0.929   0.832  0.00  0.00    -0.165 F 
ATOM     10  F   UNL     1       1.885   3.115   0.472  0.00  0.00    -0.165 F 
ATOM     11  F   UNL     1       0.145   2.176  -0.672  0.00  0.00    -0.165 F 
ENDBRANCH   6   8
BRANCH   4  12
ATOM     12  C   UNL     1      -3.177   3.931   2.712  0.00  0.00    +0.010 C 
ATOM     13  C   UNL     1      -3.953   3.845   4.028  0.00  0.00    +0.015 C 
ATOM     14  C   UNL     1      -3.498   5.256   2.017  0.00  0.00    +0.015 C 
ATOM     15  C   UNL     1      -3.581   2.768   1.804  0.00  0.00    +0.015 C 
ENDBRANCH   4  12
BRANCH   4  16
ATOM     16  O   UNL     1      -1.286   4.891   3.905  0.00  0.00    -0.369 OA
ATOM     17  H   UNL     1      -0.338   4.912   4.094  0.00  0.00    +0.212 HD
ENDBRANCH   4  16
BRANCH   1  18
ATOM     18  C   UNL     1      -1.439   0.574   5.041  0.00  0.00    +0.326 C 
BRANCH  18  19
ATOM     19  O   UNL     1      -2.043   0.240   6.292  0.00  0.00    -0.483 OA
BRANCH  19  24
ATOM     20  C   UNL     1      -1.173  -4.972   8.242  0.00  0.00    +0.044 C 
ATOM     21  C   UNL     1      -1.406  -3.577   7.720  0.00  0.00    -0.047 A 
ATOM     22  C   UNL     1      -0.850  -3.190   6.515  0.00  0.00    +0.007 A 
ATOM     23  C   UNL     1      -1.067  -1.914   6.032  0.00  0.00    +0.046 A 
ATOM     24  C   UNL     1      -1.833  -1.017   6.763  0.00  0.00    +0.121 A 
ATOM     25  C   UNL     1      -2.389  -1.409   7.972  0.00  0.00    +0.049 A 
ATOM     26  C   UNL     1      -2.175  -2.688   8.448  0.00  0.00    -0.044 A 
ATOM     27  C   UNL     1      -2.778  -3.114   9.761  0.00  0.00    +0.044 C 
ENDBRANCH  19  24
ENDBRANCH  18  19
ENDBRANCH   1  18
TORSDOF 6
