REMARK  Name = ZINC39545582
REMARK  3 active torsions:
REMARK  status: ('A' for Active; 'I' for Inactive)
REMARK    1  A    between atoms: C_9  and  C_16
REMARK    2  A    between atoms: N_18  and  C_19
REMARK    3  A    between atoms: C_24  and  O_25
REMARK                            x       y       z     vdW  Elec       q    Type
REMARK                         _______ _______ _______ _____ _____    ______ ____
ROOT
ATOM      1  C   UNL     1      -1.403   0.391   0.989  0.00  0.00    +0.000 A 
ATOM      2  C   UNL     1      -0.463   1.405   0.967  0.00  0.00    +0.002 A 
ATOM      3  C   UNL     1       0.868   1.108   0.747  0.00  0.00    +0.023 A 
ATOM      4  C   UNL     1       1.257  -0.209   0.552  0.00  0.00    +0.027 A 
ATOM      5  C   UNL     1       0.315  -1.229   0.584  0.00  0.00    -0.043 A 
ATOM      6  C   UNL     1      -1.016  -0.922   0.798  0.00  0.00    +0.003 A 
ATOM      7  C   UNL     1       0.722  -2.676   0.405  0.00  0.00    -0.037 C 
ATOM      8  N   UNL     1       2.146  -2.791   0.697  0.00  0.00    +0.407 N 
ATOM      9  C   UNL     1       2.738  -4.097   0.359  0.00  0.00    +0.031 C 
ATOM     10  C   UNL     1       4.250  -3.775   0.227  0.00  0.00    +0.068 C 
ATOM     11  C   UNL     1       4.313  -2.285  -0.094  0.00  0.00    +0.136 C 
ATOM     12  C   UNL     1       2.873  -1.853  -0.206  0.00  0.00    +0.085 C 
ATOM     13  N   UNL     1       2.613  -0.508   0.310  0.00  0.00    -0.350 N 
ATOM     14  O   UNL     1       5.300  -1.601  -0.228  0.00  0.00    -0.298 OA
ATOM     15  H   UNL     1       3.323   0.133   0.473  0.00  0.00    +0.145 HD
ATOM     16  H   UNL     1       2.323  -2.567   1.664  0.00  0.00    -0.077 HD
ENDROOT
BRANCH   9  17
ATOM     17  C   UNL     1       2.184  -4.613  -0.944  0.00  0.00    +0.217 C 
ATOM     18  O   UNL     1       1.889  -3.836  -1.827  0.00  0.00    -0.276 OA
ATOM     19  N   UNL     1       2.016  -5.937  -1.128  0.00  0.00    -0.204 N 
ATOM     20 BR   UNL     1       2.466  -7.123   0.219  0.00  0.00    +0.044 Br
BRANCH  19  21
ATOM     21  C   UNL     1       1.501  -6.417  -2.340  0.00  0.00    +0.089 A 
ATOM     22  C   UNL     1       2.348  -6.641  -3.415  0.00  0.00    +0.028 A 
ATOM     23  C   UNL     1       1.837  -7.114  -4.609  0.00  0.00    +0.002 A 
ATOM     24  C   UNL     1       0.483  -7.364  -4.735  0.00  0.00    +0.004 A 
ATOM     25  C   UNL     1      -0.367  -7.143  -3.668  0.00  0.00    +0.047 A 
ATOM     26  C   UNL     1       0.138  -6.674  -2.466  0.00  0.00    +0.139 A 
BRANCH  26  27
ATOM     27  O   UNL     1      -0.696  -6.461  -1.413  0.00  0.00    -0.505 OA
ATOM     28  H   UNL     1      -1.069  -5.570  -1.381  0.00  0.00    +0.292 HD
ENDBRANCH  26  27
ENDBRANCH  19  21
ENDBRANCH   9  17
TORSDOF 3
