REMARK  Name = ZINC01832824
REMARK  7 active torsions:
REMARK  status: ('A' for Active; 'I' for Inactive)
REMARK    1  A    between atoms: C_1  and  C_2
REMARK    2  A    between atoms: C_2  and  C_32
REMARK    3  A    between atoms: N_6  and  C_7
REMARK    4  A    between atoms: C_12  and  O_13
REMARK    5  A    between atoms: O_13  and  C_14
REMARK    6  A    between atoms: C_25  and  O_30
REMARK    7  A    between atoms: O_30  and  C_31
REMARK                            x       y       z     vdW  Elec       q    Type
REMARK                         _______ _______ _______ _____ _____    ______ ____
ROOT
ATOM      1  C   UNL     1      -8.190  -0.318   1.518  0.00  0.00    +0.037 C 
ATOM      2  C   UNL     1      -7.263   0.393   0.529  0.00  0.00    +0.059 C 
ATOM      3  C   UNL     1      -5.931  -0.322   0.480  0.00  0.00    +0.030 A 
ATOM      4  C   UNL     1      -4.728   0.302   0.280  0.00  0.00    +0.029 A 
ATOM      5  C   UNL     1      -3.454  -0.331   0.189  0.00  0.00    +0.117 A 
ATOM      6  N   UNL     1      -2.299   0.284  -0.033  0.00  0.00    -0.236 NA
ATOM      7  S   UNL     1      -3.670  -2.091   0.414  0.00  0.00    -0.032 S 
ATOM      8  S   UNL     1      -5.745  -2.036   0.664  0.00  0.00    -0.052 S 
ATOM      9  C   UNL     1      -4.771   1.809   0.133  0.00  0.00    +0.010 A 
ATOM     10  C   UNL     1      -3.650   2.498  -0.302  0.00  0.00    +0.056 A 
ATOM     11  C   UNL     1      -3.715   3.878  -0.438  0.00  0.00    +0.121 A 
ATOM     12  C   UNL     1      -4.889   4.552  -0.133  0.00  0.00    +0.047 A 
ATOM     13  C   UNL     1      -6.001   3.864   0.321  0.00  0.00    +0.027 A 
ATOM     14  C   UNL     1      -5.944   2.486   0.467  0.00  0.00    +0.036 A 
ATOM     15  N   UNL     1      -7.043   1.777   0.969  0.00  0.00    -0.334 N 
ATOM     16  C   UNL     1      -7.900   0.392  -0.862  0.00  0.00    +0.037 C 
ATOM     17  H   UNL     1      -7.650   2.194   1.599  0.00  0.00    +0.147 HD
ENDROOT
BRANCH   6  18
ATOM     18  C   UNL     1      -1.131  -0.422   0.006  0.00  0.00    +0.109 A 
ATOM     19  C   UNL     1      -0.481  -0.639   1.224  0.00  0.00    +0.051 A 
ATOM     20  C   UNL     1       0.700  -1.354   1.255  0.00  0.00    +0.043 A 
ATOM     21  C   UNL     1       1.243  -1.855   0.084  0.00  0.00    +0.024 A 
ATOM     22  C   UNL     1       0.605  -1.651  -1.127  0.00  0.00    +0.050 A 
ATOM     23  C   UNL     1      -0.576  -0.932  -1.177  0.00  0.00    +0.154 A 
ATOM     24 CL   UNL     1       1.507  -1.624   2.768  0.00  0.00    -0.083 Cl
BRANCH  23  25
ATOM     25  O   UNL     1      -1.201  -0.727  -2.367  0.00  0.00    -0.454 OA
BRANCH  25  26
ATOM     26  C   UNL     1      -1.015   0.468  -2.987  0.00  0.00    +0.129 A 
ATOM     27  C   UNL     1      -0.123   1.392  -2.462  0.00  0.00    +0.046 A 
ATOM     28  C   UNL     1       0.068   2.604  -3.097  0.00  0.00    +0.004 A 
ATOM     29  C   UNL     1      -0.637   2.901  -4.249  0.00  0.00    +0.000 A 
ATOM     30  C   UNL     1      -1.530   1.984  -4.772  0.00  0.00    +0.004 A 
ATOM     31  C   UNL     1      -1.721   0.768  -4.144  0.00  0.00    +0.046 A 
ENDBRANCH  25  26
ENDBRANCH  23  25
ENDBRANCH   6  18
BRANCH  11  32
ATOM     32  O   UNL     1      -2.627   4.570  -0.871  0.00  0.00    -0.495 OA
ATOM     33  C   UNL     1      -2.765   5.988  -0.987  0.00  0.00    +0.277 C 
ENDBRANCH  11  32
TORSDOF 4
