REMARK  Name = ZINC60212584
REMARK  7 active torsions:
REMARK  status: ('A' for Active; 'I' for Inactive)
REMARK    1  A    between atoms: C_1  and  C_2
REMARK    2  A    between atoms: N_4  and  C_5
REMARK    3  A    between atoms: C_10  and  N_11
REMARK    4  A    between atoms: N_11  and  C_12
REMARK    5  A    between atoms: C_12  and  C_13
REMARK    6  A    between atoms: N_15  and  C_16
REMARK    7  A    between atoms: N_15  and  C_17
REMARK                            x       y       z     vdW  Elec       q    Type
REMARK                         _______ _______ _______ _____ _____    ______ ____
ROOT
ATOM      1  C   UNL     1       0.302  -2.908  -4.787  0.00  0.00    +0.197 C 
ENDROOT
BRANCH   1   2
ATOM      2  C   UNL     1       0.265  -1.968  -5.964  0.00  0.00    +0.233 C 
ATOM      3  O   UNL     1       0.162  -0.773  -5.782  0.00  0.00    -0.274 OA
ATOM      4  N   UNL     1       0.347  -2.454  -7.218  0.00  0.00    -0.296 N 
ATOM      5  C   UNL     1       0.471  -3.897  -7.437  0.00  0.00    +0.132 C 
BRANCH   4   6
ATOM      6  C   UNL     1       0.311  -1.540  -8.362  0.00  0.00    +0.106 C 
ATOM      7  C   UNL     1      -0.893  -1.879  -9.239  0.00  0.00    +0.027 C 
ATOM      8  C   UNL     1      -0.792  -1.064 -10.534  0.00  0.00    +0.007 C 
ATOM      9  C   UNL     1       0.370  -1.613 -11.359  0.00  0.00    +0.035 C 
ATOM     10  C   UNL     1       1.619  -1.702 -10.521  0.00  0.00    -0.042 A 
ATOM     11  C   UNL     1       1.591  -1.674  -9.145  0.00  0.00    -0.024 A 
ATOM     12  C   UNL     1       2.778  -1.768  -8.431  0.00  0.00    +0.006 A 
ATOM     13  C   UNL     1       3.985  -1.887  -9.091  0.00  0.00    +0.000 A 
ATOM     14  C   UNL     1       4.012  -1.913 -10.472  0.00  0.00    +0.000 A 
ATOM     15  C   UNL     1       2.834  -1.820 -11.182  0.00  0.00    +0.004 A 
ENDBRANCH   4   6
ENDBRANCH   1   2
BRANCH   1  16
ATOM     16  N   UNL     1       0.199  -2.139  -3.544  0.00  0.00    -0.334 N 
ATOM     17  H   UNL     1       0.121  -1.173  -3.576  0.00  0.00    +0.147 HD
BRANCH  16  23
ATOM     18  C   UNL     1       0.112  -2.068  -1.126  0.00  0.00    +0.055 A 
ATOM     19  C   UNL     1       0.119  -2.728   0.094  0.00  0.00    +0.026 A 
ATOM     20  C   UNL     1       0.230  -4.106   0.134  0.00  0.00    +0.022 A 
ATOM     21  C   UNL     1       0.334  -4.830  -1.040  0.00  0.00    +0.043 A 
ATOM     22  C   UNL     1       0.328  -4.180  -2.261  0.00  0.00    +0.044 A 
ATOM     23  C   UNL     1       0.211  -2.799  -2.310  0.00  0.00    +0.050 A 
ATOM     24 CL   UNL     1       0.474  -6.559  -0.981  0.00  0.00    -0.083 Cl
BRANCH  18  28
ATOM     25  C   UNL     1      -0.595   1.496  -0.136  0.00  0.00    +0.109 C 
ATOM     26  C   UNL     1      -0.585  -0.011  -0.150  0.00  0.00    +0.214 C 
ATOM     27  O   UNL     1      -1.103  -0.629   0.756  0.00  0.00    -0.276 OA
ATOM     28  N   UNL     1       0.000  -0.672  -1.169  0.00  0.00    -0.284 N 
ATOM     29  H   UNL     1       0.343  -0.181  -1.932  0.00  0.00    +0.155 HD
ENDBRANCH  18  28
ENDBRANCH  16  23
ENDBRANCH   1  16
TORSDOF 5
