REMARK  Name = ZINC30735426
REMARK  6 active torsions:
REMARK  status: ('A' for Active; 'I' for Inactive)
REMARK    1  A    between atoms: N_9  and  C_10
REMARK    2  A    between atoms: C_10  and  C_11
REMARK    3  A    between atoms: C_11  and  C_12
REMARK    4  A    between atoms: N_14  and  N_15
REMARK    5  A    between atoms: C_16  and  C_17
REMARK    6  A    between atoms: C_21  and  O_23
REMARK                            x       y       z     vdW  Elec       q    Type
REMARK                         _______ _______ _______ _____ _____    ______ ____
ROOT
ATOM      1  C   UNL     1      -4.874   5.111  -0.228  0.00  0.00    +0.119 C 
ENDROOT
BRANCH   1   2
ATOM      2  C   UNL     1      -3.579   5.881  -0.236  0.00  0.00    +0.234 C 
ATOM      3  O   UNL     1      -3.589   7.082  -0.412  0.00  0.00    -0.274 OA
ATOM      4  N   UNL     1      -2.411   5.237  -0.047  0.00  0.00    -0.207 N 
ATOM      5  H   UNL     1      -2.402   4.149   0.113  0.00  0.00    +0.177 HD
BRANCH   4   6
ATOM      6  N   UNL     1      -1.207   5.954  -0.055  0.00  0.00    -0.188 NA
ATOM      7  C   UNL     1      -0.075   5.322  -0.000  0.00  0.00    +0.138 C 
BRANCH   7   8
ATOM      8  C   UNL     1       0.018   3.932  -0.487  0.00  0.00    -0.002 A 
ATOM      9  C   UNL     1      -1.002   3.397  -1.279  0.00  0.00    +0.010 A 
ATOM     10  C   UNL     1      -0.909   2.099  -1.736  0.00  0.00    +0.004 A 
ATOM     11  C   UNL     1       0.185   1.321  -1.405  0.00  0.00    +0.045 A 
ATOM     12  C   UNL     1       1.203   1.844  -0.619  0.00  0.00    +0.117 A 
ATOM     13  C   UNL     1       1.124   3.147  -0.158  0.00  0.00    +0.054 A 
BRANCH  12  14
ATOM     14  O   UNL     1       2.279   1.075  -0.301  0.00  0.00    -0.507 OA
ATOM     15  H   UNL     1       3.085   1.489   0.322  0.00  0.00    +0.292 HD
ENDBRANCH  12  14
ENDBRANCH   7   8
ENDBRANCH   4   6
ENDBRANCH   1   2
BRANCH   1  16
ATOM     16  C   UNL     1      -6.041   6.072  -0.462  0.00  0.00    +0.131 C 
BRANCH  16  25
ATOM     17  C   UNL     1     -10.001   4.286   2.493  0.00  0.00    +0.001 A 
ATOM     18  C   UNL     1      -8.901   5.024   2.908  0.00  0.00    +0.002 A 
ATOM     19  C   UNL     1      -7.940   5.421   2.005  0.00  0.00    +0.026 A 
ATOM     20  C   UNL     1      -8.070   5.081   0.662  0.00  0.00    +0.050 A 
ATOM     21  C   UNL     1      -9.188   4.332   0.245  0.00  0.00    +0.003 A 
ATOM     22  C   UNL     1     -10.149   3.941   1.180  0.00  0.00    +0.010 A 
ATOM     23  C   UNL     1      -9.029   4.148  -1.194  0.00  0.00    -0.019 A 
ATOM     24  C   UNL     1      -7.888   4.765  -1.555  0.00  0.00    +0.023 A 
ATOM     25  N   UNL     1      -7.300   5.322  -0.455  0.00  0.00    -0.343 N 
ATOM     26  C   UNL     1      -7.363   4.793  -2.972  0.00  0.00    +0.054 C 
ATOM     27  C   UNL     1      -8.083   3.708  -3.781  0.00  0.00    +0.006 C 
ATOM     28  C   UNL     1      -9.595   3.835  -3.574  0.00  0.00    +0.005 C 
ATOM     29  C   UNL     1      -9.947   3.418  -2.140  0.00  0.00    +0.037 C 
ENDBRANCH  16  25
ENDBRANCH   1  16
TORSDOF 6
