REMARK  Name = ZINC28057845
REMARK  4 active torsions:
REMARK  status: ('A' for Active; 'I' for Inactive)
REMARK    1  A    between atoms: C_1  and  S_2
REMARK    2  A    between atoms: S_2  and  C_3
REMARK    3  A    between atoms: C_6  and  C_9
REMARK    4  A    between atoms: C_27  and  C_29
REMARK                            x       y       z     vdW  Elec       q    Type
REMARK                         _______ _______ _______ _____ _____    ______ ____
ROOT
ATOM      1  C   UNL     1       2.901  -1.397  -5.106  0.00  0.00    +0.234 C 
ATOM      2  C   UNL     1       1.912  -1.418  -6.250  0.00  0.00    +0.026 C 
ATOM      3  C   UNL     1       1.662  -0.287  -6.914  0.00  0.00    +0.050 C 
ATOM      4  C   UNL     1       2.384   0.943  -6.510  0.00  0.00    +0.039 A 
ATOM      5  C   UNL     1       1.949   2.202  -6.903  0.00  0.00    +0.033 A 
ATOM      6  C   UNL     1       2.653   3.322  -6.502  0.00  0.00    +0.042 A 
ATOM      7  C   UNL     1       3.785   3.191  -5.714  0.00  0.00    +0.023 A 
ATOM      8  C   UNL     1       4.224   1.940  -5.319  0.00  0.00    +0.048 A 
ATOM      9  C   UNL     1       3.529   0.812  -5.713  0.00  0.00    +0.131 A 
ATOM     10  O   UNL     1       3.925  -0.432  -5.344  0.00  0.00    -0.479 OA
ATOM     11 CL   UNL     1       2.117   4.901  -6.987  0.00  0.00    -0.084 Cl
ATOM     12  N   UNL     1       0.741  -0.227  -7.966  0.00  0.00    -0.282 N 
ATOM     13  C   UNL     1      -0.106  -1.310  -8.132  0.00  0.00    +0.240 A 
ATOM     14  N   UNL     1      -1.185  -1.455  -8.846  0.00  0.00    -0.092 NA
ATOM     15  N   UNL     1      -1.664  -2.643  -8.695  0.00  0.00    -0.021 NA
ATOM     16  N   UNL     1      -0.924  -3.327  -7.883  0.00  0.00    -0.042 NA
ATOM     17  N   UNL     1       0.117  -2.487  -7.491  0.00  0.00    -0.201 N 
ATOM     18  C   UNL     1       1.244  -2.724  -6.601  0.00  0.00    +0.177 C 
ATOM     19  H   UNL     1       0.712   0.656  -8.621  0.00  0.00    +0.155 HD
ENDROOT
BRANCH  18  20
ATOM     20  C   UNL     1       2.239  -3.626  -7.284  0.00  0.00    +0.017 A 
ATOM     21  C   UNL     1       2.837  -3.228  -8.465  0.00  0.00    +0.009 A 
ATOM     22  C   UNL     1       3.750  -4.054  -9.092  0.00  0.00    +0.001 A 
ATOM     23  C   UNL     1       4.067  -5.281  -8.539  0.00  0.00    +0.003 A 
ATOM     24  C   UNL     1       3.471  -5.682  -7.359  0.00  0.00    +0.039 A 
ATOM     25  C   UNL     1       2.560  -4.853  -6.727  0.00  0.00    +0.129 A 
ATOM     26  F   UNL     1       1.981  -5.241  -5.570  0.00  0.00    -0.205 F 
ENDBRANCH  18  20
BRANCH   1  30
ATOM     27  C   UNL     1       0.848  -0.411  -1.489  0.00  0.00    +0.008 A 
ATOM     28  C   UNL     1       1.123   0.578  -2.426  0.00  0.00    +0.015 A 
ATOM     29  C   UNL     1       1.792   0.257  -3.591  0.00  0.00    +0.008 A 
ATOM     30  C   UNL     1       2.177  -1.049  -3.831  0.00  0.00    -0.003 A 
ATOM     31  C   UNL     1       1.901  -2.037  -2.903  0.00  0.00    +0.008 A 
ATOM     32  C   UNL     1       1.238  -1.722  -1.734  0.00  0.00    +0.015 A 
BRANCH  27  34
ATOM     33  C   UNL     1      -0.289   1.781  -0.131  0.00  0.00    +0.090 C 
ATOM     34  S   UNL     1       0.002  -0.004   0.002  0.00  0.00    -0.129 S 
ENDBRANCH  27  34
ENDBRANCH   1  30
TORSDOF 3
