REMARK  Name = ZINC40944631
REMARK  18 active torsions:
REMARK  status: ('A' for Active; 'I' for Inactive)
REMARK    1  A    between atoms: C_1  and  C_2
REMARK    2  A    between atoms: C_2  and  C_3
REMARK    3  A    between atoms: C_6  and  C_9
REMARK    4  A    between atoms: C_12  and  N_19
REMARK    5  A    between atoms: C_13  and  C_14
REMARK    6  A    between atoms: C_14  and  O_16
REMARK    7  A    between atoms: O_16  and  C_17
REMARK    8  A    between atoms: C_17  and  C_18
REMARK    9  A    between atoms: C_20  and  C_22
REMARK   10  A    between atoms: C_23  and  C_24
REMARK   11  A    between atoms: C_27  and  O_32
REMARK   12  A    between atoms: C_28  and  O_30
REMARK   13  A    between atoms: O_30  and  C_31
REMARK   14  A    between atoms: O_32  and  C_33
REMARK   15  A    between atoms: C_33  and  C_34
REMARK   16  A    between atoms: C_34  and  C_35
REMARK   17  A    between atoms: C_35  and  C_36
REMARK   18  A    between atoms: C_35  and  C_37
REMARK                            x       y       z     vdW  Elec       q    Type
REMARK                         _______ _______ _______ _____ _____    ______ ____
ROOT
ATOM      1  N   UNL     1      -8.880  -1.575  -1.280  0.00  0.00    -0.276 N 
ATOM      2  C   UNL     1     -10.024  -2.255  -1.067  0.00  0.00    +0.241 C 
ATOM      3  O   UNL     1     -10.033  -3.211  -0.313  0.00  0.00    -0.270 OA
ATOM      4  H   UNL     1      -8.873  -0.813  -1.881  0.00  0.00    +0.156 HD
ENDROOT
BRANCH   1   8
ATOM      5  C   UNL     1      -5.400  -1.997   0.043  0.00  0.00    +0.005 A 
ATOM      6  C   UNL     1      -5.771  -3.071   0.787  0.00  0.00    +0.056 A 
ATOM      7  S   UNL     1      -7.505  -3.239   0.427  0.00  0.00    -0.080 S 
ATOM      8  C   UNL     1      -7.715  -1.963  -0.642  0.00  0.00    +0.087 A 
ATOM      9  C   UNL     1      -6.460  -1.383  -0.737  0.00  0.00    +0.095 A 
BRANCH   5  13
ATOM     10  C   UNL     1      -1.412  -0.526   0.013  0.00  0.00    -0.048 A 
ATOM     11  C   UNL     1      -2.049  -0.765   1.217  0.00  0.00    +0.004 A 
ATOM     12  C   UNL     1      -3.343  -1.243   1.233  0.00  0.00    +0.009 A 
ATOM     13  C   UNL     1      -4.009  -1.484   0.032  0.00  0.00    -0.017 A 
ATOM     14  C   UNL     1      -3.362  -1.240  -1.178  0.00  0.00    +0.009 A 
ATOM     15  C   UNL     1      -2.070  -0.758  -1.182  0.00  0.00    +0.004 A 
BRANCH  10  17
ATOM     16  C   UNL     1      -0.019   1.526   0.010  0.00  0.00    +0.009 C 
ATOM     17  C   UNL     1       0.002  -0.004   0.002  0.00  0.00    +0.032 C 
ENDBRANCH  10  17
ENDBRANCH   5  13
BRANCH   9  18
ATOM     18  C   UNL     1      -6.215  -0.215  -1.582  0.00  0.00    +0.342 C 
ATOM     19  O   UNL     1      -5.885  -0.363  -2.744  0.00  0.00    -0.245 OA
BRANCH  18  20
ATOM     20  O   UNL     1      -6.354   1.027  -1.074  0.00  0.00    -0.461 OA
BRANCH  20  21
ATOM     21  C   UNL     1      -6.099   2.122  -1.957  0.00  0.00    +0.229 C 
ATOM     22  C   UNL     1      -6.307   3.440  -1.208  0.00  0.00    +0.048 C 
ENDBRANCH  20  21
ENDBRANCH  18  20
ENDBRANCH   9  18
ENDBRANCH   1   8
BRANCH   2  23
ATOM     23  C   UNL     1     -11.254  -1.845  -1.742  0.00  0.00    +0.068 C 
ATOM     24  C   UNL     1     -12.401  -2.526  -1.528  0.00  0.00    +0.013 C 
BRANCH  24  25
ATOM     25  C   UNL     1     -13.638  -2.114  -2.207  0.00  0.00    -0.021 A 
ATOM     26  C   UNL     1     -13.629  -1.018  -3.078  0.00  0.00    +0.012 A 
ATOM     27  C   UNL     1     -14.789  -0.634  -3.713  0.00  0.00    +0.050 A 
ATOM     28  C   UNL     1     -15.970  -1.330  -3.489  0.00  0.00    +0.162 A 
ATOM     29  C   UNL     1     -15.988  -2.422  -2.622  0.00  0.00    +0.162 A 
ATOM     30  C   UNL     1     -14.827  -2.818  -1.987  0.00  0.00    +0.057 A 
BRANCH  29  31
ATOM     31  O   UNL     1     -17.146  -3.100  -2.406  0.00  0.00    -0.491 OA
ATOM     32  C   UNL     1     -17.091  -4.208  -1.505  0.00  0.00    +0.277 C 
ENDBRANCH  29  31
BRANCH  28  33
ATOM     33  O   UNL     1     -17.112  -0.946  -4.117  0.00  0.00    -0.488 OA
BRANCH  33  34
ATOM     34  C   UNL     1     -17.023   0.181  -4.992  0.00  0.00    +0.229 C 
BRANCH  34  35
ATOM     35  C   UNL     1     -18.398   0.461  -5.603  0.00  0.00    +0.044 C 
BRANCH  35  36
ATOM     36  C   UNL     1     -18.303   1.667  -6.539  0.00  0.00    -0.014 C 
ATOM     37  C   UNL     1     -19.645   1.872  -7.245  0.00  0.00    +0.007 C 
ATOM     38  C   UNL     1     -17.959   2.918  -5.727  0.00  0.00    +0.007 C 
ENDBRANCH  35  36
ENDBRANCH  34  35
ENDBRANCH  33  34
ENDBRANCH  28  33
ENDBRANCH  24  25
ENDBRANCH   2  23
TORSDOF 13
