REMARK  Name = ZINC40014255
REMARK  6 active torsions:
REMARK  status: ('A' for Active; 'I' for Inactive)
REMARK    1  A    between atoms: C_7  and  C_11
REMARK    2  A    between atoms: C_11  and  O_13
REMARK    3  A    between atoms: O_13  and  C_14
REMARK    4  A    between atoms: C_14  and  C_15
REMARK    5  A    between atoms: N_17  and  C_18
REMARK    6  A    between atoms: C_20  and  C_29
REMARK                            x       y       z     vdW  Elec       q    Type
REMARK                         _______ _______ _______ _____ _____    ______ ____
ROOT
ATOM      1  C   UNL     1       1.181  -6.887  -0.553  0.00  0.00    +0.252 C 
ATOM      2  O   UNL     1       2.301  -6.897  -1.019  0.00  0.00    -0.272 OA
ATOM      3  N   UNL     1       0.650  -8.019  -0.049  0.00  0.00    -0.299 N 
ATOM      4  H   UNL     1      -0.245  -8.011   0.323  0.00  0.00    +0.150 HD
ENDROOT
BRANCH   3   5
ATOM      5  C   UNL     1       1.427  -9.261  -0.063  0.00  0.00    +0.151 C 
ATOM      6  C   UNL     1       1.032 -10.191   1.109  0.00  0.00    +0.132 C 
ATOM      7  C   UNL     1       2.232 -10.902   1.683  0.00  0.00    -0.046 C 
ATOM      8  C   UNL     1       3.430 -10.396   1.420  0.00  0.00    -0.013 C 
ATOM      9  S   UNL     1       3.186  -8.964   0.393  0.00  0.00    -0.106 S 
ATOM     10  C   UNL     1       4.757 -10.922   1.892  0.00  0.00    +0.042 C 
ATOM     11  C   UNL     1       4.516 -11.925   3.026  0.00  0.00    +0.005 C 
ATOM     12  C   UNL     1       3.415 -12.896   2.589  0.00  0.00    +0.005 C 
ATOM     13  C   UNL     1       2.078 -12.159   2.536  0.00  0.00    +0.032 C 
BRANCH   6  14
ATOM     14  C   UNL     1       0.386  -9.368   2.194  0.00  0.00    +0.220 C 
ATOM     15  O   UNL     1       1.074  -8.804   3.018  0.00  0.00    -0.275 OA
ATOM     16  N   UNL     1      -0.957  -9.259   2.248  0.00  0.00    -0.329 N 
ATOM     17  H   UNL     1      -1.509  -9.767   1.633  0.00  0.00    +0.145 HD
ATOM     18  H   UNL     1      -1.370  -8.673   2.901  0.00  0.00    +0.145 HD
ENDBRANCH   6  14
ENDBRANCH   3   5
BRANCH   1  19
ATOM     19  C   UNL     1       0.382  -5.609  -0.539  0.00  0.00    +0.328 C 
BRANCH  19  20
ATOM     20  O   UNL     1       1.154  -4.558  -1.124  0.00  0.00    -0.451 OA
BRANCH  20  21
ATOM     21  C   UNL     1       0.580  -3.339  -1.188  0.00  0.00    +0.358 C 
ATOM     22  O   UNL     1      -0.547  -3.174  -0.759  0.00  0.00    -0.243 OA
BRANCH  21  29
ATOM     23  C   UNL     1      -0.391   1.135  -1.902  0.00  0.00    +0.001 A 
ATOM     24  C   UNL     1       0.666   1.811  -2.511  0.00  0.00    +0.002 A 
ATOM     25  C   UNL     1       1.825   1.182  -2.837  0.00  0.00    +0.030 A 
ATOM     26  C   UNL     1       1.974  -0.190  -2.556  0.00  0.00    +0.093 A 
ATOM     27  C   UNL     1       0.856  -0.897  -1.913  0.00  0.00    +0.034 A 
ATOM     28  C   UNL     1      -0.312  -0.190  -1.604  0.00  0.00    +0.012 A 
ATOM     29  C   UNL     1       1.311  -2.216  -1.774  0.00  0.00    +0.150 A 
ATOM     30  N   UNL     1       2.570  -2.243  -2.293  0.00  0.00    -0.270 N 
ATOM     31  H   UNL     1       3.128  -3.035  -2.328  0.00  0.00    +0.189 HD
ATOM     32  N   UNL     1       2.928  -1.089  -2.730  0.00  0.00    -0.173 NA
ENDBRANCH  21  29
ENDBRANCH  20  21
ENDBRANCH  19  20
ENDBRANCH   1  19
TORSDOF 6
