REMARK  Name = ZINC35779043
REMARK  13 active torsions:
REMARK  status: ('A' for Active; 'I' for Inactive)
REMARK    1  A    between atoms: C_1  and  C_2
REMARK    2  A    between atoms: C_2  and  C_3
REMARK    3  A    between atoms: C_2  and  C_4
REMARK    4  A    between atoms: C_4  and  N_5
REMARK    5  A    between atoms: N_5  and  C_6
REMARK    6  A    between atoms: N_5  and  C_16
REMARK    7  A    between atoms: C_6  and  C_7
REMARK    8  A    between atoms: C_7  and  C_9
REMARK    9  A    between atoms: C_7  and  O_15
REMARK   10  A    between atoms: C_16  and  C_17
REMARK   11  A    between atoms: C_27  and  C_29
REMARK   12  A    between atoms: C_29  and  O_30
REMARK   13  A    between atoms: O_30  and  C_31
REMARK                            x       y       z     vdW  Elec       q    Type
REMARK                         _______ _______ _______ _____ _____    ______ ____
ROOT
ATOM      1  C   UNL     1      -0.206  -2.903  -0.685  0.00  0.00    +0.200 C 
ATOM      2  O   UNL     1       0.493  -1.943  -0.930  0.00  0.00    -0.278 OA
ATOM      3  N   UNL     1       0.356  -4.068  -0.308  0.00  0.00    -0.292 N 
ATOM      4  C   UNL     1      -0.482  -5.240  -0.014  0.00  0.00    +0.113 C 
ATOM      5  C   UNL     1      -0.171  -6.329  -1.053  0.00  0.00    +0.061 C 
ATOM      6  C   UNL     1       1.309  -6.395  -1.248  0.00  0.00    -0.004 A 
ATOM      7  C   UNL     1       2.242  -5.472  -0.888  0.00  0.00    -0.014 A 
ATOM      8  C   UNL     1       3.569  -5.771  -1.193  0.00  0.00    +0.013 A 
ATOM      9  C   UNL     1       3.875  -6.936  -1.810  0.00  0.00    +0.046 A 
ATOM     10  S   UNL     1       2.265  -7.687  -1.998  0.00  0.00    -0.101 S 
ATOM     11  C   UNL     1       1.815  -4.187  -0.190  0.00  0.00    +0.144 C 
ENDROOT
BRANCH   1  12
ATOM     12  C   UNL     1      -1.705  -2.793  -0.803  0.00  0.00    +0.019 C 
BRANCH  12  13
ATOM     13  N   UNL     1      -2.062  -1.441  -1.253  0.00  0.00    +0.387 N 
ATOM     14  H   UNL     1      -1.573  -1.231  -2.110  0.00  0.00    -0.081 HD
BRANCH  13  15
ATOM     15  C   UNL     1      -1.683  -0.466  -0.222  0.00  0.00    -0.075 C 
BRANCH  15  17
ATOM     16  C   UNL     1      -1.407  -0.111   2.236  0.00  0.00    +0.005 C 
ATOM     17  C   UNL     1      -1.945  -1.060   1.163  0.00  0.00    -0.034 C 
ATOM     18  C   UNL     1      -3.450  -1.252   1.360  0.00  0.00    +0.005 C 
ENDBRANCH  15  17
ENDBRANCH  13  15
BRANCH  13  19
ATOM     19  C   UNL     1      -3.511  -1.370  -1.486  0.00  0.00    -0.042 C 
BRANCH  19  20
ATOM     20  C   UNL     1      -3.864  -0.008  -2.088  0.00  0.00    +0.128 C 
BRANCH  20  21
ATOM     21  C   UNL     1      -5.361   0.113  -2.213  0.00  0.00    -0.021 A 
ATOM     22  C   UNL     1      -6.018  -0.492  -3.269  0.00  0.00    +0.006 A 
ATOM     23  C   UNL     1      -7.391  -0.381  -3.383  0.00  0.00    +0.000 A 
ATOM     24  C   UNL     1      -8.108   0.334  -2.442  0.00  0.00    +0.000 A 
ATOM     25  C   UNL     1      -7.451   0.938  -1.386  0.00  0.00    +0.000 A 
ATOM     26  C   UNL     1      -6.079   0.823  -1.269  0.00  0.00    +0.006 A 
ENDBRANCH  20  21
BRANCH  20  27
ATOM     27  O   UNL     1      -3.267   0.110  -3.381  0.00  0.00    -0.389 OA
ATOM     28  H   UNL     1      -3.557  -0.564  -4.011  0.00  0.00    +0.210 HD
ENDBRANCH  20  27
ENDBRANCH  19  20
ENDBRANCH  13  19
ENDBRANCH  12  13
ENDBRANCH   1  12
BRANCH  11  29
ATOM     29  C   UNL     1       2.212  -4.250   1.287  0.00  0.00    +0.256 C 
BRANCH  29  30
ATOM     30  O   UNL     1       1.691  -5.445   1.870  0.00  0.00    -0.490 OA
BRANCH  30  31
ATOM     31  C   UNL     1       1.955  -5.656   3.187  0.00  0.00    +0.123 A 
ATOM     32  C   UNL     1       2.696  -4.727   3.903  0.00  0.00    +0.046 A 
ATOM     33  C   UNL     1       2.964  -4.942   5.241  0.00  0.00    +0.006 A 
ATOM     34  C   UNL     1       2.495  -6.082   5.868  0.00  0.00    +0.038 A 
ATOM     35  C   UNL     1       1.755  -7.010   5.155  0.00  0.00    +0.127 A 
ATOM     36  C   UNL     1       1.479  -6.796   3.816  0.00  0.00    +0.084 A 
ATOM     37  F   UNL     1       1.297  -8.123   5.769  0.00  0.00    -0.205 F 
ENDBRANCH  30  31
ENDBRANCH  29  30
ENDBRANCH  11  29
TORSDOF 11
