REMARK  Name = ZINC02921806
REMARK  11 active torsions:
REMARK  status: ('A' for Active; 'I' for Inactive)
REMARK    1  A    between atoms: C_1  and  C_2
REMARK    2  A    between atoms: C_5  and  C_9
REMARK    3  A    between atoms: C_7  and  C_8
REMARK    4  A    between atoms: C_9  and  C_11
REMARK    5  A    between atoms: C_11  and  S_12
REMARK    6  A    between atoms: S_12  and  C_13
REMARK    7  A    between atoms: C_14  and  C_31
REMARK    8  A    between atoms: C_15  and  C_24
REMARK    9  A    between atoms: C_17  and  C_21
REMARK   10  A    between atoms: C_18  and  C_20
REMARK   11  A    between atoms: C_21  and  C_23
REMARK                            x       y       z     vdW  Elec       q    Type
REMARK                         _______ _______ _______ _____ _____    ______ ____
ROOT
ATOM      1  C   UNL     1      -1.484  -2.389   0.009  0.00  0.00    +0.080 C 
ATOM      2  C   UNL     1      -2.459  -3.336   0.012  0.00  0.00    +0.069 C 
ATOM      3  C   UNL     1      -2.125  -4.800  -0.014  0.00  0.00    +0.096 C 
ATOM      4  C   UNL     1      -0.685  -5.025   0.348  0.00  0.00    +0.024 C 
ATOM      5  C   UNL     1       0.215  -4.020   0.331  0.00  0.00    +0.013 C 
ATOM      6  N   UNL     1      -0.155  -2.752  -0.015  0.00  0.00    -0.312 N 
ATOM      7  C   UNL     1       1.650  -4.303   0.694  0.00  0.00    +0.061 C 
ATOM      8  H   UNL     1       0.610  -2.020  -0.314  0.00  0.00    +0.152 HD
ENDROOT
BRANCH   3   9
ATOM      9  C   UNL     1      -2.379  -5.342  -1.397  0.00  0.00    -0.035 A 
ATOM     10  C   UNL     1      -1.701  -4.817  -2.481  0.00  0.00    +0.005 A 
ATOM     11  C   UNL     1      -1.930  -5.317  -3.749  0.00  0.00    +0.015 A 
ATOM     12  C   UNL     1      -2.846  -6.337  -3.934  0.00  0.00    +0.018 A 
ATOM     13  C   UNL     1      -3.529  -6.859  -2.850  0.00  0.00    +0.015 A 
ATOM     14  C   UNL     1      -3.295  -6.361  -1.582  0.00  0.00    +0.005 A 
ATOM     15 BR   UNL     1      -3.166  -7.017  -5.670  0.00  0.00    -0.050 Br
ENDBRANCH   3   9
BRANCH   4  16
ATOM     16  C   UNL     1      -0.265  -6.314   0.714  0.00  0.00    +0.159 C 
ATOM     17  O   UNL     1       0.914  -6.537   0.905  0.00  0.00    -0.293 OA
ATOM     18  C   UNL     1      -1.276  -7.420   0.869  0.00  0.00    +0.091 C 
ENDBRANCH   4  16
BRANCH   2  19
ATOM     19  C   UNL     1      -3.832  -2.929   0.041  0.00  0.00    +0.098 C 
ATOM     20  N   UNL     1      -4.921  -2.607   0.064  0.00  0.00    -0.191 NA
ENDBRANCH   2  19
BRANCH   1  21
ATOM     21  S   UNL     1      -1.922  -0.682   0.029  0.00  0.00    -0.101 S 
BRANCH  21  22
ATOM     22  C   UNL     1      -0.274   0.066   0.016  0.00  0.00    +0.155 C 
BRANCH  22  23
ATOM     23  C   UNL     1      -0.404   1.567   0.031  0.00  0.00    +0.173 C 
ATOM     24  O   UNL     1      -1.502   2.081   0.043  0.00  0.00    -0.291 OA
BRANCH  23  29
ATOM     25  C   UNL     1       4.308   4.860   0.005  0.00  0.00    +0.044 C 
ATOM     26  C   UNL     1       3.073   3.997   0.012  0.00  0.00    -0.047 A 
ATOM     27  C   UNL     1       3.196   2.618  -0.002  0.00  0.00    +0.004 A 
ATOM     28  C   UNL     1       2.071   1.822   0.010  0.00  0.00    +0.011 A 
ATOM     29  C   UNL     1       0.802   2.410   0.024  0.00  0.00    +0.019 A 
ATOM     30  C   UNL     1       0.686   3.804   0.038  0.00  0.00    +0.015 A 
ATOM     31  C   UNL     1       1.821   4.587   0.031  0.00  0.00    -0.047 A 
ATOM     32  C   UNL     1       1.698   6.089   0.045  0.00  0.00    +0.044 C 
ENDBRANCH  23  29
ENDBRANCH  22  23
ENDBRANCH  21  22
ENDBRANCH   1  21
TORSDOF 7
