REMARK  Name = ZINC40611844
REMARK  6 active torsions:
REMARK  status: ('A' for Active; 'I' for Inactive)
REMARK    1  A    between atoms: C_1  and  C_2
REMARK    2  A    between atoms: C_11  and  N_12
REMARK    3  A    between atoms: C_14  and  N_32
REMARK    4  A    between atoms: C_15  and  N_19
REMARK    5  A    between atoms: C_22  and  C_25
REMARK    6  A    between atoms: C_25  and  C_26
REMARK                            x       y       z     vdW  Elec       q    Type
REMARK                         _______ _______ _______ _____ _____    ______ ____
ROOT
ATOM      1  N   UNL     1       0.064  -4.885  -1.142  0.00  0.00    -0.297 N 
ATOM      2  C   UNL     1       0.189  -6.266  -1.087  0.00  0.00    +0.159 A 
ATOM      3  C   UNL     1       0.304  -7.011  -2.257  0.00  0.00    +0.206 A 
ATOM      4  C   UNL     1       0.427  -8.393  -2.148  0.00  0.00    +0.157 A 
ATOM      5  N   UNL     1       0.431  -8.948  -0.937  0.00  0.00    -0.218 NA
ATOM      6  C   UNL     1       0.320  -8.208   0.147  0.00  0.00    +0.225 A 
ATOM      7  N   UNL     1       0.206  -6.896   0.086  0.00  0.00    -0.218 NA
ATOM      8  H   UNL     1      -0.030  -4.441  -1.999  0.00  0.00    +0.154 HD
ENDROOT
BRANCH   1  19
ATOM      9  C   UNL     1      -2.362   0.938   0.388  0.00  0.00    +0.063 C 
ATOM     10  C   UNL     1      -1.715  -0.418   0.280  0.00  0.00    +0.013 A 
ATOM     11  C   UNL     1      -1.771  -1.101  -0.933  0.00  0.00    +0.021 A 
ATOM     12  C   UNL     1      -1.189  -2.333  -1.049  0.00  0.00    +0.013 A 
ATOM     13  C   UNL     1      -0.547  -2.872   0.078  0.00  0.00    +0.020 A 
ATOM     14  C   UNL     1      -0.527  -2.126   1.282  0.00  0.00    +0.048 A 
ATOM     15  N   UNL     1      -1.111  -0.923   1.328  0.00  0.00    -0.358 N 
ATOM     16  C   UNL     1       0.115  -2.662   2.411  0.00  0.00    +0.026 A 
ATOM     17  C   UNL     1       0.708  -3.886   2.341  0.00  0.00    +0.004 A 
ATOM     18  C   UNL     1       0.694  -4.627   1.165  0.00  0.00    +0.024 A 
ATOM     19  C   UNL     1       0.075  -4.137   0.033  0.00  0.00    +0.042 A 
ATOM     20  H   UNL     1      -1.090  -0.416   2.155  0.00  0.00    +0.166 HD
ENDBRANCH   1  19
BRANCH   4  21
ATOM     21  N   UNL     1       0.544  -9.181  -3.283  0.00  0.00    -0.313 N 
ATOM     22  C   UNL     1       1.855  -9.406  -3.906  0.00  0.00    +0.107 C 
ATOM     23  C   UNL     1       2.082 -10.914  -4.048  0.00  0.00    +0.023 C 
ATOM     24  C   UNL     1       0.908 -11.533  -4.811  0.00  0.00    -0.004 C 
ATOM     25  C   UNL     1      -0.387 -11.310  -4.027  0.00  0.00    +0.023 C 
ATOM     26  C   UNL     1      -0.641  -9.811  -3.882  0.00  0.00    +0.107 C 
BRANCH  24  27
ATOM     27  C   UNL     1       1.148 -13.034  -4.984  0.00  0.00    +0.038 C 
BRANCH  27  28
ATOM     28  C   UNL     1       0.055 -13.621  -5.841  0.00  0.00    -0.047 A 
ATOM     29  C   UNL     1      -1.100 -14.102  -5.254  0.00  0.00    +0.003 A 
ATOM     30  C   UNL     1      -2.102 -14.641  -6.039  0.00  0.00    +0.000 A 
ATOM     31  C   UNL     1      -1.949 -14.698  -7.412  0.00  0.00    +0.000 A 
ATOM     32  C   UNL     1      -0.794 -14.216  -7.999  0.00  0.00    +0.000 A 
ATOM     33  C   UNL     1       0.206 -13.673  -7.214  0.00  0.00    +0.003 A 
ENDBRANCH  27  28
ENDBRANCH  24  27
ENDBRANCH   4  21
BRANCH   3  34
ATOM     34  N   UNL     1       0.295  -6.352  -3.582  0.00  0.00    +0.063 N 
ATOM     35  O   UNL     1       1.338  -6.067  -4.123  0.00  0.00    -0.126 OA
ATOM     36  O   UNL     1      -0.756  -6.098  -4.123  0.00  0.00    -0.126 OA
ENDBRANCH   3  34
TORSDOF 5
