REMARK  Name = ZINC08730253
REMARK  3 active torsions:
REMARK  status: ('A' for Active; 'I' for Inactive)
REMARK    1  A    between atoms: C_6  and  C_7
REMARK    2  A    between atoms: C_10  and  C_12
REMARK    3  A    between atoms: C_23  and  S_24
REMARK                            x       y       z     vdW  Elec       q    Type
REMARK                         _______ _______ _______ _____ _____    ______ ____
ROOT
ATOM      1  C   UNL     1       2.467   1.490  -0.026  0.00  0.00    +0.302 C 
ATOM      2  O   UNL     1       1.301   1.831  -0.089  0.00  0.00    -0.263 OA
ATOM      3  N   UNL     1       3.438   2.421   0.049  0.00  0.00    -0.218 N 
ATOM      4  C   UNL     1       4.727   2.034   0.029  0.00  0.00    +0.270 A 
ATOM      5  O   UNL     1       5.016   0.854  -0.056  0.00  0.00    -0.266 OA
ATOM      6  C   UNL     1       5.753   3.029   0.105  0.00  0.00    +0.076 A 
ATOM      7  C   UNL     1       7.205   2.836   0.094  0.00  0.00    -0.023 A 
ATOM      8  C   UNL     1       7.970   3.942   0.183  0.00  0.00    -0.004 A 
ATOM      9  S   UNL     1       6.822   5.289   0.283  0.00  0.00    -0.073 S 
ATOM     10  C   UNL     1       5.312   4.359   0.206  0.00  0.00    +0.117 A 
ATOM     11  N   UNL     1       4.022   4.677   0.226  0.00  0.00    -0.216 NA
ATOM     12  C   UNL     1       3.096   3.744   0.150  0.00  0.00    +0.177 A 
ATOM     13  C   UNL     1       9.467   4.012   0.193  0.00  0.00    +0.043 C 
ATOM     14  C   UNL     1      10.016   2.604   0.460  0.00  0.00    +0.005 C 
ATOM     15  C   UNL     1       9.295   1.613  -0.458  0.00  0.00    +0.005 C 
ATOM     16  C   UNL     1       7.842   1.453  -0.011  0.00  0.00    +0.037 C 
ENDROOT
BRANCH   1  20
ATOM     17  C   UNL     1       3.734  -1.845  -0.598  0.00  0.00    +0.136 A 
ATOM     18  C   UNL     1       2.931  -2.097   0.478  0.00  0.00    +0.050 A 
ATOM     19  C   UNL     1       2.337  -0.885   0.841  0.00  0.00    +0.055 A 
ATOM     20  C   UNL     1       2.814   0.070  -0.033  0.00  0.00    +0.193 A 
ATOM     21  O   UNL     1       3.659  -0.536  -0.894  0.00  0.00    -0.450 OA
BRANCH  17  27
ATOM     22  C   UNL     1       4.458  -4.197  -0.982  0.00  0.00    +0.013 A 
ATOM     23  C   UNL     1       5.223  -5.125  -1.657  0.00  0.00    +0.021 A 
ATOM     24  C   UNL     1       6.093  -4.716  -2.653  0.00  0.00    +0.041 A 
ATOM     25  C   UNL     1       6.197  -3.374  -2.982  0.00  0.00    +0.021 A 
ATOM     26  C   UNL     1       5.434  -2.437  -2.319  0.00  0.00    +0.013 A 
ATOM     27  C   UNL     1       4.554  -2.843  -1.313  0.00  0.00    +0.017 A 
ATOM     28 CL   UNL     1       7.058  -5.889  -3.493  0.00  0.00    -0.084 Cl
ENDBRANCH  17  27
ENDBRANCH   1  20
BRANCH  12  29
ATOM     29  S   UNL     1       1.395   4.203   0.178  0.00  0.00    -0.105 S 
ATOM     30  H   UNL     1       1.519   5.588   0.410  0.00  0.00    +0.110 HD
ENDBRANCH  12  29
TORSDOF 3
