REMARK  Name = ZINC01671122
REMARK  6 active torsions:
REMARK  status: ('A' for Active; 'I' for Inactive)
REMARK    1  A    between atoms: C_1  and  C_2
REMARK    2  A    between atoms: C_2  and  C_20
REMARK    3  A    between atoms: C_5  and  C_8
REMARK    4  A    between atoms: C_5  and  C_14
REMARK    5  A    between atoms: C_20  and  C_21
REMARK    6  A    between atoms: C_21  and  N_45
REMARK                            x       y       z     vdW  Elec       q    Type
REMARK                         _______ _______ _______ _____ _____    ______ ____
ROOT
ATOM      1  C   UNL     1      -2.966   3.414   0.047  0.00  0.00    +0.016 C 
ATOM      2  C   UNL     1      -1.520   3.915   0.038  0.00  0.00    +0.013 C 
ATOM      3  C   UNL     1      -0.807   3.402  -1.218  0.00  0.00    +0.172 C 
ATOM      4  O   UNL     1      -0.710   1.976  -1.148  0.00  0.00    -0.340 OA
ATOM      5  C   UNL     1      -0.018   1.503   0.010  0.00  0.00    +0.224 C 
ATOM      6  O   UNL     1      -0.688   1.964   1.187  0.00  0.00    -0.340 OA
ATOM      7  C   UNL     1      -0.784   3.389   1.274  0.00  0.00    +0.172 C 
ENDROOT
BRANCH   5   8
ATOM      8  C   UNL     1       0.002  -0.004   0.002  0.00  0.00    +0.016 A 
ATOM      9  C   UNL     1      -0.006  -0.689  -1.199  0.00  0.00    +0.009 A 
ATOM     10  C   UNL     1       0.018  -2.071  -1.206  0.00  0.00    +0.000 A 
ATOM     11  C   UNL     1       0.039  -2.768  -0.013  0.00  0.00    +0.000 A 
ATOM     12  C   UNL     1       0.042  -2.084   1.188  0.00  0.00    +0.000 A 
ATOM     13  C   UNL     1       0.023  -0.702   1.195  0.00  0.00    +0.009 A 
ENDBRANCH   5   8
BRANCH   5  14
ATOM     14  C   UNL     1       1.395   2.024  -0.000  0.00  0.00    +0.016 A 
ATOM     15  C   UNL     1       2.053   2.263   1.192  0.00  0.00    +0.009 A 
ATOM     16  C   UNL     1       3.352   2.737   1.182  0.00  0.00    +0.000 A 
ATOM     17  C   UNL     1       3.989   2.982  -0.020  0.00  0.00    +0.000 A 
ATOM     18  C   UNL     1       3.329   2.748  -1.212  0.00  0.00    +0.000 A 
ATOM     19  C   UNL     1       2.032   2.270  -1.202  0.00  0.00    +0.009 A 
ENDBRANCH   5  14
BRANCH   2  20
ATOM     20  C   UNL     1      -1.508   5.445   0.046  0.00  0.00    -0.009 C 
BRANCH  20  21
ATOM     21  C   UNL     1      -2.220   5.954   1.300  0.00  0.00    -0.086 C 
BRANCH  21  24
ATOM     22  H   UNL     1      -2.673   7.784   2.128  0.00  0.00    -0.090 HD
ATOM     23  H   UNL     1      -1.266   7.777   1.242  0.00  0.00    -0.090 HD
ATOM     24  N   UNL     1      -2.221   7.428   1.287  0.00  0.00    +0.378 N 
ATOM     25  H   UNL     1      -2.738   7.757   0.464  0.00  0.00    -0.090 HD
ENDBRANCH  21  24
ENDBRANCH  20  21
ENDBRANCH   2  20
TORSDOF 5
