REMARK  Name = ZINC39695069
REMARK  8 active torsions:
REMARK  status: ('A' for Active; 'I' for Inactive)
REMARK    1  A    between atoms: C_1  and  C_2
REMARK    2  A    between atoms: C_2  and  C_3
REMARK    3  A    between atoms: C_3  and  C_5
REMARK    4  A    between atoms: C_3  and  C_11
REMARK    5  A    between atoms: C_15  and  C_24
REMARK    6  A    between atoms: N_26  and  C_27
REMARK    7  A    between atoms: C_27  and  C_28
REMARK    8  A    between atoms: C_33  and  C_34
REMARK                            x       y       z     vdW  Elec       q    Type
REMARK                         _______ _______ _______ _____ _____    ______ ____
ROOT
ATOM      1  C   UNL     1       1.828  -0.011  -1.234  0.00  0.00    +0.223 C 
ATOM      2  O   UNL     1       2.693  -0.818  -1.501  0.00  0.00    -0.275 OA
ATOM      3  N   UNL     1       2.141   1.294  -1.107  0.00  0.00    -0.300 N 
ATOM      4  C   UNL     1       1.220   2.430  -0.872  0.00  0.00    +0.121 C 
ATOM      5  C   UNL     1       1.971   3.344   0.122  0.00  0.00    +0.100 C 
ATOM      6  C   UNL     1       3.458   3.003  -0.079  0.00  0.00    -0.004 C 
ATOM      7  C   UNL     1       3.486   1.915  -1.163  0.00  0.00    +0.115 C 
ATOM      8  C   UNL     1       4.224   4.237  -0.547  0.00  0.00    -0.010 C 
ATOM      9  C   UNL     1       5.709   3.888  -0.683  0.00  0.00    -0.082 C 
ATOM     10  N   UNL     1       6.226   3.428   0.611  0.00  0.00    +0.379 N 
ATOM     11  C   UNL     1       5.548   2.188   1.009  0.00  0.00    -0.082 C 
ATOM     12  C   UNL     1       4.056   2.465   1.217  0.00  0.00    -0.010 C 
ATOM     13  H   UNL     1       7.218   3.256   0.533  0.00  0.00    -0.086 HD
ATOM     14  H   UNL     1       6.064   4.138   1.308  0.00  0.00    -0.086 HD
ENDROOT
BRANCH   5  15
ATOM     15  C   UNL     1       1.714   4.793  -0.201  0.00  0.00    +0.218 C 
ATOM     16  O   UNL     1       1.506   5.132  -1.346  0.00  0.00    -0.275 OA
ATOM     17  N   UNL     1       1.716   5.713   0.784  0.00  0.00    -0.311 N 
ATOM     18  H   UNL     1       1.883   5.442   1.701  0.00  0.00    +0.149 HD
BRANCH  17  19
ATOM     19  C   UNL     1       1.466   7.122   0.471  0.00  0.00    +0.139 C 
BRANCH  19  20
ATOM     20  C   UNL     1       1.523   7.937   1.738  0.00  0.00    -0.026 A 
ATOM     21  C   UNL     1       0.352   8.308   2.373  0.00  0.00    +0.005 A 
ATOM     22  C   UNL     1       0.403   9.055   3.535  0.00  0.00    +0.002 A 
ATOM     23  C   UNL     1       1.624   9.431   4.063  0.00  0.00    +0.020 A 
ATOM     24  C   UNL     1       2.796   9.059   3.428  0.00  0.00    +0.044 A 
ATOM     25  C   UNL     1       2.744   8.306   2.268  0.00  0.00    -0.027 A 
ATOM     26  C   UNL     1       4.020   7.896   1.579  0.00  0.00    +0.045 C 
ATOM     27 CL   UNL     1       4.330   9.531   4.090  0.00  0.00    -0.083 Cl
ENDBRANCH  19  20
ENDBRANCH  17  19
ENDBRANCH   5  15
BRANCH   1  28
ATOM     28  C   UNL     1       0.404  -0.466  -1.046  0.00  0.00    +0.105 C 
BRANCH  28  29
ATOM     29  C   UNL     1      -0.298  -0.486  -2.379  0.00  0.00    -0.036 A 
ATOM     30  C   UNL     1       0.174  -1.294  -3.397  0.00  0.00    +0.004 A 
ATOM     31  C   UNL     1      -0.470  -1.312  -4.620  0.00  0.00    +0.000 A 
ATOM     32  C   UNL     1      -1.586  -0.523  -4.825  0.00  0.00    +0.000 A 
ATOM     33  C   UNL     1      -2.058   0.285  -3.807  0.00  0.00    +0.000 A 
ATOM     34  C   UNL     1      -1.417   0.300  -2.583  0.00  0.00    +0.004 A 
ENDBRANCH  28  29
BRANCH  28  36
ATOM     35  C   UNL     1       0.979  -1.826   0.970  0.00  0.00    +0.005 C 
ATOM     36  C   UNL     1       0.394  -1.872  -0.443  0.00  0.00    +0.014 C 
ENDBRANCH  28  36
ENDBRANCH   1  28
TORSDOF 6
