REMARK  Name = ZINC38601569
REMARK  15 active torsions:
REMARK  status: ('A' for Active; 'I' for Inactive)
REMARK    1  A    between atoms: C_1  and  C_2
REMARK    2  A    between atoms: C_2  and  C_3
REMARK    3  A    between atoms: C_2  and  C_8
REMARK    4  A    between atoms: C_2  and  O_38
REMARK    5  A    between atoms: C_3  and  O_4
REMARK    6  A    between atoms: O_4  and  C_5
REMARK    7  A    between atoms: C_5  and  O_6
REMARK    8  A    between atoms: O_6  and  C_7
REMARK    9  A    between atoms: C_13  and  C_14
REMARK   10  A    between atoms: C_14  and  C_15
REMARK   11  A    between atoms: C_15  and  C_16
REMARK   12  A    between atoms: C_16  and  C_18
REMARK   13  A    between atoms: C_16  and  O_37
REMARK   14  A    between atoms: C_22  and  C_24
REMARK   15  A    between atoms: C_25  and  C_26
REMARK                            x       y       z     vdW  Elec       q    Type
REMARK                         _______ _______ _______ _____ _____    ______ ____
ROOT
ATOM      1  C   UNL     1       4.284   2.889   1.736  0.00  0.00    +0.145 C 
ENDROOT
BRANCH   1   2
ATOM      2  C   UNL     1       5.174   2.123   2.681  0.00  0.00    -0.019 A 
ATOM      3  C   UNL     1       6.547   2.282   2.617  0.00  0.00    +0.006 A 
ATOM      4  C   UNL     1       7.372   1.583   3.481  0.00  0.00    +0.001 A 
ATOM      5  C   UNL     1       6.830   0.722   4.412  0.00  0.00    +0.008 A 
ATOM      6  C   UNL     1       5.444   0.557   4.483  0.00  0.00    -0.025 A 
ATOM      7  C   UNL     1       4.617   1.270   3.610  0.00  0.00    +0.014 A 
BRANCH   6   8
ATOM      8  C   UNL     1       4.857  -0.361   5.474  0.00  0.00    +0.010 C 
ATOM      9  C   UNL     1       5.655  -1.042   6.314  0.00  0.00    +0.028 C 
BRANCH   9  10
ATOM     10  C   UNL     1       5.069  -1.960   7.305  0.00  0.00    +0.065 A 
ATOM     11  C   UNL     1       5.918  -2.661   8.181  0.00  0.00    +0.028 A 
ATOM     12  C   UNL     1       5.387  -3.512   9.102  0.00  0.00    +0.012 A 
ATOM     13  C   UNL     1       3.986  -3.662   9.146  0.00  0.00    +0.001 A 
ATOM     14  C   UNL     1       3.375  -4.523  10.071  0.00  0.00    +0.011 A 
ATOM     15  C   UNL     1       2.019  -4.644  10.086  0.00  0.00    +0.021 A 
ATOM     16  C   UNL     1       1.226  -3.924   9.193  0.00  0.00    +0.043 A 
ATOM     17  C   UNL     1       1.785  -3.080   8.281  0.00  0.00    +0.048 A 
ATOM     18  C   UNL     1       3.183  -2.928   8.236  0.00  0.00    +0.073 A 
ATOM     19  N   UNL     1       3.755  -2.103   7.357  0.00  0.00    -0.247 NA
ATOM     20 CL   UNL     1      -0.500  -4.106   9.243  0.00  0.00    -0.083 Cl
ENDBRANCH   9  10
ENDBRANCH   6   8
ENDBRANCH   1   2
BRANCH   1  21
ATOM     21  O   UNL     1       4.795   4.213   1.568  0.00  0.00    -0.387 OA
ATOM     22  H   UNL     1       5.691   4.245   1.206  0.00  0.00    +0.210 HD
ENDBRANCH   1  21
BRANCH   1  23
ATOM     23  C   UNL     1       4.249   2.180   0.380  0.00  0.00    +0.041 C 
BRANCH  23  24
ATOM     24  C   UNL     1       3.300   2.925  -0.561  0.00  0.00    +0.038 C 
BRANCH  24  30
ATOM     25  C   UNL     1       2.043   1.523  -2.210  0.00  0.00    -0.011 A 
ATOM     26  C   UNL     1       1.957   0.848  -3.414  0.00  0.00    +0.007 A 
ATOM     27  C   UNL     1       3.038   0.831  -4.275  0.00  0.00    +0.000 A 
ATOM     28  C   UNL     1       4.205   1.489  -3.933  0.00  0.00    +0.000 A 
ATOM     29  C   UNL     1       4.291   2.164  -2.730  0.00  0.00    +0.004 A 
ATOM     30  C   UNL     1       3.208   2.184  -1.870  0.00  0.00    -0.041 A 
BRANCH  25  32
ATOM     31  C   UNL     1       0.354   2.975  -1.122  0.00  0.00    +0.049 C 
ATOM     32  C   UNL     1       0.865   1.541  -1.270  0.00  0.00    +0.112 C 
BRANCH  32  33
ATOM     33  O   UNL     1      -0.176   0.716  -1.796  0.00  0.00    -0.382 OA
ATOM     34  H   UNL     1       0.078  -0.209  -1.917  0.00  0.00    +0.211 HD
ENDBRANCH  32  33
BRANCH  32  35
ATOM     35  C   UNL     1       1.296   1.009   0.098  0.00  0.00    +0.202 C 
BRANCH  35  36
ATOM     36  O   UNL     1       0.223   1.167   1.029  0.00  0.00    -0.351 OA
BRANCH  36  37
ATOM     37  C   UNL     1       0.482   0.601   2.316  0.00  0.00    +0.322 C 
BRANCH  37  38
ATOM     38  O   UNL     1       1.452   1.396   3.000  0.00  0.00    -0.357 OA
ATOM     39  C   UNL     1       0.972   2.680   3.402  0.00  0.00    +0.196 C 
ENDBRANCH  37  38
ENDBRANCH  36  37
ENDBRANCH  35  36
ENDBRANCH  32  35
ENDBRANCH  25  32
ENDBRANCH  24  30
ENDBRANCH  23  24
ENDBRANCH   1  23
TORSDOF 13
