REMARK  Name = ZINC12658946
REMARK  7 active torsions:
REMARK  status: ('A' for Active; 'I' for Inactive)
REMARK    1  A    between atoms: C_1  and  C_2
REMARK    2  A    between atoms: C_13  and  O_15
REMARK    3  A    between atoms: N_21  and  O_22
REMARK    4  A    between atoms: O_22  and  C_23
REMARK    5  A    between atoms: C_23  and  C_24
REMARK    6  A    between atoms: N_26  and  C_27
REMARK    7  A    between atoms: C_38  and  C_39
REMARK                            x       y       z     vdW  Elec       q    Type
REMARK                         _______ _______ _______ _____ _____    ______ ____
ROOT
ATOM      1  C   UNL     1      -0.013   1.086   0.008  0.00  0.00    +0.014 C 
ATOM      2  C   UNL     1      -0.729   1.579   1.267  0.00  0.00    -0.003 C 
ATOM      3  C   UNL     1      -0.766   3.086   1.305  0.00  0.00    +0.010 C 
ATOM      4  C   UNL     1       0.435   3.642   2.082  0.00  0.00    +0.005 C 
ATOM      5  C   UNL     1       1.629   2.700   1.996  0.00  0.00    +0.002 C 
ATOM      6  C   UNL     1       1.324   1.399   2.740  0.00  0.00    -0.003 C 
ATOM      7  C   UNL     1      -0.111   1.006   2.558  0.00  0.00    +0.001 C 
ATOM      8  C   UNL     1      -0.401  -0.497   2.418  0.00  0.00    +0.007 C 
ATOM      9  C   UNL     1      -1.826  -0.529   1.800  0.00  0.00    +0.032 C 
ATOM     10  C   UNL     1      -2.117   0.903   1.290  0.00  0.00    +0.121 C 
ATOM     11  C   UNL     1       2.317   0.313   2.359  0.00  0.00    +0.008 C 
ATOM     12  C   UNL     1       3.732   0.893   2.286  0.00  0.00    +0.031 C 
ATOM     13  C   UNL     1       3.783   2.195   3.051  0.00  0.00    -0.062 C 
ATOM     14  C   UNL     1       4.601   2.322   4.084  0.00  0.00    +0.026 C 
ATOM     15  C   UNL     1       4.670   3.569   4.854  0.00  0.00    +0.080 C 
ATOM     16  N   UNL     1       5.507   3.673   5.839  0.00  0.00    -0.089 NA
ATOM     17  C   UNL     1       3.772   4.726   4.499  0.00  0.00    +0.059 C 
ATOM     18  C   UNL     1       2.514   4.205   3.800  0.00  0.00    +0.017 C 
ATOM     19  C   UNL     1       2.887   3.329   2.611  0.00  0.00    -0.007 C 
ATOM     20  C   UNL     1       3.602   4.159   1.542  0.00  0.00    +0.016 C 
ENDROOT
BRANCH  10  21
ATOM     21  O   UNL     1      -2.980   1.586   2.192  0.00  0.00    -0.391 OA
ATOM     22  H   UNL     1      -3.868   1.208   2.250  0.00  0.00    +0.210 HD
ENDBRANCH  10  21
BRANCH  16  23
ATOM     23  O   UNL     1       6.350   2.584   6.169  0.00  0.00    -0.384 OA
BRANCH  23  24
ATOM     24  C   UNL     1       7.220   2.837   7.274  0.00  0.00    +0.358 C 
BRANCH  24  25
ATOM     25  C   UNL     1       8.068   1.619   7.535  0.00  0.00    +0.254 C 
ATOM     26  O   UNL     1       7.939   0.631   6.844  0.00  0.00    -0.272 OA
ATOM     27  N   UNL     1       8.968   1.627   8.538  0.00  0.00    -0.301 N 
ATOM     28  H   UNL     1       9.071   2.417   9.091  0.00  0.00    +0.150 HD
BRANCH  27  29
ATOM     29  C   UNL     1       9.792   0.442   8.793  0.00  0.00    +0.159 C 
ATOM     30  C   UNL     1      10.241   0.432  10.256  0.00  0.00    +0.032 C 
ATOM     31  C   UNL     1      10.549  -0.981  10.714  0.00  0.00    +0.004 C 
ATOM     32  C   UNL     1      11.757  -1.597  10.031  0.00  0.00    +0.019 C 
ATOM     33  C   UNL     1      11.484  -1.827   8.544  0.00  0.00    +0.104 C 
ATOM     34  N   UNL     1      11.808  -0.594   7.809  0.00  0.00    -0.314 N 
ATOM     35  C   UNL     1      11.023   0.480   7.912  0.00  0.00    +0.233 C 
ATOM     36  O   UNL     1      11.297   1.490   7.298  0.00  0.00    -0.274 OA
ATOM     37  H   UNL     1      12.597  -0.561   7.247  0.00  0.00    +0.149 HD
ENDBRANCH  27  29
ENDBRANCH  24  25
ENDBRANCH  23  24
ENDBRANCH  16  23
TORSDOF 5
