REMARK  Name = ZINC66850258
REMARK  5 active torsions:
REMARK  status: ('A' for Active; 'I' for Inactive)
REMARK    1  A    between atoms: C_1  and  C_2
REMARK    2  A    between atoms: C_2  and  C_4
REMARK    3  A    between atoms: C_2  and  N_13
REMARK    4  A    between atoms: C_8  and  N_10
REMARK    5  A    between atoms: C_17  and  C_20
REMARK                            x       y       z     vdW  Elec       q    Type
REMARK                         _______ _______ _______ _____ _____    ______ ____
ROOT
ATOM      1  N   UNL     1       0.690  -0.478  -1.207  0.00  0.00    -0.291 NA
ATOM      2  C   UNL     1       0.653  -1.945  -1.292  0.00  0.00    +0.113 C 
ATOM      3  C   UNL     1       1.327  -2.392  -2.593  0.00  0.00    +0.176 C 
ATOM      4  O   UNL     1       2.662  -1.879  -2.633  0.00  0.00    -0.369 OA
ATOM      5  C   UNL     1       2.734  -0.454  -2.552  0.00  0.00    +0.162 C 
ATOM      6  C   UNL     1       2.075   0.013  -1.251  0.00  0.00    +0.121 C 
ENDROOT
BRANCH   5   7
ATOM      7  C   UNL     1       4.178  -0.021  -2.569  0.00  0.00    -0.015 A 
ATOM      8  C   UNL     1       5.140  -0.804  -1.959  0.00  0.00    +0.009 A 
ATOM      9  C   UNL     1       6.465  -0.409  -1.973  0.00  0.00    +0.041 A 
ATOM     10  C   UNL     1       6.829   0.770  -2.599  0.00  0.00    +0.158 A 
ATOM     11  C   UNL     1       5.864   1.555  -3.211  0.00  0.00    +0.159 A 
ATOM     12  C   UNL     1       4.539   1.155  -3.199  0.00  0.00    +0.047 A 
ATOM     13  F   UNL     1       6.216   2.707  -3.822  0.00  0.00    -0.202 F 
ATOM     14  F   UNL     1       8.123   1.157  -2.612  0.00  0.00    -0.202 F 
ENDBRANCH   5   7
BRANCH   1  16
ATOM     15  C   UNL     1      -0.019   1.526   0.010  0.00  0.00    +0.029 C 
ATOM     16  C   UNL     1       0.002  -0.004   0.002  0.00  0.00    +0.084 C 
BRANCH  16  17
ATOM     17  C   UNL     1      -1.412  -0.526   0.013  0.00  0.00    -0.028 A 
ATOM     18  C   UNL     1      -2.142  -0.569  -1.161  0.00  0.00    +0.005 A 
ATOM     19  C   UNL     1      -3.438  -1.047  -1.151  0.00  0.00    +0.003 A 
ATOM     20  C   UNL     1      -4.005  -1.483   0.032  0.00  0.00    +0.033 A 
ATOM     21  C   UNL     1      -3.275  -1.441   1.205  0.00  0.00    +0.127 A 
ATOM     22  C   UNL     1      -1.977  -0.966   1.195  0.00  0.00    +0.038 A 
BRANCH  21  23
ATOM     23  N   UNL     1      -3.883  -1.907   2.472  0.00  0.00    +0.056 N 
ATOM     24  O   UNL     1      -5.017  -2.325   2.481  0.00  0.00    -0.126 OA
ATOM     25  O   UNL     1      -3.244  -1.870   3.498  0.00  0.00    -0.126 OA
ENDBRANCH  21  23
ENDBRANCH  16  17
ENDBRANCH   1  16
TORSDOF 4
