REMARK  Name = ZINC02395445
REMARK  7 active torsions:
REMARK  status: ('A' for Active; 'I' for Inactive)
REMARK    1  A    between atoms: C_1  and  C_2
REMARK    2  A    between atoms: C_10  and  C_18
REMARK    3  A    between atoms: C_24  and  C_27
REMARK    4  A    between atoms: C_30  and  O_35
REMARK    5  A    between atoms: C_32  and  O_33
REMARK    6  A    between atoms: O_33  and  C_34
REMARK    7  A    between atoms: O_35  and  C_36
REMARK                            x       y       z     vdW  Elec       q    Type
REMARK                         _______ _______ _______ _____ _____    ______ ____
ROOT
ATOM      1  C   UNL     1      -0.102   1.354  -0.628  0.00  0.00    +0.044 C 
ATOM      2  C   UNL     1      -0.059  -0.145  -0.484  0.00  0.00    -0.050 A 
ATOM      3  C   UNL     1      -0.031  -0.946  -1.612  0.00  0.00    +0.007 A 
ATOM      4  C   UNL     1       0.010  -2.323  -1.495  0.00  0.00    +0.046 A 
ATOM      5  C   UNL     1       0.022  -2.908  -0.241  0.00  0.00    +0.131 A 
ATOM      6  C   UNL     1      -0.005  -2.097   0.901  0.00  0.00    +0.043 A 
ATOM      7  C   UNL     1      -0.041  -0.716   0.775  0.00  0.00    +0.017 A 
ATOM      8  C   UNL     1       0.014  -2.755   2.232  0.00  0.00    +0.083 C 
ATOM      9  C   UNL     1       0.381  -4.052   2.279  0.00  0.00    +0.027 C 
ATOM     10  C   UNL     1       0.397  -4.739   3.627  0.00  0.00    +0.159 C 
ATOM     11  N   UNL     1       0.006  -3.911   4.774  0.00  0.00    -0.208 N 
ATOM     12  C   UNL     1      -0.340  -2.592   4.559  0.00  0.00    +0.237 C 
ATOM     13  N   UNL     1      -0.326  -2.074   3.353  0.00  0.00    -0.213 NA
ATOM     14  N   UNL     1      -0.651  -2.066   5.764  0.00  0.00    -0.205 NA
ATOM     15  C   UNL     1      -0.523  -2.966   6.700  0.00  0.00    +0.203 C 
ATOM     16  N   UNL     1      -0.115  -4.142   6.146  0.00  0.00    -0.251 N 
ATOM     17  C   UNL     1       0.768  -4.783   1.027  0.00  0.00    +0.238 C 
ATOM     18  O   UNL     1       0.058  -4.258  -0.097  0.00  0.00    -0.479 OA
ATOM     19  H   UNL     1       0.057  -4.974   6.613  0.00  0.00    +0.171 HD
ENDROOT
BRANCH  10  20
ATOM     20  C   UNL     1      -0.537  -5.920   3.564  0.00  0.00    -0.021 A 
ATOM     21  C   UNL     1      -1.900  -5.731   3.691  0.00  0.00    +0.006 A 
ATOM     22  C   UNL     1      -2.757  -6.814   3.634  0.00  0.00    +0.000 A 
ATOM     23  C   UNL     1      -2.250  -8.087   3.448  0.00  0.00    +0.000 A 
ATOM     24  C   UNL     1      -0.887  -8.276   3.320  0.00  0.00    +0.000 A 
ATOM     25  C   UNL     1      -0.031  -7.192   3.373  0.00  0.00    +0.006 A 
ENDBRANCH  10  20
BRANCH  17  26
ATOM     26  C   UNL     1       2.248  -4.625   0.795  0.00  0.00    +0.039 A 
ATOM     27  C   UNL     1       2.715  -3.612  -0.022  0.00  0.00    +0.015 A 
ATOM     28  C   UNL     1       4.072  -3.465  -0.236  0.00  0.00    +0.046 A 
ATOM     29  C   UNL     1       4.970  -4.333   0.368  0.00  0.00    +0.124 A 
ATOM     30  C   UNL     1       4.504  -5.349   1.188  0.00  0.00    +0.091 A 
ATOM     31  C   UNL     1       3.143  -5.492   1.406  0.00  0.00    +0.131 A 
BRANCH  31  32
ATOM     32  O   UNL     1       2.683  -6.484   2.214  0.00  0.00    -0.495 OA
ATOM     33  C   UNL     1       3.660  -7.339   2.811  0.00  0.00    +0.277 C 
ENDBRANCH  31  32
BRANCH  29  34
ATOM     34  O   UNL     1       6.304  -4.188   0.157  0.00  0.00    -0.495 OA
ATOM     35  C   UNL     1       6.713  -3.119  -0.700  0.00  0.00    +0.277 C 
ENDBRANCH  29  34
ENDBRANCH  17  26
TORSDOF 4
