REMARK  Name = ZINC59045364
REMARK  6 active torsions:
REMARK  status: ('A' for Active; 'I' for Inactive)
REMARK    1  A    between atoms: C_1  and  C_2
REMARK    2  A    between atoms: C_2  and  C_3
REMARK    3  A    between atoms: C_3  and  S_4
REMARK    4  A    between atoms: S_4  and  C_5
REMARK    5  A    between atoms: C_8  and  C_11
REMARK    6  A    between atoms: N_9  and  N_10
REMARK                            x       y       z     vdW  Elec       q    Type
REMARK                         _______ _______ _______ _____ _____    ______ ____
ROOT
ATOM      1  C   UNL     1      -3.112  -2.797   0.017  0.00  0.00    +0.209 A 
ATOM      2  N   UNL     1      -4.136  -1.973   0.025  0.00  0.00    -0.121 NA
ATOM      3  N   UNL     1      -5.237  -2.636   0.034  0.00  0.00    -0.127 NA
ATOM      4  C   UNL     1      -4.984  -3.924   0.032  0.00  0.00    +0.182 A 
ATOM      5  N   UNL     1      -3.615  -4.067   0.015  0.00  0.00    -0.224 N 
ENDROOT
BRANCH   4   6
ATOM      6  C   UNL     1      -5.981  -5.016   0.040  0.00  0.00    +0.021 A 
ATOM      7  C   UNL     1      -5.591  -6.318   0.355  0.00  0.00    +0.013 A 
ATOM      8  C   UNL     1      -6.526  -7.332   0.361  0.00  0.00    +0.016 A 
ATOM      9  C   UNL     1      -7.849  -7.060   0.054  0.00  0.00    +0.018 A 
ATOM     10  C   UNL     1      -8.241  -5.770  -0.260  0.00  0.00    +0.016 A 
ATOM     11  C   UNL     1      -7.317  -4.746  -0.262  0.00  0.00    +0.013 A 
ATOM     12 BR   UNL     1      -9.124  -8.457   0.064  0.00  0.00    -0.050 Br
ENDBRANCH   4   6
BRANCH   5  13
ATOM     13  N   UNL     1      -2.907  -5.235   0.001  0.00  0.00    -0.295 N 
ATOM     14  H   UNL     1      -2.711  -5.550   0.940  0.00  0.00    +0.163 HD
ATOM     15  H   UNL     1      -3.393  -5.946  -0.524  0.00  0.00    +0.163 HD
ENDBRANCH   5  13
BRANCH   1  16
ATOM     16  S   UNL     1      -1.409  -2.348   0.003  0.00  0.00    -0.085 S 
BRANCH  16  17
ATOM     17  C   UNL     1      -1.433  -0.534   0.013  0.00  0.00    +0.077 C 
BRANCH  17  19
ATOM     18  C   UNL     1      -0.019   1.526   0.010  0.00  0.00    +0.004 C 
ATOM     19  C   UNL     1       0.002  -0.004   0.002  0.00  0.00    +0.008 C 
ENDBRANCH  17  19
ENDBRANCH  16  17
ENDBRANCH   1  16
TORSDOF 5
