REMARK  Name = ZINC39672242
REMARK  10 active torsions:
REMARK  status: ('A' for Active; 'I' for Inactive)
REMARK    1  A    between atoms: C_1  and  C_2
REMARK    2  A    between atoms: C_2  and  C_3
REMARK    3  A    between atoms: C_3  and  C_4
REMARK    4  A    between atoms: C_4  and  C_5
REMARK    5  A    between atoms: C_5  and  C_6
REMARK    6  A    between atoms: C_6  and  C_7
REMARK    7  A    between atoms: C_11  and  C_20
REMARK    8  A    between atoms: N_22  and  C_23
REMARK    9  A    between atoms: C_23  and  C_24
REMARK   10  A    between atoms: N_33  and  C_34
REMARK                            x       y       z     vdW  Elec       q    Type
REMARK                         _______ _______ _______ _____ _____    ______ ____
ROOT
ATOM      1  C   UNL     1       2.294  -4.598   3.834  0.00  0.00    +0.216 C 
ATOM      2  O   UNL     1       2.805  -3.830   4.621  0.00  0.00    -0.276 OA
ATOM      3  N   UNL     1       2.450  -5.928   3.993  0.00  0.00    -0.300 N 
ATOM      4  C   UNL     1       1.912  -7.013   3.139  0.00  0.00    +0.121 C 
ATOM      5  C   UNL     1       3.049  -8.057   3.073  0.00  0.00    +0.100 C 
ATOM      6  C   UNL     1       3.887  -7.805   4.338  0.00  0.00    -0.004 C 
ATOM      7  C   UNL     1       3.202  -6.634   5.057  0.00  0.00    +0.115 C 
ATOM      8  C   UNL     1       5.314  -7.420   3.958  0.00  0.00    -0.010 C 
ATOM      9  C   UNL     1       6.142  -7.230   5.232  0.00  0.00    -0.082 C 
ATOM     10  N   UNL     1       6.140  -8.475   6.009  0.00  0.00    +0.379 N 
ATOM     11  C   UNL     1       4.776  -8.788   6.449  0.00  0.00    -0.082 C 
ATOM     12  C   UNL     1       3.889  -9.044   5.227  0.00  0.00    -0.010 C 
ATOM     13  H   UNL     1       6.489  -9.229   5.436  0.00  0.00    -0.086 HD
ATOM     14  H   UNL     1       6.736  -8.367   6.817  0.00  0.00    -0.086 HD
ENDROOT
BRANCH   5  15
ATOM     15  C   UNL     1       2.481  -9.453   3.087  0.00  0.00    +0.218 C 
ATOM     16  O   UNL     1       1.445  -9.680   3.675  0.00  0.00    -0.275 OA
ATOM     17  N   UNL     1       3.125 -10.449   2.447  0.00  0.00    -0.311 N 
ATOM     18  H   UNL     1       3.953 -10.267   1.976  0.00  0.00    +0.149 HD
BRANCH  17  19
ATOM     19  C   UNL     1       2.572 -11.806   2.460  0.00  0.00    +0.139 C 
BRANCH  19  20
ATOM     20  C   UNL     1       3.476 -12.724   1.677  0.00  0.00    -0.030 A 
ATOM     21  C   UNL     1       3.273 -12.898   0.320  0.00  0.00    +0.007 A 
ATOM     22  C   UNL     1       4.100 -13.739  -0.396  0.00  0.00    +0.024 A 
ATOM     23  C   UNL     1       5.135 -14.411   0.246  0.00  0.00    +0.033 A 
ATOM     24  C   UNL     1       5.339 -14.234   1.605  0.00  0.00    -0.026 A 
ATOM     25  C   UNL     1       4.507 -13.385   2.316  0.00  0.00    +0.010 A 
ATOM     26  C   UNL     1       6.456 -14.936   2.331  0.00  0.00    +0.038 C 
ATOM     27  C   UNL     1       6.922 -16.159   1.541  0.00  0.00    +0.024 C 
ATOM     28  C   UNL     1       7.217 -15.733   0.097  0.00  0.00    +0.105 C 
ATOM     29  N   UNL     1       5.958 -15.263  -0.498  0.00  0.00    -0.333 N 
ATOM     30  C   UNL     1       5.572 -15.681  -1.848  0.00  0.00    +0.129 C 
ENDBRANCH  19  20
ENDBRANCH  17  19
ENDBRANCH   5  15
BRANCH   1  31
ATOM     31  C   UNL     1       1.486  -4.066   2.679  0.00  0.00    +0.096 C 
BRANCH  31  32
ATOM     32  C   UNL     1       1.467  -2.537   2.730  0.00  0.00    +0.009 C 
BRANCH  32  33
ATOM     33  C   UNL     1       0.646  -1.998   1.557  0.00  0.00    +0.000 C 
BRANCH  33  34
ATOM     34  C   UNL     1       0.628  -0.469   1.609  0.00  0.00    -0.000 C 
BRANCH  34  36
ATOM     35  C   UNL     1      -0.212   1.600   0.488  0.00  0.00    +0.004 C 
ATOM     36  C   UNL     1      -0.193   0.071   0.436  0.00  0.00    -0.003 C 
ENDBRANCH  34  36
ENDBRANCH  33  34
ENDBRANCH  32  33
ENDBRANCH  31  32
ENDBRANCH   1  31
TORSDOF 8
