REMARK  Name = ZINC04535898
REMARK  7 active torsions:
REMARK  status: ('A' for Active; 'I' for Inactive)
REMARK    1  A    between atoms: C_1  and  C_2
REMARK    2  A    between atoms: C_2  and  C_4
REMARK    3  A    between atoms: C_4  and  O_31
REMARK    4  A    between atoms: C_9  and  C_30
REMARK    5  A    between atoms: C_27  and  C_28
REMARK    6  A    between atoms: O_31  and  C_32
REMARK    7  A    between atoms: C_32  and  C_34
REMARK                            x       y       z     vdW  Elec       q    Type
REMARK                         _______ _______ _______ _____ _____    ______ ____
ROOT
ATOM      1  C   UNL     1      -0.003  -0.657  -1.329  0.00  0.00    +0.176 C 
ATOM      2  C   UNL     1      -1.523  -0.603  -1.621  0.00  0.00    +0.057 C 
ATOM      3  C   UNL     1      -1.958  -2.056  -1.953  0.00  0.00    +0.009 C 
ATOM      4  C   UNL     1      -0.655  -2.704  -2.432  0.00  0.00    +0.006 C 
ATOM      5  C   UNL     1       0.370  -2.133  -1.413  0.00  0.00    +0.018 C 
ATOM      6  C   UNL     1       1.761  -2.460  -1.913  0.00  0.00    +0.011 C 
ATOM      7  C   UNL     1       1.906  -3.993  -1.924  0.00  0.00    +0.005 C 
ATOM      8  C   UNL     1       0.823  -4.629  -2.785  0.00  0.00    +0.007 C 
ATOM      9  C   UNL     1      -0.587  -4.214  -2.339  0.00  0.00    +0.021 C 
ATOM     10  C   UNL     1      -1.642  -4.888  -3.156  0.00  0.00    -0.003 C 
ATOM     11  C   UNL     1      -1.433  -6.025  -3.817  0.00  0.00    +0.041 C 
ATOM     12  C   UNL     1      -0.112  -6.676  -3.787  0.00  0.00    -0.020 C 
ATOM     13  C   UNL     1       0.123  -7.697  -4.633  0.00  0.00    +0.052 C 
ATOM     14  C   UNL     1       1.369  -8.323  -4.763  0.00  0.00    +0.160 C 
ATOM     15  O   UNL     1       1.487  -9.304  -5.470  0.00  0.00    -0.292 OA
ATOM     16  C   UNL     1       2.563  -7.775  -4.023  0.00  0.00    +0.064 C 
ATOM     17  C   UNL     1       3.008  -6.353  -4.375  0.00  0.00    +0.016 C 
ATOM     18  C   UNL     1       2.303  -6.647  -3.029  0.00  0.00    +0.011 C 
ATOM     19  C   UNL     1       0.894  -6.152  -2.744  0.00  0.00    +0.001 C 
ATOM     20  C   UNL     1       0.471  -6.596  -1.343  0.00  0.00    +0.017 C 
ATOM     21 CL   UNL     1      -2.728  -6.746  -4.720  0.00  0.00    -0.084 Cl
ATOM     22  C   UNL     1       0.159  -2.793  -0.049  0.00  0.00    +0.016 C 
ENDROOT
BRANCH   1  24
ATOM     23  C   UNL     1       1.669   0.354   0.402  0.00  0.00    +0.090 C 
ATOM     24  C   UNL     1       0.283  -0.123   0.051  0.00  0.00    +0.174 C 
ATOM     25  O   UNL     1      -0.598  -0.078   0.875  0.00  0.00    -0.293 OA
ENDBRANCH   1  24
BRANCH   1  26
ATOM     26  O   UNL     1       0.719   0.092  -2.309  0.00  0.00    -0.450 OA
BRANCH  26  27
ATOM     27  C   UNL     1       0.415   1.395  -2.425  0.00  0.00    +0.305 C 
ATOM     28  O   UNL     1      -0.388   1.897  -1.675  0.00  0.00    -0.251 OA
ATOM     29  C   UNL     1       1.077   2.230  -3.490  0.00  0.00    +0.136 C 
ENDBRANCH  26  27
ENDBRANCH   1  26
TORSDOF 3
