REMARK  Name = ZINC03036791
REMARK  9 active torsions:
REMARK  status: ('A' for Active; 'I' for Inactive)
REMARK    1  A    between atoms: C_1  and  C_2
REMARK    2  A    between atoms: C_2  and  N_3
REMARK    3  A    between atoms: C_11  and  C_13
REMARK    4  A    between atoms: N_14  and  N_15
REMARK    5  A    between atoms: N_15  and  C_16
REMARK    6  A    between atoms: C_16  and  N_18
REMARK    7  A    between atoms: N_18  and  C_19
REMARK    8  A    between atoms: C_24  and  S_25
REMARK    9  A    between atoms: S_25  and  C_26
REMARK                            x       y       z     vdW  Elec       q    Type
REMARK                         _______ _______ _______ _____ _____    ______ ____
ROOT
ATOM      1  C   UNL     1      -2.299   4.829   6.396  0.00  0.00    +0.138 C 
ATOM      2  N   UNL     1      -2.624   4.064   5.399  0.00  0.00    -0.188 NA
ENDROOT
BRANCH   1  11
ATOM      3  N   UNL     1       3.014   6.688   6.850  0.00  0.00    -0.330 N 
ATOM      4  C   UNL     1       3.192   7.873   7.690  0.00  0.00    +0.105 C 
ATOM      5  C   UNL     1       2.574   7.597   9.066  0.00  0.00    +0.024 C 
ATOM      6  C   UNL     1       1.056   7.506   8.890  0.00  0.00    +0.038 C 
ATOM      7  C   UNL     1       0.734   6.614   7.718  0.00  0.00    -0.026 A 
ATOM      8  C   UNL     1       1.690   6.261   6.778  0.00  0.00    +0.033 A 
ATOM      9  C   UNL     1       1.334   5.439   5.704  0.00  0.00    +0.024 A 
ATOM     10  C   UNL     1       0.049   4.969   5.578  0.00  0.00    +0.011 A 
ATOM     11  C   UNL     1      -0.917   5.325   6.524  0.00  0.00    -0.005 A 
ATOM     12  C   UNL     1      -0.562   6.148   7.594  0.00  0.00    +0.015 A 
BRANCH   3  14
ATOM     13  C   UNL     1       2.721   7.937   4.764  0.00  0.00    +0.024 C 
ATOM     14  C   UNL     1       3.571   6.905   5.508  0.00  0.00    +0.102 C 
ENDBRANCH   3  14
ENDBRANCH   1  11
BRANCH   2  15
ATOM     15  N   UNL     1      -3.938   3.593   5.277  0.00  0.00    -0.218 N 
ATOM     16  H   UNL     1      -4.605   3.839   5.938  0.00  0.00    +0.176 HD
BRANCH  15  17
ATOM     17  C   UNL     1      -4.276   2.799   4.242  0.00  0.00    +0.154 C 
ATOM     18  S   UNL     1      -5.881   2.223   4.093  0.00  0.00    -0.017 S 
BRANCH  17  19
ATOM     19  N   UNL     1      -3.350   2.457   3.324  0.00  0.00    -0.295 N 
ATOM     20  H   UNL     1      -2.431   2.749   3.431  0.00  0.00    +0.154 HD
BRANCH  19  21
ATOM     21  C   UNL     1      -3.714   1.681   2.216  0.00  0.00    +0.046 A 
ATOM     22  C   UNL     1      -4.929   1.899   1.584  0.00  0.00    +0.024 A 
ATOM     23  C   UNL     1      -5.287   1.133   0.491  0.00  0.00    +0.002 A 
ATOM     24  C   UNL     1      -4.436   0.148   0.023  0.00  0.00    +0.001 A 
ATOM     25  C   UNL     1      -3.221  -0.073   0.643  0.00  0.00    +0.016 A 
ATOM     26  C   UNL     1      -2.856   0.687   1.745  0.00  0.00    +0.029 A 
BRANCH  26  27
ATOM     27  S   UNL     1      -1.310   0.404   2.542  0.00  0.00    -0.127 S 
ATOM     28  C   UNL     1      -0.569  -0.952   1.592  0.00  0.00    +0.090 C 
ENDBRANCH  26  27
ENDBRANCH  19  21
ENDBRANCH  17  19
ENDBRANCH  15  17
ENDBRANCH   2  15
TORSDOF 7
