REMARK  Name = ZINC16937247
REMARK  8 active torsions:
REMARK  status: ('A' for Active; 'I' for Inactive)
REMARK    1  A    between atoms: C_1  and  C_2
REMARK    2  A    between atoms: C_2  and  C_3
REMARK    3  A    between atoms: C_3  and  O_4
REMARK    4  A    between atoms: O_4  and  C_5
REMARK    5  A    between atoms: C_8  and  C_11
REMARK    6  A    between atoms: N_17  and  C_18
REMARK    7  A    between atoms: C_21  and  C_25
REMARK    8  A    between atoms: C_23  and  O_24
REMARK                            x       y       z     vdW  Elec       q    Type
REMARK                         _______ _______ _______ _____ _____    ______ ____
ROOT
ATOM      1  C   UNL     1       3.645  -0.546  -1.230  0.00  0.00    +0.028 C 
ATOM      2  C   UNL     1       4.814   0.111  -1.024  0.00  0.00    +0.078 C 
ATOM      3  C   UNL     1       6.182  -0.428  -0.901  0.00  0.00    +0.256 C 
ATOM      4  O   UNL     1       6.405  -1.621  -0.981  0.00  0.00    -0.269 OA
ATOM      5  N   UNL     1       7.155   0.446  -0.705  0.00  0.00    -0.260 N 
ATOM      6  C   UNL     1       6.881   1.794  -0.610  0.00  0.00    +0.166 C 
ATOM      7  N   UNL     1       7.719   2.785  -0.412  0.00  0.00    -0.222 NA
ATOM      8  S   UNL     1       5.109   1.862  -0.821  0.00  0.00    -0.049 S 
ATOM      9  H   UNL     1       8.070   0.135  -0.622  0.00  0.00    +0.157 HD
ENDROOT
BRANCH   7  10
ATOM     10  C   UNL     1       7.245   4.061  -0.257  0.00  0.00    +0.108 A 
ATOM     11  C   UNL     1       6.202   4.319   0.634  0.00  0.00    +0.032 A 
ATOM     12  C   UNL     1       5.729   5.607   0.785  0.00  0.00    +0.005 A 
ATOM     13  C   UNL     1       6.286   6.644   0.057  0.00  0.00    -0.047 A 
ATOM     14  C   UNL     1       7.320   6.400  -0.828  0.00  0.00    +0.051 A 
ATOM     15  C   UNL     1       7.809   5.115  -0.988  0.00  0.00    +0.142 A 
ATOM     16  C   UNL     1       5.762   8.046   0.230  0.00  0.00    +0.044 C 
BRANCH  15  17
ATOM     17  O   UNL     1       8.829   4.876  -1.854  0.00  0.00    -0.505 OA
ATOM     18  H   UNL     1       8.541   4.668  -2.753  0.00  0.00    +0.292 HD
ENDBRANCH  15  17
ENDBRANCH   7  10
BRANCH   1  22
ATOM     19  C   UNL     1       0.081   1.637  -1.946  0.00  0.00    +0.121 A 
ATOM     20  C   UNL     1       0.010   0.300  -1.571  0.00  0.00    +0.046 A 
ATOM     21  C   UNL     1       1.164  -0.413  -1.337  0.00  0.00    +0.011 A 
ATOM     22  C   UNL     1       2.410   0.210  -1.478  0.00  0.00    -0.024 A 
ATOM     23  C   UNL     1       2.475   1.557  -1.856  0.00  0.00    +0.011 A 
ATOM     24  C   UNL     1       1.315   2.261  -2.087  0.00  0.00    +0.046 A 
BRANCH  19  25
ATOM     25  O   UNL     1      -1.060   2.338  -2.170  0.00  0.00    -0.492 OA
BRANCH  25  26
ATOM     26  C   UNL     1      -2.295   1.636  -2.008  0.00  0.00    +0.229 C 
BRANCH  26  28
ATOM     27  C   UNL     1      -4.783   1.831  -2.127  0.00  0.00    +0.007 C 
ATOM     28  C   UNL     1      -3.461   2.582  -2.301  0.00  0.00    +0.038 C 
ENDBRANCH  26  28
ENDBRANCH  25  26
ENDBRANCH  19  25
ENDBRANCH   1  22
TORSDOF 6
