REMARK  Name = ZINC37620937
REMARK  8 active torsions:
REMARK  status: ('A' for Active; 'I' for Inactive)
REMARK    1  A    between atoms: C_1  and  C_2
REMARK    2  A    between atoms: C_2  and  C_3
REMARK    3  A    between atoms: C_3  and  C_4
REMARK    4  A    between atoms: C_4  and  C_5
REMARK    5  A    between atoms: C_4  and  C_6
REMARK    6  A    between atoms: C_4  and  N_22
REMARK    7  A    between atoms: C_9  and  C_12
REMARK    8  A    between atoms: C_16  and  N_18
REMARK                            x       y       z     vdW  Elec       q    Type
REMARK                         _______ _______ _______ _____ _____    ______ ____
ROOT
ATOM      1  C   UNL     1      -2.826  -2.585   0.015  0.00  0.00    +0.096 A 
ATOM      2  N   UNL     1      -3.183  -3.885   0.113  0.00  0.00    -0.343 N 
ATOM      3  H   UNL     1      -2.582  -4.643   0.188  0.00  0.00    +0.167 HD
ATOM      4  C   UNL     1      -4.558  -3.930   0.086  0.00  0.00    +0.066 A 
ATOM      5  C   UNL     1      -4.985  -2.643  -0.027  0.00  0.00    +0.139 A 
ATOM      6  N   UNL     1      -3.905  -1.854  -0.063  0.00  0.00    -0.242 NA
ENDROOT
BRANCH   4   7
ATOM      7  C   UNL     1      -5.405  -5.140   0.166  0.00  0.00    +0.002 A 
ATOM      8  C   UNL     1      -4.817  -6.400   0.286  0.00  0.00    +0.011 A 
ATOM      9  C   UNL     1      -5.612  -7.525   0.360  0.00  0.00    +0.023 A 
ATOM     10  C   UNL     1      -6.991  -7.405   0.314  0.00  0.00    +0.071 A 
ATOM     11  C   UNL     1      -7.580  -6.158   0.194  0.00  0.00    +0.145 A 
ATOM     12  C   UNL     1      -6.795  -5.025   0.126  0.00  0.00    +0.044 A 
ATOM     13 CL   UNL     1      -7.986  -8.825   0.406  0.00  0.00    -0.081 Cl
BRANCH  11  14
ATOM     14  N   UNL     1      -9.055  -6.039   0.145  0.00  0.00    +0.058 N 
ATOM     15  O   UNL     1      -9.570  -4.950   0.040  0.00  0.00    -0.126 OA
ATOM     16  O   UNL     1      -9.744  -7.030   0.209  0.00  0.00    -0.126 OA
ENDBRANCH  11  14
ENDBRANCH   4   7
BRANCH   1  17
ATOM     17  C   UNL     1      -1.413  -2.063   0.004  0.00  0.00    -0.014 C 
ATOM     18  C   UNL     1      -0.696  -2.557  -1.254  0.00  0.00    -0.003 C 
BRANCH  17  19
ATOM     19  N   UNL     1      -0.702  -2.550   1.195  0.00  0.00    +0.386 N 
ATOM     20  H   UNL     1      -1.174  -2.225   2.025  0.00  0.00    -0.089 HD
ATOM     21  H   UNL     1      -0.688  -3.559   1.189  0.00  0.00    -0.089 HD
ATOM     22  H   UNL     1       0.244  -2.201   1.187  0.00  0.00    -0.089 HD
ENDBRANCH  17  19
BRANCH  17  23
ATOM     23  C   UNL     1      -1.433  -0.534   0.013  0.00  0.00    -0.006 C 
BRANCH  23  25
ATOM     24  C   UNL     1      -0.019   1.526   0.010  0.00  0.00    +0.004 C 
ATOM     25  C   UNL     1       0.002  -0.004   0.002  0.00  0.00    -0.004 C 
ENDBRANCH  23  25
ENDBRANCH  17  23
ENDBRANCH   1  17
TORSDOF 6
