REMARK  Name = ZINC59170440
REMARK  8 active torsions:
REMARK  status: ('A' for Active; 'I' for Inactive)
REMARK    1  A    between atoms: C_1  and  C_2
REMARK    2  A    between atoms: C_5  and  S_8
REMARK    3  A    between atoms: S_8  and  N_11
REMARK    4  A    between atoms: N_11  and  N_12
REMARK    5  A    between atoms: C_14  and  C_26
REMARK    6  A    between atoms: C_18  and  N_23
REMARK    7  A    between atoms: N_28  and  C_29
REMARK    8  A    between atoms: C_33  and  C_35
REMARK                            x       y       z     vdW  Elec       q    Type
REMARK                         _______ _______ _______ _____ _____    ______ ____
ROOT
ATOM      1  N   UNL     1       3.053  -6.532   0.985  0.00  0.00    -0.260 N 
ATOM      2  C   UNL     1       4.303  -6.016   0.806  0.00  0.00    +0.225 A 
ATOM      3  C   UNL     1       4.773  -5.817  -0.491  0.00  0.00    +0.099 A 
ATOM      4  C   UNL     1       6.063  -5.285  -0.702  0.00  0.00    +0.030 A 
ATOM      5  C   UNL     1       6.837  -4.972   0.424  0.00  0.00    +0.020 A 
ATOM      6  C   UNL     1       8.134  -4.438   0.307  0.00  0.00    +0.044 A 
ATOM      7  C   UNL     1       8.843  -4.151   1.433  0.00  0.00    +0.127 A 
ATOM      8  C   UNL     1       8.311  -4.376   2.702  0.00  0.00    +0.036 A 
ATOM      9  C   UNL     1       7.050  -4.896   2.873  0.00  0.00    +0.049 A 
ATOM     10  C   UNL     1       6.277  -5.209   1.757  0.00  0.00    +0.138 A 
ATOM     11  O   UNL     1       5.040  -5.713   1.880  0.00  0.00    -0.437 OA
ATOM     12  H   UNL     1       2.845  -7.032   1.790  0.00  0.00    +0.189 HD
ENDROOT
BRANCH   3  13
ATOM     13  C   UNL     1       3.917  -6.163  -1.650  0.00  0.00    +0.253 C 
ATOM     14  O   UNL     1       3.668  -7.327  -1.895  0.00  0.00    -0.270 OA
ATOM     15  N   UNL     1       3.416  -5.188  -2.433  0.00  0.00    -0.281 N 
ATOM     16  H   UNL     1       3.683  -4.266  -2.291  0.00  0.00    +0.155 HD
BRANCH  15  17
ATOM     17  C   UNL     1       2.510  -5.504  -3.450  0.00  0.00    +0.034 A 
ATOM     18  C   UNL     1       1.569  -6.508  -3.257  0.00  0.00    +0.023 A 
ATOM     19  C   UNL     1       0.677  -6.818  -4.264  0.00  0.00    +0.002 A 
ATOM     20  C   UNL     1       0.719  -6.130  -5.463  0.00  0.00    +0.003 A 
ATOM     21  C   UNL     1       1.654  -5.130  -5.659  0.00  0.00    -0.049 A 
ATOM     22  C   UNL     1       2.546  -4.812  -4.654  0.00  0.00    +0.026 A 
ATOM     23  C   UNL     1       1.696  -4.384  -6.967  0.00  0.00    +0.044 C 
ENDBRANCH  15  17
ENDBRANCH   3  13
BRANCH   7  24
ATOM     24  N   UNL     1      10.206  -3.589   1.308  0.00  0.00    +0.056 N 
ATOM     25  O   UNL     1      10.722  -3.372   0.116  0.00  0.00    -0.126 OA
ATOM     26  O   UNL     1      10.904  -3.307   2.389  0.00  0.00    -0.126 OA
ENDBRANCH   7  24
BRANCH   1  27
ATOM     27  N   UNL     1       2.147  -6.354   0.084  0.00  0.00    -0.157 N 
ATOM     28  H   UNL     1       2.312  -5.751  -0.658  0.00  0.00    +0.194 HD
BRANCH  27  29
ATOM     29  S   UNL     1       0.702  -7.156   0.193  0.00  0.00    +0.085 S 
ATOM     30  O   UNL     1       1.006  -8.544   0.190  0.00  0.00    -0.149 OA
ATOM     31  O   UNL     1      -0.165  -6.564  -0.765  0.00  0.00    -0.149 OA
BRANCH  29  36
ATOM     32  C   UNL     1      -1.624  -5.915   5.620  0.00  0.00    +0.044 C 
ATOM     33  C   UNL     1      -1.043  -6.225   4.265  0.00  0.00    -0.050 A 
ATOM     34  C   UNL     1      -1.339  -5.415   3.184  0.00  0.00    +0.005 A 
ATOM     35  C   UNL     1      -0.806  -5.699   1.941  0.00  0.00    +0.029 A 
ATOM     36  C   UNL     1       0.023  -6.793   1.778  0.00  0.00    +0.110 A 
ATOM     37  C   UNL     1       0.320  -7.603   2.858  0.00  0.00    +0.029 A 
ATOM     38  C   UNL     1      -0.210  -7.316   4.103  0.00  0.00    +0.005 A 
ENDBRANCH  29  36
ENDBRANCH  27  29
ENDBRANCH   1  27
TORSDOF 6
