REMARK  Name = ZINC67457089
REMARK  11 active torsions:
REMARK  status: ('A' for Active; 'I' for Inactive)
REMARK    1  A    between atoms: C_1  and  C_2
REMARK    2  A    between atoms: C_2  and  C_3
REMARK    3  A    between atoms: C_2  and  C_4
REMARK    4  A    between atoms: C_4  and  C_5
REMARK    5  A    between atoms: C_5  and  C_7
REMARK    6  A    between atoms: C_5  and  N_26
REMARK    7  A    between atoms: C_7  and  N_8
REMARK    8  A    between atoms: N_11  and  C_12
REMARK    9  A    between atoms: C_12  and  C_13
REMARK   10  A    between atoms: C_13  and  C_15
REMARK   11  A    between atoms: C_13  and  O_25
REMARK                            x       y       z     vdW  Elec       q    Type
REMARK                         _______ _______ _______ _____ _____    ______ ____
ROOT
ATOM      1  N   UNL     1      -0.388  -0.234   5.052  0.00  0.00    -0.298 N 
ATOM      2  C   UNL     1      -0.062  -0.712   6.269  0.00  0.00    +0.300 C 
ATOM      3  O   UNL     1       0.819  -1.542   6.381  0.00  0.00    -0.253 OA
ATOM      4  N   UNL     1      -0.714  -0.269   7.363  0.00  0.00    -0.297 N 
ATOM      5  H   UNL     1      -1.091   0.428   4.963  0.00  0.00    +0.150 HD
ATOM      6  H   UNL     1      -1.416   0.393   7.274  0.00  0.00    +0.150 HD
ENDROOT
BRANCH   1   7
ATOM      7  C   UNL     1       0.320  -0.715   3.863  0.00  0.00    +0.124 C 
BRANCH   7   8
ATOM      8  C   UNL     1      -0.159   0.061   2.635  0.00  0.00    +0.074 C 
BRANCH   8   9
ATOM      9  N   UNL     1       0.638  -0.332   1.465  0.00  0.00    -0.294 NA
ATOM     10  C   UNL     1       0.633  -1.791   1.290  0.00  0.00    +0.113 C 
ATOM     11  C   UNL     1       1.423  -2.151   0.030  0.00  0.00    +0.175 C 
ATOM     12  O   UNL     1       2.748  -1.624   0.137  0.00  0.00    -0.377 OA
ATOM     13  C   UNL     1       2.791  -0.205   0.308  0.00  0.00    +0.175 C 
ATOM     14  C   UNL     1       2.014   0.175   1.571  0.00  0.00    +0.113 C 
ENDBRANCH   8   9
BRANCH   8  15
ATOM     15  C   UNL     1      -1.634  -0.254   2.376  0.00  0.00    +0.023 C 
BRANCH  15  17
ATOM     16  C   UNL     1      -3.566   0.174   0.850  0.00  0.00    +0.007 C 
ATOM     17  C   UNL     1      -2.140   0.598   1.210  0.00  0.00    -0.016 C 
ATOM     18  C   UNL     1      -2.134   2.074   1.616  0.00  0.00    +0.007 C 
ENDBRANCH  15  17
ENDBRANCH   8  15
ENDBRANCH   7   8
ENDBRANCH   1   7
BRANCH   4  19
ATOM     19  C   UNL     1      -0.360  -0.789   8.687  0.00  0.00    +0.141 C 
BRANCH  19  20
ATOM     20  C   UNL     1      -1.243  -0.127   9.747  0.00  0.00    +0.162 C 
BRANCH  20  21
ATOM     21  C   UNL     1      -0.798  -0.568  11.117  0.00  0.00    -0.017 A 
ATOM     22  C   UNL     1      -1.195  -1.814  11.600  0.00  0.00    +0.007 A 
ATOM     23  C   UNL     1      -0.811  -2.242  12.834  0.00  0.00    +0.009 A 
ATOM     24  C   UNL     1      -0.002  -1.419  13.635  0.00  0.00    -0.018 A 
ATOM     25  C   UNL     1       0.415  -1.827  14.913  0.00  0.00    +0.008 A 
ATOM     26  C   UNL     1       1.199  -1.003  15.661  0.00  0.00    +0.001 A 
ATOM     27  C   UNL     1       1.596   0.242  15.178  0.00  0.00    +0.001 A 
ATOM     28  C   UNL     1       1.212   0.671  13.945  0.00  0.00    +0.008 A 
ATOM     29  C   UNL     1       0.403  -0.152  13.144  0.00  0.00    -0.018 A 
ATOM     30  C   UNL     1      -0.010   0.254  11.863  0.00  0.00    +0.014 A 
ENDBRANCH  20  21
BRANCH  20  31
ATOM     31  O   UNL     1      -2.603  -0.512   9.541  0.00  0.00    -0.386 OA
ATOM     32  H   UNL     1      -2.756  -1.465   9.597  0.00  0.00    +0.210 HD
ENDBRANCH  20  31
ENDBRANCH  19  20
ENDBRANCH   4  19
TORSDOF 9
