REMARK  Name = ZINC59845379
REMARK  8 active torsions:
REMARK  status: ('A' for Active; 'I' for Inactive)
REMARK    1  A    between atoms: C_1  and  C_2
REMARK    2  A    between atoms: C_2  and  C_4
REMARK    3  A    between atoms: C_2  and  S_11
REMARK    4  A    between atoms: N_6  and  N_7
REMARK    5  A    between atoms: C_8  and  C_10
REMARK    6  A    between atoms: S_11  and  C_12
REMARK    7  A    between atoms: C_15  and  C_18
REMARK    8  A    between atoms: N_16  and  N_17
REMARK                            x       y       z     vdW  Elec       q    Type
REMARK                         _______ _______ _______ _____ _____    ______ ____
ROOT
ATOM      1  C   UNL     1      -2.365  -0.093  -1.525  0.00  0.00    +0.209 A 
ATOM      2  N   UNL     1      -1.733   0.598  -2.448  0.00  0.00    -0.121 NA
ATOM      3  N   UNL     1      -2.514   0.821  -3.444  0.00  0.00    -0.127 NA
ATOM      4  C   UNL     1      -3.691   0.285  -3.219  0.00  0.00    +0.182 A 
ATOM      5  N   UNL     1      -3.630  -0.322  -1.986  0.00  0.00    -0.224 N 
ENDROOT
BRANCH   4   6
ATOM      6  C   UNL     1      -4.860   0.322  -4.123  0.00  0.00    +0.021 A 
ATOM      7  C   UNL     1      -6.130  -0.002  -3.641  0.00  0.00    +0.013 A 
ATOM      8  C   UNL     1      -7.217   0.035  -4.489  0.00  0.00    +0.016 A 
ATOM      9  C   UNL     1      -7.051   0.391  -5.817  0.00  0.00    +0.018 A 
ATOM     10  C   UNL     1      -5.794   0.712  -6.301  0.00  0.00    +0.016 A 
ATOM     11  C   UNL     1      -4.701   0.686  -5.461  0.00  0.00    +0.013 A 
ATOM     12 BR   UNL     1      -8.546   0.437  -6.973  0.00  0.00    -0.050 Br
ENDBRANCH   4   6
BRANCH   5  13
ATOM     13  N   UNL     1      -4.627  -1.008  -1.353  0.00  0.00    -0.295 N 
ATOM     14  H   UNL     1      -5.183  -0.390  -0.780  0.00  0.00    +0.163 HD
ATOM     15  H   UNL     1      -5.204  -1.502  -2.017  0.00  0.00    +0.163 HD
ENDBRANCH   5  13
BRANCH   1  16
ATOM     16  S   UNL     1      -1.700  -0.632   0.015  0.00  0.00    -0.072 S 
BRANCH  16  18
ATOM     17  C   UNL     1      -0.019   1.526   0.010  0.00  0.00    +0.029 C 
ATOM     18  C   UNL     1       0.002  -0.004   0.002  0.00  0.00    +0.138 C 
BRANCH  18  19
ATOM     19  C   UNL     1       0.731  -0.503   1.223  0.00  0.00    +0.242 C 
ATOM     20  O   UNL     1       0.105  -0.891   2.187  0.00  0.00    -0.273 OA
ATOM     21  N   UNL     1       2.079  -0.519   1.244  0.00  0.00    -0.233 N 
ATOM     22  H   UNL     1       2.579  -0.208   0.473  0.00  0.00    +0.173 HD
BRANCH  21  23
ATOM     23  N   UNL     1       2.756  -0.983   2.379  0.00  0.00    -0.235 N 
ATOM     24  C   UNL     1       4.104  -0.998   2.400  0.00  0.00    +0.226 C 
ATOM     25  O   UNL     1       4.730  -0.610   1.436  0.00  0.00    -0.275 OA
ATOM     26  C   UNL     1       4.832  -1.497   3.621  0.00  0.00    +0.110 C 
ATOM     27  H   UNL     1       2.255  -1.293   3.150  0.00  0.00    +0.173 HD
ENDBRANCH  21  23
ENDBRANCH  18  19
ENDBRANCH  16  18
ENDBRANCH   1  16
TORSDOF 6
