REMARK  Name = ZINC02282341
REMARK  9 active torsions:
REMARK  status: ('A' for Active; 'I' for Inactive)
REMARK    1  A    between atoms: C_1  and  C_2
REMARK    2  A    between atoms: C_4  and  C_30
REMARK    3  A    between atoms: C_4  and  C_31
REMARK    4  A    between atoms: C_9  and  O_12
REMARK    5  A    between atoms: O_12  and  C_13
REMARK    6  A    between atoms: C_13  and  C_15
REMARK    7  A    between atoms: C_15  and  C_17
REMARK    8  A    between atoms: C_15  and  S_23
REMARK    9  A    between atoms: S_23  and  C_24
REMARK                            x       y       z     vdW  Elec       q    Type
REMARK                         _______ _______ _______ _____ _____    ______ ____
ROOT
ATOM      1  C   UNL     1      -1.120   2.828   8.363  0.00  0.00    +0.330 C 
ATOM      2  O   UNL     1      -0.790   1.668   8.292  0.00  0.00    -0.249 OA
ENDROOT
BRANCH   1   3
ATOM      3  O   UNL     1      -1.126   3.594   7.261  0.00  0.00    -0.425 OA
BRANCH   3  12
ATOM      4  C   UNL     1      -3.895   0.449   4.221  0.00  0.00    +0.044 C 
ATOM      5  C   UNL     1      -2.470   0.504   3.734  0.00  0.00    -0.043 C 
ATOM      6  C   UNL     1      -2.067  -0.300   2.759  0.00  0.00    +0.002 C 
ATOM      7  C   UNL     1      -0.645  -0.274   2.266  0.00  0.00    +0.045 C 
ATOM      8  N   UNL     1      -0.072   1.064   2.457  0.00  0.00    -0.335 N 
ATOM      9  C   UNL     1      -0.312   1.722   3.668  0.00  0.00    +0.035 A 
ATOM     10  C   UNL     1      -1.516   1.453   4.340  0.00  0.00    +0.002 A 
ATOM     11  C   UNL     1      -1.787   2.083   5.550  0.00  0.00    +0.056 A 
ATOM     12  C   UNL     1      -0.866   2.974   6.078  0.00  0.00    +0.132 A 
ATOM     13  C   UNL     1       0.320   3.238   5.406  0.00  0.00    +0.048 A 
ATOM     14  C   UNL     1       0.598   2.613   4.204  0.00  0.00    +0.027 A 
ATOM     15  C   UNL     1      -0.617  -0.631   0.778  0.00  0.00    +0.036 C 
ATOM     16  C   UNL     1       0.180  -1.297   3.049  0.00  0.00    +0.036 C 
ATOM     17  H   UNL     1       0.459   1.482   1.762  0.00  0.00    +0.147 HD
ENDBRANCH   3  12
ENDBRANCH   1   3
BRANCH   1  18
ATOM     18  C   UNL     1      -1.526   3.416   9.690  0.00  0.00    +0.190 C 
BRANCH  18  19
ATOM     19  C   UNL     1      -3.026   3.354   9.830  0.00  0.00    -0.024 A 
ATOM     20  C   UNL     1      -3.674   2.133   9.787  0.00  0.00    +0.005 A 
ATOM     21  C   UNL     1      -5.049   2.076   9.919  0.00  0.00    +0.000 A 
ATOM     22  C   UNL     1      -5.776   3.240  10.085  0.00  0.00    +0.000 A 
ATOM     23  C   UNL     1      -5.128   4.461  10.122  0.00  0.00    +0.000 A 
ATOM     24  C   UNL     1      -3.753   4.517   9.994  0.00  0.00    +0.005 A 
ENDBRANCH  18  19
BRANCH  18  25
ATOM     25  S   UNL     1      -0.755   2.469  11.032  0.00  0.00    -0.106 S 
BRANCH  25  26
ATOM     26  C   UNL     1      -1.198   3.356  12.489  0.00  0.00    +0.009 A 
ATOM     27  C   UNL     1      -1.971   4.507  12.395  0.00  0.00    +0.015 A 
ATOM     28  C   UNL     1      -2.321   5.196  13.540  0.00  0.00    +0.001 A 
ATOM     29  C   UNL     1      -1.894   4.748  14.777  0.00  0.00    +0.000 A 
ATOM     30  C   UNL     1      -1.120   3.606  14.873  0.00  0.00    +0.001 A 
ATOM     31  C   UNL     1      -0.771   2.909  13.733  0.00  0.00    +0.015 A 
ENDBRANCH  25  26
ENDBRANCH  18  25
ENDBRANCH   1  18
TORSDOF 6
