REMARK  Name = ZINC09094793
REMARK  11 active torsions:
REMARK  status: ('A' for Active; 'I' for Inactive)
REMARK    1  A    between atoms: C_1  and  C_2
REMARK    2  A    between atoms: C_2  and  O_3
REMARK    3  A    between atoms: O_3  and  C_4
REMARK    4  A    between atoms: C_6  and  C_11
REMARK    5  A    between atoms: C_9  and  O_10
REMARK    6  A    between atoms: N_12  and  N_13
REMARK    7  A    between atoms: C_14  and  C_16
REMARK    8  A    between atoms: C_17  and  C_33
REMARK    9  A    between atoms: C_18  and  C_31
REMARK   10  A    between atoms: N_21  and  C_23
REMARK   11  A    between atoms: C_26  and  C_30
REMARK                            x       y       z     vdW  Elec       q    Type
REMARK                         _______ _______ _______ _____ _____    ______ ____
ROOT
ATOM      1  C   UNL     1      -1.793   5.297  -1.637  0.00  0.00    +0.152 A 
ATOM      2  C   UNL     1      -2.893   5.875  -2.305  0.00  0.00    +0.004 A 
ATOM      3  C   UNL     1      -2.657   6.994  -3.099  0.00  0.00    +0.123 A 
ATOM      4  C   UNL     1      -1.272   7.473  -3.184  0.00  0.00    +0.290 A 
ATOM      5  O   UNL     1      -0.991   8.444  -3.865  0.00  0.00    -0.264 OA
ATOM      6  N   UNL     1      -0.317   6.819  -2.494  0.00  0.00    -0.195 N 
ATOM      7  N   UNL     1      -0.584   5.795  -1.770  0.00  0.00    -0.158 NA
ATOM      8  C   UNL     1      -4.280   5.304  -2.159  0.00  0.00    +0.048 C 
ENDROOT
BRANCH   6   9
ATOM      9  C   UNL     1       1.004   7.270  -2.570  0.00  0.00    +0.071 A 
ATOM     10  C   UNL     1       1.568   7.568  -3.804  0.00  0.00    +0.028 A 
ATOM     11  C   UNL     1       2.872   8.017  -3.876  0.00  0.00    +0.007 A 
ATOM     12  C   UNL     1       3.620   8.161  -2.722  0.00  0.00    -0.032 A 
ATOM     13  C   UNL     1       3.064   7.860  -1.491  0.00  0.00    +0.046 A 
ATOM     14  C   UNL     1       1.758   7.415  -1.412  0.00  0.00    +0.048 A 
ATOM     15 CL   UNL     1       4.008   8.042  -0.045  0.00  0.00    -0.083 Cl
ATOM     16  C   UNL     1       5.045   8.646  -2.805  0.00  0.00    +0.045 C 
ENDBRANCH   6   9
BRANCH   1  18
ATOM     17  N   UNL     1      -0.956   3.541  -0.151  0.00  0.00    -0.202 N 
ATOM     18  C   UNL     1      -2.003   4.112  -0.779  0.00  0.00    +0.284 C 
ATOM     19  O   UNL     1      -3.120   3.651  -0.640  0.00  0.00    -0.267 OA
ATOM     20  H   UNL     1      -0.057   3.865  -0.314  0.00  0.00    +0.178 HD
BRANCH  17  22
ATOM     21  C   UNL     1      -0.179   2.017   1.443  0.00  0.00    +0.138 C 
ATOM     22  N   UNL     1      -1.167   2.479   0.739  0.00  0.00    -0.187 NA
BRANCH  21  25
ATOM     23  C   UNL     1       3.204   3.185   2.580  0.00  0.00    +0.162 A 
ATOM     24  C   UNL     1       2.154   2.352   2.241  0.00  0.00    +0.059 A 
ATOM     25  C   UNL     1       0.944   2.900   1.807  0.00  0.00    -0.002 A 
ATOM     26  C   UNL     1       0.803   4.287   1.712  0.00  0.00    +0.013 A 
ATOM     27  C   UNL     1       1.854   5.111   2.056  0.00  0.00    +0.050 A 
ATOM     28  C   UNL     1       3.054   4.567   2.488  0.00  0.00    +0.158 A 
BRANCH  28  29
ATOM     29  O   UNL     1       4.088   5.384   2.821  0.00  0.00    -0.503 OA
ATOM     30  H   UNL     1       4.676   5.596   2.083  0.00  0.00    +0.292 HD
ENDBRANCH  28  29
BRANCH  23  31
ATOM     31  O   UNL     1       4.382   2.655   3.004  0.00  0.00    -0.489 OA
BRANCH  31  33
ATOM     32  C   UNL     1       5.854   0.823   3.568  0.00  0.00    +0.048 C 
ATOM     33  C   UNL     1       4.464   1.230   3.075  0.00  0.00    +0.226 C 
ENDBRANCH  31  33
ENDBRANCH  23  31
ENDBRANCH  21  25
ENDBRANCH  17  22
ENDBRANCH   1  18
BRANCH   3  34
ATOM     34  C   UNL     1      -3.718   7.644  -3.808  0.00  0.00    +0.105 C 
ATOM     35  N   UNL     1      -4.559   8.161  -4.370  0.00  0.00    -0.191 NA
ENDBRANCH   3  34
TORSDOF 8
