REMARK  Name = ZINC18200566
REMARK  6 active torsions:
REMARK  status: ('A' for Active; 'I' for Inactive)
REMARK    1  A    between atoms: C_1  and  O_2
REMARK    2  A    between atoms: O_2  and  C_3
REMARK    3  A    between atoms: C_6  and  C_11
REMARK    4  A    between atoms: C_8  and  O_9
REMARK    5  A    between atoms: O_9  and  C_10
REMARK    6  A    between atoms: C_16  and  C_29
REMARK                            x       y       z     vdW  Elec       q    Type
REMARK                         _______ _______ _______ _____ _____    ______ ____
ROOT
ATOM      1  C   UNL     1      -1.986   7.594  -1.816  0.00  0.00    +0.032 C 
ATOM      2  C   UNL     1      -0.938   7.222  -0.764  0.00  0.00    +0.059 C 
ATOM      3  C   UNL     1      -1.115   5.779  -0.360  0.00  0.00    +0.017 C 
ATOM      4  C   UNL     1      -2.334   5.199  -0.370  0.00  0.00    +0.025 C 
ATOM      5  C   UNL     1      -2.511   3.763   0.053  0.00  0.00    +0.099 C 
ATOM      6  C   UNL     1      -1.205   3.025   0.031  0.00  0.00    +0.067 A 
ATOM      7  C   UNL     1      -0.021   3.698   0.020  0.00  0.00    +0.113 A 
ATOM      8  N   UNL     1       1.159   2.994   0.005  0.00  0.00    -0.295 N 
ATOM      9  H   UNL     1       2.031   3.485  -0.002  0.00  0.00    +0.172 HD
ATOM     10  C   UNL     1       1.148   1.649  -0.000  0.00  0.00    +0.328 A 
ATOM     11  O   UNL     1       2.201   1.041  -0.011  0.00  0.00    -0.247 OA
ATOM     12  N   UNL     1      -0.011   0.966   0.007  0.00  0.00    -0.275 N 
ATOM     13  H   UNL     1       0.003  -0.034   0.006  0.00  0.00    +0.173 HD
ATOM     14  C   UNL     1      -1.190   1.618   0.017  0.00  0.00    +0.260 A 
ATOM     15  O   UNL     1      -2.237   0.993   0.016  0.00  0.00    -0.267 OA
ATOM     16  N   UNL     1      -0.008   5.070   0.021  0.00  0.00    -0.303 N 
ATOM     17  C   UNL     1      -3.474   5.915  -0.776  0.00  0.00    +0.162 C 
ATOM     18  O   UNL     1      -4.557   5.366  -0.766  0.00  0.00    -0.292 OA
ATOM     19  C   UNL     1      -3.377   7.348  -1.223  0.00  0.00    +0.088 C 
ATOM     20  H   UNL     1       0.794   5.542   0.295  0.00  0.00    +0.153 HD
ENDROOT
BRANCH   1  24
ATOM     21  C   UNL     1      -1.581  11.720  -2.866  0.00  0.00    +0.161 A 
ATOM     22  C   UNL     1      -1.837  11.358  -1.553  0.00  0.00    +0.049 A 
ATOM     23  C   UNL     1      -1.968  10.023  -1.217  0.00  0.00    +0.008 A 
ATOM     24  C   UNL     1      -1.843   9.047  -2.188  0.00  0.00    -0.040 A 
ATOM     25  C   UNL     1      -1.582   9.401  -3.499  0.00  0.00    +0.053 A 
ATOM     26  C   UNL     1      -1.455  10.737  -3.843  0.00  0.00    +0.162 A 
BRANCH  21  28
ATOM     27  C   UNL     1      -1.595  13.985  -2.143  0.00  0.00    +0.277 C 
ATOM     28  O   UNL     1      -1.453  13.032  -3.198  0.00  0.00    -0.491 OA
ENDBRANCH  21  28
BRANCH  26  29
ATOM     29  O   UNL     1      -1.204  11.087  -5.133  0.00  0.00    -0.491 OA
ATOM     30  C   UNL     1      -1.087  10.026  -6.083  0.00  0.00    +0.277 C 
ENDBRANCH  26  29
ENDBRANCH   1  24
BRANCH   5  31
ATOM     31  C   UNL     1      -3.076   3.726   1.450  0.00  0.00    +0.002 A 
ATOM     32  C   UNL     1      -4.242   3.188   1.885  0.00  0.00    +0.012 A 
ATOM     33  C   UNL     1      -4.557   3.269   3.229  0.00  0.00    +0.008 A 
ATOM     34  C   UNL     1      -3.697   3.894   4.069  0.00  0.00    +0.045 A 
ATOM     35  S   UNL     1      -2.388   4.387   2.959  0.00  0.00    -0.101 S 
ENDBRANCH   5  31
TORSDOF 4
