REMARK  Name = ZINC59116547
REMARK  7 active torsions:
REMARK  status: ('A' for Active; 'I' for Inactive)
REMARK    1  A    between atoms: C_1  and  C_2
REMARK    2  A    between atoms: C_5  and  S_8
REMARK    3  A    between atoms: S_8  and  N_11
REMARK    4  A    between atoms: N_11  and  C_12
REMARK    5  A    between atoms: C_15  and  C_18
REMARK    6  A    between atoms: C_18  and  N_19
REMARK    7  A    between atoms: N_19  and  C_20
REMARK                            x       y       z     vdW  Elec       q    Type
REMARK                         _______ _______ _______ _____ _____    ______ ____
ROOT
ATOM      1  C   UNL     1       2.403  -4.609   1.211  0.00  0.00    +0.048 A 
ATOM      2  C   UNL     1       2.174  -3.426   1.902  0.00  0.00    +0.025 A 
ATOM      3  C   UNL     1       2.894  -3.146   3.046  0.00  0.00    +0.007 A 
ATOM      4  C   UNL     1       3.843  -4.042   3.505  0.00  0.00    -0.030 A 
ATOM      5  C   UNL     1       4.074  -5.220   2.819  0.00  0.00    +0.007 A 
ATOM      6  C   UNL     1       3.353  -5.509   1.677  0.00  0.00    +0.025 A 
ENDROOT
BRANCH   1   7
ATOM      7  N   UNL     1       1.676  -4.896   0.053  0.00  0.00    -0.216 N 
ATOM      8  H   UNL     1       2.097  -4.813  -0.817  0.00  0.00    +0.174 HD
BRANCH   7   9
ATOM      9  S   UNL     1       0.096  -5.378   0.166  0.00  0.00    +0.072 S 
ATOM     10  O   UNL     1      -0.336  -5.668  -1.156  0.00  0.00    -0.150 OA
ATOM     11  O   UNL     1      -0.561  -4.425   0.991  0.00  0.00    -0.150 OA
BRANCH   9  16
ATOM     12  C   UNL     1       0.031 -10.602   3.183  0.00  0.00    +0.044 C 
ATOM     13  C   UNL     1       0.048  -9.297   2.430  0.00  0.00    -0.050 A 
ATOM     14  C   UNL     1      -0.164  -8.108   3.102  0.00  0.00    +0.005 A 
ATOM     15  C   UNL     1      -0.149  -6.911   2.411  0.00  0.00    +0.029 A 
ATOM     16  C   UNL     1       0.078  -6.903   1.048  0.00  0.00    +0.109 A 
ATOM     17  C   UNL     1       0.291  -8.092   0.375  0.00  0.00    +0.029 A 
ATOM     18  C   UNL     1       0.280  -9.289   1.067  0.00  0.00    +0.005 A 
ENDBRANCH   9  16
ENDBRANCH   7   9
ENDBRANCH   1   7
BRANCH   4  19
ATOM     19  C   UNL     1       4.628  -3.732   4.753  0.00  0.00    +0.136 C 
BRANCH  19  20
ATOM     20  N   UNL     1       3.918  -4.263   5.920  0.00  0.00    -0.340 N 
ATOM     21  H   UNL     1       3.076  -4.729   5.805  0.00  0.00    +0.146 HD
BRANCH  20  22
ATOM     22  C   UNL     1       4.456  -4.097   7.199  0.00  0.00    +0.027 A 
ATOM     23  C   UNL     1       5.659  -3.425   7.367  0.00  0.00    +0.024 A 
ATOM     24  C   UNL     1       6.188  -3.263   8.633  0.00  0.00    +0.017 A 
ATOM     25  C   UNL     1       5.520  -3.770   9.733  0.00  0.00    +0.018 A 
ATOM     26  C   UNL     1       4.321  -4.441   9.569  0.00  0.00    +0.017 A 
ATOM     27  C   UNL     1       3.784  -4.600   8.306  0.00  0.00    +0.024 A 
ATOM     28 BR   UNL     1       6.247  -3.547  11.464  0.00  0.00    -0.050 Br
ENDBRANCH  20  22
ENDBRANCH  19  20
ENDBRANCH   4  19
TORSDOF 6
