REMARK  Name = ZINC57491122
REMARK  7 active torsions:
REMARK  status: ('A' for Active; 'I' for Inactive)
REMARK    1  A    between atoms: C_1  and  C_2
REMARK    2  A    between atoms: C_7  and  N_8
REMARK    3  A    between atoms: C_9  and  C_11
REMARK    4  A    between atoms: C_11  and  N_12
REMARK    5  A    between atoms: N_20  and  C_23
REMARK    6  A    between atoms: C_26  and  C_30
REMARK    7  A    between atoms: C_27  and  C_29
REMARK                            x       y       z     vdW  Elec       q    Type
REMARK                         _______ _______ _______ _____ _____    ______ ____
ROOT
ATOM      1  N   UNL     1      -0.241  -0.914   5.981  0.00  0.00    -0.284 N 
ATOM      2  C   UNL     1      -1.491  -1.380   6.414  0.00  0.00    +0.066 A 
ATOM      3  C   UNL     1      -2.767  -1.085   5.945  0.00  0.00    +0.034 A 
ATOM      4  C   UNL     1      -3.843  -1.662   6.526  0.00  0.00    +0.048 A 
ATOM      5  S   UNL     1      -3.195  -2.634   7.735  0.00  0.00    -0.090 S 
ATOM      6  C   UNL     1      -1.478  -2.282   7.481  0.00  0.00    +0.101 A 
ATOM      7  C   UNL     1      -0.280  -2.689   8.076  0.00  0.00    +0.275 A 
ATOM      8  O   UNL     1      -0.287  -3.477   9.005  0.00  0.00    -0.266 OA
ATOM      9  N   UNL     1       0.887  -2.196   7.603  0.00  0.00    -0.228 N 
ATOM     10  C   UNL     1       0.888  -1.332   6.574  0.00  0.00    +0.337 A 
ATOM     11  O   UNL     1       1.953  -0.910   6.167  0.00  0.00    -0.246 OA
ENDROOT
BRANCH   9  12
ATOM     12  C   UNL     1       2.099  -2.591   8.185  0.00  0.00    +0.055 A 
ATOM     13  C   UNL     1       2.880  -1.665   8.864  0.00  0.00    +0.027 A 
ATOM     14  C   UNL     1       4.074  -2.057   9.437  0.00  0.00    +0.005 A 
ATOM     15  C   UNL     1       4.492  -3.371   9.334  0.00  0.00    -0.047 A 
ATOM     16  C   UNL     1       3.718  -4.296   8.659  0.00  0.00    -0.046 A 
ATOM     17  C   UNL     1       2.520  -3.911   8.089  0.00  0.00    +0.030 A 
ATOM     18  C   UNL     1       4.178  -5.726   8.549  0.00  0.00    +0.044 C 
ATOM     19  C   UNL     1       5.796  -3.796   9.960  0.00  0.00    +0.044 C 
ENDBRANCH   9  12
BRANCH   1  20
ATOM     20  C   UNL     1      -0.166   0.035   4.867  0.00  0.00    +0.222 C 
BRANCH  20  22
ATOM     21  N   UNL     1       0.020  -0.052   2.402  0.00  0.00    -0.284 N 
ATOM     22  C   UNL     1      -0.061  -0.722   3.569  0.00  0.00    +0.237 C 
ATOM     23  O   UNL     1      -0.049  -1.935   3.573  0.00  0.00    -0.274 OA
ATOM     24  H   UNL     1       0.073   0.916   2.402  0.00  0.00    +0.155 HD
BRANCH  21  31
ATOM     25  C   UNL     1      -1.266   1.132   0.157  0.00  0.00    +0.045 C 
ATOM     26  C   UNL     1      -0.589  -0.212   0.071  0.00  0.00    -0.029 A 
ATOM     27  C   UNL     1      -0.575  -0.904  -1.125  0.00  0.00    +0.005 A 
ATOM     28  C   UNL     1       0.045  -2.137  -1.204  0.00  0.00    +0.000 A 
ATOM     29  C   UNL     1       0.655  -2.681  -0.088  0.00  0.00    +0.002 A 
ATOM     30  C   UNL     1       0.645  -1.994   1.109  0.00  0.00    +0.023 A 
ATOM     31  C   UNL     1       0.027  -0.753   1.191  0.00  0.00    +0.036 A 
ENDBRANCH  21  31
ENDBRANCH  20  22
ENDBRANCH   1  20
TORSDOF 4
