REMARK  Name = ZINC36504048
REMARK  14 active torsions:
REMARK  status: ('A' for Active; 'I' for Inactive)
REMARK    1  A    between atoms: C_1  and  C_2
REMARK    2  A    between atoms: C_2  and  C_3
REMARK    3  A    between atoms: C_3  and  C_4
REMARK    4  A    between atoms: C_4  and  C_5
REMARK    5  A    between atoms: C_5  and  C_6
REMARK    6  A    between atoms: N_8  and  C_9
REMARK    7  A    between atoms: N_8  and  C_15
REMARK    8  A    between atoms: C_9  and  C_10
REMARK    9  A    between atoms: C_15  and  C_17
REMARK   10  A    between atoms: C_15  and  C_26
REMARK   11  A    between atoms: C_18  and  O_25
REMARK   12  A    between atoms: C_20  and  O_24
REMARK   13  A    between atoms: C_22  and  O_23
REMARK   14  A    between atoms: N_28  and  C_29
REMARK                            x       y       z     vdW  Elec       q    Type
REMARK                         _______ _______ _______ _____ _____    ______ ____
ROOT
ATOM      1  C   UNL     1       1.767  -6.026  -3.449  0.00  0.00    +0.200 C 
ENDROOT
BRANCH   1   2
ATOM      2  C   UNL     1       3.168  -5.938  -3.998  0.00  0.00    +0.065 A 
ATOM      3  C   UNL     1       3.444  -5.093  -5.062  0.00  0.00    +0.129 A 
ATOM      4  C   UNL     1       4.733  -5.013  -5.567  0.00  0.00    +0.091 A 
ATOM      5  C   UNL     1       5.746  -5.776  -5.008  0.00  0.00    +0.124 A 
ATOM      6  C   UNL     1       5.470  -6.621  -3.943  0.00  0.00    +0.091 A 
ATOM      7  C   UNL     1       4.182  -6.698  -3.435  0.00  0.00    +0.129 A 
BRANCH   7   8
ATOM      8  O   UNL     1       3.913  -7.522  -2.388  0.00  0.00    -0.506 OA
ATOM      9  H   UNL     1       3.655  -8.417  -2.648  0.00  0.00    +0.292 HD
ENDBRANCH   7   8
BRANCH   5  10
ATOM     10  O   UNL     1       7.009  -5.698  -5.503  0.00  0.00    -0.507 OA
ATOM     11  H   UNL     1       7.556  -5.021  -5.082  0.00  0.00    +0.292 HD
ENDBRANCH   5  10
BRANCH   3  12
ATOM     12  O   UNL     1       2.451  -4.345  -5.611  0.00  0.00    -0.506 OA
ATOM     13  H   UNL     1       2.402  -3.443  -5.265  0.00  0.00    +0.292 HD
ENDBRANCH   3  12
ENDBRANCH   1   2
BRANCH   1  14
ATOM     14  C   UNL     1       0.923  -6.879  -4.361  0.00  0.00    +0.239 C 
ATOM     15  O   UNL     1       0.454  -6.404  -5.373  0.00  0.00    -0.273 OA
ATOM     16  N   UNL     1       0.688  -8.169  -4.050  0.00  0.00    -0.311 N 
ATOM     17  H   UNL     1       1.063  -8.549  -3.240  0.00  0.00    +0.149 HD
BRANCH  16  18
ATOM     18  C   UNL     1      -0.132  -8.998  -4.936  0.00  0.00    +0.073 C 
ATOM     19  C   UNL     1      -1.611  -8.800  -4.595  0.00  0.00    +0.022 C 
ATOM     20  C   UNL     1      -2.468  -9.666  -5.521  0.00  0.00    +0.002 C 
ATOM     21  C   UNL     1      -2.094 -11.138  -5.333  0.00  0.00    +0.000 C 
ATOM     22  C   UNL     1      -0.616 -11.336  -5.674  0.00  0.00    +0.002 C 
ATOM     23  C   UNL     1       0.242 -10.470  -4.748  0.00  0.00    +0.022 C 
ENDBRANCH  16  18
ENDBRANCH   1  14
BRANCH   1  26
ATOM     24  C   UNL     1       1.849  -3.705  -2.710  0.00  0.00    +0.217 C 
ATOM     25  O   UNL     1       2.919  -3.940  -2.189  0.00  0.00    -0.276 OA
ATOM     26  N   UNL     1       1.190  -4.681  -3.365  0.00  0.00    -0.278 N 
BRANCH  24  27
ATOM     27  C   UNL     1       1.256  -2.323  -2.623  0.00  0.00    +0.096 C 
BRANCH  27  28
ATOM     28  C   UNL     1       2.196  -1.413  -1.831  0.00  0.00    +0.009 C 
BRANCH  28  29
ATOM     29  C   UNL     1       1.594  -0.009  -1.744  0.00  0.00    +0.000 C 
BRANCH  29  31
ATOM     30  C   UNL     1       1.933   2.305  -0.865  0.00  0.00    +0.004 C 
ATOM     31  C   UNL     1       2.535   0.901  -0.952  0.00  0.00    -0.003 C 
ENDBRANCH  29  31
ENDBRANCH  28  29
ENDBRANCH  27  28
ENDBRANCH  24  27
BRANCH  26  32
ATOM     32  C   UNL     1      -0.102  -4.399  -3.995  0.00  0.00    +0.183 C 
BRANCH  32  33
ATOM     33  C   UNL     1       0.111  -3.539  -5.214  0.00  0.00    +0.122 A 
ATOM     34  C   UNL     1       0.194  -3.979  -6.482  0.00  0.00    +0.046 A 
ATOM     35  C   UNL     1       0.394  -2.842  -7.298  0.00  0.00    +0.041 A 
ATOM     36  C   UNL     1       0.421  -1.775  -6.480  0.00  0.00    +0.195 A 
ATOM     37  O   UNL     1       0.243  -2.202  -5.219  0.00  0.00    -0.466 OA
ENDBRANCH  32  33
ENDBRANCH  26  32
ENDBRANCH   1  26
TORSDOF 13
