REMARK  Name = ZINC09012213
REMARK  8 active torsions:
REMARK  status: ('A' for Active; 'I' for Inactive)
REMARK    1  A    between atoms: C_1  and  C_2
REMARK    2  A    between atoms: C_3  and  C_39
REMARK    3  A    between atoms: C_5  and  N_11
REMARK    4  A    between atoms: C_6  and  C_7
REMARK    5  A    between atoms: C_7  and  O_9
REMARK    6  A    between atoms: O_9  and  C_10
REMARK    7  A    between atoms: C_26  and  C_32
REMARK    8  A    between atoms: C_32  and  C_34
REMARK                            x       y       z     vdW  Elec       q    Type
REMARK                         _______ _______ _______ _____ _____    ______ ____
ROOT
ATOM      1  N   UNL     1      -4.021   2.549   2.738  0.00  0.00    -0.203 N 
ATOM      2  C   UNL     1      -4.476   2.893   3.990  0.00  0.00    +0.233 C 
ATOM      3  O   UNL     1      -3.827   3.267   4.943  0.00  0.00    -0.274 OA
ATOM      4  C   UNL     1      -5.915   2.705   3.905  0.00  0.00    +0.113 C 
ATOM      5  C   UNL     1      -7.163   2.912   4.527  0.00  0.00    +0.100 C 
ATOM      6  C   UNL     1      -7.677   3.486   5.753  0.00  0.00    -0.021 A 
ATOM      7  C   UNL     1      -6.910   4.234   6.623  0.00  0.00    +0.006 A 
ATOM      8  C   UNL     1      -7.455   4.753   7.782  0.00  0.00    +0.000 A 
ATOM      9  C   UNL     1      -8.785   4.530   8.091  0.00  0.00    +0.001 A 
ATOM     10  C   UNL     1      -9.573   3.787   7.238  0.00  0.00    +0.008 A 
ATOM     11  C   UNL     1      -9.037   3.260   6.066  0.00  0.00    -0.019 A 
ATOM     12  C   UNL     1      -9.879   2.469   5.148  0.00  0.00    +0.022 C 
ATOM     13  C   UNL     1      -9.461   2.142   3.911  0.00  0.00    +0.054 C 
ATOM     14  C   UNL     1      -7.601   2.755   2.202  0.00  0.00    +0.141 C 
ATOM     15  C   UNL     1      -6.174   3.251   2.434  0.00  0.00    +0.116 C 
ATOM     16  C   UNL     1      -5.016   2.536   1.800  0.00  0.00    +0.233 C 
ATOM     17  O   UNL     1      -4.973   2.049   0.691  0.00  0.00    -0.274 OA
ATOM     18  N   UNL     1      -7.978   2.255   3.564  0.00  0.00    -0.384 NA
ATOM     19  H   UNL     1      -7.656   1.280   3.577  0.00  0.00    +0.127 HD
ENDROOT
BRANCH   1  24
ATOM     20  C   UNL     1       0.768   3.353   1.296  0.00  0.00    +0.045 C 
ATOM     21  C   UNL     1      -0.390   2.524   1.789  0.00  0.00    -0.025 A 
ATOM     22  C   UNL     1      -0.252   1.212   2.052  0.00  0.00    -0.008 A 
ATOM     23  S   UNL     1      -1.879   0.728   2.590  0.00  0.00    -0.077 S 
ATOM     24  C   UNL     1      -2.692   2.251   2.456  0.00  0.00    +0.096 A 
ATOM     25  C   UNL     1      -1.693   3.106   2.005  0.00  0.00    +0.091 A 
ATOM     26  C   UNL     1       0.983   0.357   1.923  0.00  0.00    +0.052 C 
BRANCH  25  27
ATOM     27  C   UNL     1      -1.952   4.526   1.755  0.00  0.00    +0.342 C 
ATOM     28  O   UNL     1      -2.324   4.893   0.657  0.00  0.00    -0.245 OA
BRANCH  27  29
ATOM     29  O   UNL     1      -1.777   5.428   2.743  0.00  0.00    -0.464 OA
ATOM     30  C   UNL     1      -2.052   6.817   2.424  0.00  0.00    +0.280 C 
ENDBRANCH  27  29
ENDBRANCH  25  27
ENDBRANCH   1  24
BRANCH  14  31
ATOM     31  C   UNL     1      -7.577   1.450   1.450  0.00  0.00    +0.189 C 
ATOM     32  O   UNL     1      -7.785   0.407   2.036  0.00  0.00    -0.290 OA
BRANCH  31  33
ATOM     33  C   UNL     1      -7.314   1.440   0.062  0.00  0.00    +0.056 A 
ATOM     34  C   UNL     1      -7.246   0.357  -0.810  0.00  0.00    +0.019 A 
ATOM     35  C   UNL     1      -6.971   0.633  -2.123  0.00  0.00    +0.008 A 
ATOM     36  C   UNL     1      -6.780   1.925  -2.506  0.00  0.00    +0.046 A 
ATOM     37  S   UNL     1      -6.987   2.811  -1.031  0.00  0.00    -0.094 S 
ENDBRANCH  31  33
ENDBRANCH  14  31
TORSDOF 5
