REMARK  Name = ZINC21247356
REMARK  7 active torsions:
REMARK  status: ('A' for Active; 'I' for Inactive)
REMARK    1  A    between atoms: C_1  and  C_2
REMARK    2  A    between atoms: C_2  and  O_3
REMARK    3  A    between atoms: O_3  and  C_4
REMARK    4  A    between atoms: C_7  and  C_10
REMARK    5  A    between atoms: C_15  and  C_21
REMARK    6  A    between atoms: C_24  and  C_30
REMARK    7  A    between atoms: C_25  and  N_27
REMARK                            x       y       z     vdW  Elec       q    Type
REMARK                         _______ _______ _______ _____ _____    ______ ____
ROOT
ATOM      1  C   UNL     1      -2.795   1.014   1.085  0.00  0.00    +0.032 C 
ATOM      2  C   UNL     1      -3.365   1.469  -0.260  0.00  0.00    +0.059 C 
ATOM      3  C   UNL     1      -4.631   0.706  -0.559  0.00  0.00    +0.018 C 
ATOM      4  C   UNL     1      -5.432   0.278   0.440  0.00  0.00    +0.020 C 
ATOM      5  C   UNL     1      -6.698  -0.481   0.117  0.00  0.00    +0.063 C 
ATOM      6  C   UNL     1      -7.299   0.064  -1.180  0.00  0.00    +0.109 C 
ATOM      7  C   UNL     1      -6.218   0.156  -2.225  0.00  0.00    +0.218 C 
ATOM      8  O   UNL     1      -6.485  -0.041  -3.391  0.00  0.00    -0.275 OA
ATOM      9  N   UNL     1      -4.957   0.454  -1.867  0.00  0.00    -0.289 N 
ATOM     10  C   UNL     1      -5.113   0.517   1.787  0.00  0.00    +0.162 C 
ATOM     11  O   UNL     1      -5.866   0.128   2.658  0.00  0.00    -0.292 OA
ATOM     12  C   UNL     1      -3.854   1.249   2.168  0.00  0.00    +0.088 C 
ATOM     13  H   UNL     1      -4.180   0.495  -2.645  0.00  0.00    +0.155 HD
ENDROOT
BRANCH   5  14
ATOM     14  C   UNL     1      -6.378  -1.944  -0.052  0.00  0.00    -0.037 A 
ATOM     15  C   UNL     1      -5.491  -2.348  -1.033  0.00  0.00    +0.004 A 
ATOM     16  C   UNL     1      -5.194  -3.690  -1.185  0.00  0.00    +0.006 A 
ATOM     17  C   UNL     1      -5.792  -4.628  -0.364  0.00  0.00    -0.020 A 
ATOM     18  C   UNL     1      -6.683  -4.223   0.613  0.00  0.00    +0.129 A 
ATOM     19  C   UNL     1      -6.976  -2.881   0.769  0.00  0.00    +0.037 A 
ATOM     20  C   UNL     1      -5.473  -6.090  -0.534  0.00  0.00    +0.046 C 
BRANCH  18  21
ATOM     21  N   UNL     1      -7.323  -5.227   1.492  0.00  0.00    +0.057 N 
ATOM     22  O   UNL     1      -7.646  -6.313   1.043  0.00  0.00    -0.126 OA
ATOM     23  O   UNL     1      -7.527  -4.968   2.664  0.00  0.00    -0.126 OA
ENDBRANCH  18  21
ENDBRANCH   5  14
BRANCH   1  27
ATOM     24  C   UNL     1       0.716   3.275   1.991  0.00  0.00    +0.121 A 
ATOM     25  C   UNL     1       0.790   1.895   1.871  0.00  0.00    +0.046 A 
ATOM     26  C   UNL     1      -0.347   1.166   1.582  0.00  0.00    +0.007 A 
ATOM     27  C   UNL     1      -1.558   1.811   1.407  0.00  0.00    -0.043 A 
ATOM     28  C   UNL     1      -1.635   3.186   1.532  0.00  0.00    +0.007 A 
ATOM     29  C   UNL     1      -0.501   3.920   1.821  0.00  0.00    +0.046 A 
BRANCH  24  30
ATOM     30  O   UNL     1       1.833   3.995   2.276  0.00  0.00    -0.492 OA
BRANCH  30  32
ATOM     31  C   UNL     1       3.037   6.046   2.707  0.00  0.00    +0.048 C 
ATOM     32  C   UNL     1       1.682   5.412   2.385  0.00  0.00    +0.225 C 
ENDBRANCH  30  32
ENDBRANCH  24  30
ENDBRANCH   1  27
TORSDOF 5
