REMARK  Name = ZINC38685798
REMARK  8 active torsions:
REMARK  status: ('A' for Active; 'I' for Inactive)
REMARK    1  A    between atoms: C_1  and  N_2
REMARK    2  A    between atoms: N_2  and  C_3
REMARK    3  A    between atoms: N_2  and  C_22
REMARK    4  A    between atoms: C_3  and  C_4
REMARK    5  A    between atoms: N_6  and  C_7
REMARK    6  A    between atoms: C_11  and  C_13
REMARK    7  A    between atoms: C_13  and  O_15
REMARK    8  A    between atoms: O_15  and  C_16
REMARK                            x       y       z     vdW  Elec       q    Type
REMARK                         _______ _______ _______ _____ _____    ______ ____
ROOT
ATOM      1  C   UNL     1       4.195   0.036  -2.564  0.00  0.00    +0.054 C 
ATOM      2  C   UNL     1       5.152  -0.044  -3.559  0.00  0.00    +0.036 A 
ATOM      3  C   UNL     1       6.443   0.410  -3.013  0.00  0.00    +0.046 A 
ATOM      4  N   UNL     1       6.310   0.756  -1.748  0.00  0.00    -0.367 N 
ATOM      5  C   UNL     1       4.914   0.567  -1.344  0.00  0.00    +0.234 C 
ATOM      6  C   UNL     1       7.571   0.409  -3.873  0.00  0.00    +0.026 A 
ATOM      7  C   UNL     1       7.440  -0.002  -5.158  0.00  0.00    +0.003 A 
ATOM      8  C   UNL     1       6.215  -0.432  -5.674  0.00  0.00    +0.021 A 
ATOM      9  C   UNL     1       5.092  -0.460  -4.912  0.00  0.00    +0.052 A 
ATOM     10 CL   UNL     1       3.590  -1.002  -5.592  0.00  0.00    -0.083 Cl
ATOM     11  H   UNL     1       7.022   1.086  -1.177  0.00  0.00    +0.161 HD
ENDROOT
BRANCH   1  14
ATOM     12  C   UNL     1       2.097  -0.292  -1.563  0.00  0.00    +0.200 C 
ATOM     13  O   UNL     1       2.588  -0.095  -0.472  0.00  0.00    -0.278 OA
ATOM     14  N   UNL     1       2.876  -0.291  -2.663  0.00  0.00    -0.288 N 
ATOM     15  H   UNL     1       2.498  -0.524  -3.526  0.00  0.00    +0.155 HD
BRANCH  12  16
ATOM     16  C   UNL     1       0.615  -0.538  -1.689  0.00  0.00    +0.019 C 
BRANCH  16  18
ATOM     17  C   UNL     1       0.070   1.054   0.020  0.00  0.00    -0.095 C 
ATOM     18  N   UNL     1      -0.024  -0.356  -0.380  0.00  0.00    +0.385 N 
ATOM     19  H   UNL     1       0.442  -0.932   0.305  0.00  0.00    -0.081 HD
BRANCH  18  20
ATOM     20  C   UNL     1      -1.438  -0.747  -0.467  0.00  0.00    -0.068 C 
ATOM     21  C   UNL     1      -2.104  -0.558   0.898  0.00  0.00    -0.015 C 
ATOM     22  C   UNL     1      -3.576  -0.965   0.807  0.00  0.00    -0.002 C 
ATOM     23  C   UNL     1      -3.675  -2.434   0.391  0.00  0.00    -0.000 C 
ATOM     24  C   UNL     1      -3.008  -2.623  -0.974  0.00  0.00    -0.002 C 
ATOM     25  C   UNL     1      -1.536  -2.216  -0.883  0.00  0.00    -0.015 C 
ENDBRANCH  18  20
ENDBRANCH  16  18
ENDBRANCH  12  16
ENDBRANCH   1  14
BRANCH   5  26
ATOM     26  C   UNL     1       4.311   1.881  -0.918  0.00  0.00    +0.335 C 
ATOM     27  O   UNL     1       4.718   2.915  -1.393  0.00  0.00    -0.248 OA
BRANCH  26  28
ATOM     28  O   UNL     1       3.323   1.904  -0.010  0.00  0.00    -0.466 OA
ATOM     29  C   UNL     1       2.799   3.184   0.347  0.00  0.00    +0.280 C 
ENDBRANCH  26  28
ENDBRANCH   5  26
TORSDOF 6
