REMARK  Name = ZINC59566643
REMARK  3 active torsions:
REMARK  status: ('A' for Active; 'I' for Inactive)
REMARK    1  A    between atoms: C_3  and  N_9
REMARK    2  A    between atoms: C_15  and  C_16
REMARK    3  A    between atoms: C_21  and  O_22
REMARK                            x       y       z     vdW  Elec       q    Type
REMARK                         _______ _______ _______ _____ _____    ______ ____
ROOT
ATOM      1  N   UNL     1       3.179   2.843  -0.814  0.00  0.00    -0.224 NA
ATOM      2  C   UNL     1       3.374   3.784   0.083  0.00  0.00    +0.166 C 
ATOM      3  N   UNL     1       4.385   4.719   0.137  0.00  0.00    -0.260 N 
ATOM      4  C   UNL     1       4.432   5.603   1.120  0.00  0.00    +0.256 C 
ATOM      5  O   UNL     1       5.317   6.436   1.183  0.00  0.00    -0.269 OA
ATOM      6  C   UNL     1       3.364   5.534   2.135  0.00  0.00    +0.078 C 
ATOM      7  C   UNL     1       3.169   6.306   3.235  0.00  0.00    +0.032 C 
ATOM      8  S   UNL     1       2.390   4.166   1.523  0.00  0.00    -0.049 S 
ATOM      9  H   UNL     1       5.067   4.729  -0.551  0.00  0.00    +0.157 HD
ENDROOT
BRANCH   1  12
ATOM     10  C   UNL     1      -0.215   1.649  -0.184  0.00  0.00    +0.004 A 
ATOM     11  C   UNL     1       0.865   2.501  -0.294  0.00  0.00    +0.029 A 
ATOM     12  C   UNL     1       2.104   2.003  -0.702  0.00  0.00    +0.086 A 
ATOM     13  C   UNL     1       2.242   0.644  -0.996  0.00  0.00    +0.085 A 
ATOM     14  C   UNL     1       1.153  -0.197  -0.881  0.00  0.00    +0.061 A 
ATOM     15  C   UNL     1      -0.073   0.305  -0.476  0.00  0.00    +0.021 A 
ATOM     16 CL   UNL     1       1.320  -1.886  -1.245  0.00  0.00    -0.082 Cl
ATOM     17 CL   UNL     1       3.778   0.014  -1.504  0.00  0.00    -0.080 Cl
ENDBRANCH   1  12
BRANCH   7  18
ATOM     18  C   UNL     1       4.191   7.280   3.637  0.00  0.00    +0.019 A 
ATOM     19  C   UNL     1       5.548   6.941   3.584  0.00  0.00    +0.031 A 
ATOM     20  C   UNL     1       6.501   7.862   3.964  0.00  0.00    +0.042 A 
ATOM     21  C   UNL     1       6.121   9.123   4.398  0.00  0.00    +0.023 A 
ATOM     22  C   UNL     1       4.785   9.470   4.455  0.00  0.00    +0.047 A 
ATOM     23  C   UNL     1       3.813   8.561   4.073  0.00  0.00    +0.124 A 
ATOM     24 CL   UNL     1       8.184   7.441   3.899  0.00  0.00    -0.084 Cl
BRANCH  23  25
ATOM     25  O   UNL     1       2.500   8.904   4.123  0.00  0.00    -0.506 OA
ATOM     26  H   UNL     1       2.075   8.707   4.969  0.00  0.00    +0.292 HD
ENDBRANCH  23  25
ENDBRANCH   7  18
TORSDOF 3
