REMARK  Name = ZINC20774206
REMARK  7 active torsions:
REMARK  status: ('A' for Active; 'I' for Inactive)
REMARK    1  A    between atoms: C_2  and  C_3
REMARK    2  A    between atoms: C_3  and  O_4
REMARK    3  A    between atoms: O_4  and  C_5
REMARK    4  A    between atoms: C_10  and  C_11
REMARK    5  A    between atoms: C_11  and  N_12
REMARK    6  A    between atoms: C_15  and  N_21
REMARK    7  A    between atoms: C_17  and  O_20
REMARK                            x       y       z     vdW  Elec       q    Type
REMARK                         _______ _______ _______ _____ _____    ______ ____
ROOT
ATOM      1  N   UNL     1      -6.371  -4.801  -0.926  0.00  0.00    +0.384 N 
ATOM      2  C   UNL     1      -6.378  -3.909   0.240  0.00  0.00    -0.077 C 
ATOM      3  C   UNL     1      -5.087  -3.089   0.266  0.00  0.00    +0.003 C 
ATOM      4  C   UNL     1      -4.983  -2.271  -1.024  0.00  0.00    +0.082 C 
ATOM      5  C   UNL     1      -5.026  -3.218  -2.227  0.00  0.00    +0.115 C 
ATOM      6  C   UNL     1      -6.319  -4.036  -2.179  0.00  0.00    -0.045 C 
ATOM      7  H   UNL     1      -5.461  -5.417  -0.872  0.00  0.00    -0.081 HD
ENDROOT
BRANCH   4   8
ATOM      8  N   UNL     1      -3.717  -1.525  -1.032  0.00  0.00    -0.294 NA
ATOM      9  C   UNL     1      -3.640  -0.607   0.113  0.00  0.00    +0.103 C 
ATOM     10  C   UNL     1      -2.345   0.206   0.025  0.00  0.00    +0.122 C 
ATOM     11  N   UNL     1      -1.196  -0.709   0.009  0.00  0.00    -0.314 N 
ATOM     12  C   UNL     1      -1.273  -1.628  -1.135  0.00  0.00    +0.122 C 
ATOM     13  C   UNL     1      -2.567  -2.440  -1.047  0.00  0.00    +0.103 C 
ATOM     14  C   UNL     1       0.002  -0.004   0.002  0.00  0.00    +0.099 A 
ATOM     15  C   UNL     1       1.209  -0.696  -0.013  0.00  0.00    +0.042 A 
ATOM     16  C   UNL     1       2.393   0.018  -0.021  0.00  0.00    +0.005 A 
ATOM     17  C   UNL     1       2.331   1.406  -0.013  0.00  0.00    +0.018 A 
ATOM     18  C   UNL     1       1.098   2.027   0.003  0.00  0.00    +0.084 A 
ATOM     19  N   UNL     1      -0.016   1.320   0.009  0.00  0.00    -0.350 N 
ATOM     20  H   UNL     1      -0.976   1.857   0.021  0.00  0.00    +0.166 HD
ENDBRANCH   4   8
BRANCH   5  21
ATOM     21  O   UNL     1      -4.986  -2.457  -3.435  0.00  0.00    -0.392 OA
ATOM     22  H   UNL     1      -5.009  -2.969  -4.409  0.00  0.00    +0.210 HD
ENDBRANCH   5  21
BRANCH   1  23
ATOM     23  C   UNL     1      -7.530  -5.702  -0.908  0.00  0.00    -0.039 C 
BRANCH  23  29
ATOM     24  C   UNL     1      -7.772  -6.217   1.534  0.00  0.00    +0.122 A 
ATOM     25  C   UNL     1      -7.666  -7.086   2.611  0.00  0.00    +0.046 A 
ATOM     26  C   UNL     1      -7.207  -8.374   2.414  0.00  0.00    +0.004 A 
ATOM     27  C   UNL     1      -6.853  -8.797   1.146  0.00  0.00    +0.000 A 
ATOM     28  C   UNL     1      -6.963  -7.935   0.071  0.00  0.00    +0.005 A 
ATOM     29  C   UNL     1      -7.416  -6.644   0.263  0.00  0.00    -0.022 A 
BRANCH  24  30
ATOM     30  O   UNL     1      -8.224  -4.949   1.725  0.00  0.00    -0.488 OA
BRANCH  30  31
ATOM     31  C   UNL     1      -8.572  -4.579   3.060  0.00  0.00    +0.256 C 
BRANCH  31  33
ATOM     32  C   UNL     1     -10.124  -2.825   3.749  0.00  0.00    +0.007 C 
ATOM     33  C   UNL     1      -9.048  -3.149   3.077  0.00  0.00    +0.006 C 
ENDBRANCH  31  33
ENDBRANCH  30  31
ENDBRANCH  24  30
ENDBRANCH  23  29
ENDBRANCH   1  23
TORSDOF 7
