REMARK  Name = ZINC10120707
REMARK  11 active torsions:
REMARK  status: ('A' for Active; 'I' for Inactive)
REMARK    1  A    between atoms: C_1  and  C_2
REMARK    2  A    between atoms: C_2  and  C_3
REMARK    3  A    between atoms: C_3  and  C_5
REMARK    4  A    between atoms: C_3  and  N_6
REMARK    5  A    between atoms: N_6  and  C_7
REMARK    6  A    between atoms: C_7  and  N_9
REMARK    7  A    between atoms: C_10  and  C_12
REMARK    8  A    between atoms: C_17  and  O_18
REMARK    9  A    between atoms: O_18  and  C_19
REMARK   10  A    between atoms: C_19  and  C_20
REMARK   11  A    between atoms: C_19  and  C_21
REMARK                            x       y       z     vdW  Elec       q    Type
REMARK                         _______ _______ _______ _____ _____    ______ ____
ROOT
ATOM      1  N   UNL     1       0.062  -0.004   0.000  0.00  0.00    -0.264 N 
ATOM      2  C   UNL     1       0.025   1.343   0.015  0.00  0.00    +0.253 C 
ATOM      3  O   UNL     1      -1.026   1.920   0.214  0.00  0.00    -0.270 OA
ATOM      4  H   UNL     1       0.900  -0.465  -0.163  0.00  0.00    +0.157 HD
ENDROOT
BRANCH   2   5
ATOM      5  C   UNL     1       1.258   2.117  -0.218  0.00  0.00    +0.080 A 
ATOM      6  C   UNL     1       2.469   1.458  -0.447  0.00  0.00    +0.032 A 
ATOM      7  C   UNL     1       3.617   2.187  -0.669  0.00  0.00    +0.019 A 
ATOM      8  C   UNL     1       3.579   3.573  -0.655  0.00  0.00    +0.019 A 
ATOM      9  C   UNL     1       2.390   4.236  -0.423  0.00  0.00    +0.047 A 
ATOM     10  C   UNL     1       1.224   3.518  -0.204  0.00  0.00    +0.133 A 
ATOM     11 BR   UNL     1       5.254   1.294  -0.987  0.00  0.00    -0.050 Br
BRANCH  10  12
ATOM     12  O   UNL     1       0.056   4.169   0.024  0.00  0.00    -0.489 OA
BRANCH  12  13
ATOM     13  C   UNL     1       0.119   5.592   0.143  0.00  0.00    +0.167 C 
ATOM     14  C   UNL     1       0.063   6.222  -1.250  0.00  0.00    +0.051 C 
ATOM     15  C   UNL     1      -1.066   6.087   0.974  0.00  0.00    +0.051 C 
ENDBRANCH  12  13
ENDBRANCH  10  12
ENDBRANCH   2   5
BRANCH   1  16
ATOM     16  C   UNL     1      -1.065  -0.712   0.213  0.00  0.00    +0.137 C 
ATOM     17  S   UNL     1      -2.544   0.101   0.501  0.00  0.00    -0.018 S 
BRANCH  16  18
ATOM     18  N   UNL     1      -1.028  -2.059   0.199  0.00  0.00    -0.324 N 
ATOM     19  H   UNL     1      -0.190  -2.519   0.035  0.00  0.00    +0.148 HD
BRANCH  18  20
ATOM     20  C   UNL     1      -2.254  -2.828   0.429  0.00  0.00    +0.069 C 
ATOM     21  C   UNL     1      -3.016  -2.981  -0.889  0.00  0.00    +0.028 C 
BRANCH  20  23
ATOM     22  C   UNL     1      -1.242  -4.064   2.350  0.00  0.00    +0.005 C 
ATOM     23  C   UNL     1      -1.893  -4.212   0.973  0.00  0.00    +0.018 C 
ENDBRANCH  20  23
ENDBRANCH  18  20
ENDBRANCH  16  18
ENDBRANCH   1  16
TORSDOF 7
