REMARK  Name = ZINC13893357
REMARK  5 active torsions:
REMARK  status: ('A' for Active; 'I' for Inactive)
REMARK    1  A    between atoms: C_3  and  C_8
REMARK    2  A    between atoms: N_10  and  N_11
REMARK    3  A    between atoms: C_12  and  C_13
REMARK    4  A    between atoms: C_16  and  S_18
REMARK    5  A    between atoms: S_18  and  C_19
REMARK                            x       y       z     vdW  Elec       q    Type
REMARK                         _______ _______ _______ _____ _____    ______ ____
ROOT
ATOM      1  N   UNL     1       3.024   3.465   0.045  0.00  0.00    -0.184 NA
ATOM      2  C   UNL     1       1.748   3.201   0.048  0.00  0.00    +0.176 C 
ENDROOT
BRANCH   2   3
ATOM      3  C   UNL     1       1.288   1.813   0.031  0.00  0.00    +0.149 A 
ATOM      4  C   UNL     1      -0.015   1.400   0.032  0.00  0.00    +0.052 A 
ATOM      5  C   UNL     1       0.003  -0.003   0.011  0.00  0.00    +0.057 A 
ATOM      6  C   UNL     1       1.309  -0.385  -0.000  0.00  0.00    +0.167 A 
ATOM      7  O   UNL     1       2.078   0.717   0.012  0.00  0.00    -0.447 OA
BRANCH   6   8
ATOM      8  S   UNL     1       1.894  -2.047  -0.028  0.00  0.00    -0.052 S 
BRANCH   8   9
ATOM      9  C   UNL     1       3.624  -1.760  -0.194  0.00  0.00    +0.016 A 
ATOM     10  C   UNL     1       4.182  -1.577  -1.453  0.00  0.00    +0.016 A 
ATOM     11  C   UNL     1       5.537  -1.345  -1.579  0.00  0.00    +0.021 A 
ATOM     12  C   UNL     1       6.343  -1.308  -0.454  0.00  0.00    +0.041 A 
ATOM     13  C   UNL     1       5.791  -1.496   0.801  0.00  0.00    +0.021 A 
ATOM     14  C   UNL     1       4.435  -1.722   0.934  0.00  0.00    +0.016 A 
ATOM     15 CL   UNL     1       8.047  -1.025  -0.618  0.00  0.00    -0.084 Cl
ENDBRANCH   8   9
ENDBRANCH   6   8
ENDBRANCH   2   3
BRANCH   1  18
ATOM     16  C   UNL     1       4.784   5.068   0.059  0.00  0.00    +0.263 C 
ATOM     17  O   UNL     1       5.593   4.160   0.043  0.00  0.00    -0.268 OA
ATOM     18  N   UNL     1       3.464   4.795   0.061  0.00  0.00    -0.203 N 
ATOM     19  H   UNL     1       2.819   5.519   0.074  0.00  0.00    +0.178 HD
BRANCH  16  22
ATOM     20  C   UNL     1       4.762   8.823   0.108  0.00  0.00    +0.002 A 
ATOM     21  C   UNL     1       4.323   7.516   0.088  0.00  0.00    +0.013 A 
ATOM     22  C   UNL     1       5.248   6.471   0.076  0.00  0.00    +0.040 A 
ATOM     23  C   UNL     1       6.615   6.757   0.073  0.00  0.00    +0.033 A 
ATOM     24  C   UNL     1       7.042   8.070   0.088  0.00  0.00    +0.042 A 
ATOM     25  C   UNL     1       6.117   9.101   0.106  0.00  0.00    +0.020 A 
ATOM     26 CL   UNL     1       8.740   8.429   0.085  0.00  0.00    -0.084 Cl
ENDBRANCH  16  22
ENDBRANCH   1  18
TORSDOF 5
