REMARK  Name = ZINC16227362
REMARK  7 active torsions:
REMARK  status: ('A' for Active; 'I' for Inactive)
REMARK    1  A    between atoms: C_1  and  N_2
REMARK    2  A    between atoms: N_2  and  C_3
REMARK    3  A    between atoms: C_6  and  N_22
REMARK    4  A    between atoms: C_8  and  C_9
REMARK    5  A    between atoms: N_11  and  C_12
REMARK    6  A    between atoms: C_12  and  C_13
REMARK    7  A    between atoms: C_13  and  C_14
REMARK                            x       y       z     vdW  Elec       q    Type
REMARK                         _______ _______ _______ _____ _____    ______ ____
ROOT
ATOM      1  C   UNL     1      -0.017   1.342   0.036  0.00  0.00    +0.246 C 
ATOM      2  O   UNL     1       1.028   1.963   0.013  0.00  0.00    -0.270 OA
ATOM      3  N   UNL     1       0.000  -0.006   0.058  0.00  0.00    -0.311 N 
ATOM      4  H   UNL     1      -0.833  -0.501   0.076  0.00  0.00    +0.149 HD
ENDROOT
BRANCH   1  10
ATOM      5  C   UNL     1      -1.328   3.463   0.121  0.00  0.00    +0.039 A 
ATOM      6  C   UNL     1      -2.547   4.130   0.117  0.00  0.00    +0.026 A 
ATOM      7  C   UNL     1      -3.725   3.418   0.025  0.00  0.00    +0.034 A 
ATOM      8  C   UNL     1      -3.704   2.035  -0.063  0.00  0.00    +0.127 A 
ATOM      9  C   UNL     1      -2.505   1.356  -0.066  0.00  0.00    +0.047 A 
ATOM     10  C   UNL     1      -1.303   2.062   0.032  0.00  0.00    +0.060 A 
BRANCH   5  12
ATOM     11  C   UNL     1      -0.174   5.626   0.430  0.00  0.00    +0.125 C 
ATOM     12  N   UNL     1      -0.141   4.178   0.214  0.00  0.00    -0.346 N 
ATOM     13  H   UNL     1       0.709   3.718   0.136  0.00  0.00    +0.146 HD
ENDBRANCH   5  12
BRANCH   8  14
ATOM     14  N   UNL     1      -4.975   1.284  -0.162  0.00  0.00    +0.056 N 
ATOM     15  O   UNL     1      -6.037   1.881  -0.165  0.00  0.00    -0.126 OA
ATOM     16  O   UNL     1      -4.960   0.068  -0.239  0.00  0.00    -0.126 OA
ENDBRANCH   8  14
ENDBRANCH   1  10
BRANCH   3  17
ATOM     17  C   UNL     1       1.278  -0.722   0.056  0.00  0.00    +0.109 C 
BRANCH  17  18
ATOM     18  C   UNL     1       1.018  -2.229   0.084  0.00  0.00    +0.055 C 
BRANCH  18  19
ATOM     19  C   UNL     1       2.333  -2.966   0.081  0.00  0.00    -0.027 A 
ATOM     20  C   UNL     1       2.848  -3.465   1.263  0.00  0.00    +0.006 A 
ATOM     21  C   UNL     1       4.053  -4.141   1.261  0.00  0.00    +0.020 A 
ATOM     22  C   UNL     1       4.745  -4.319   0.076  0.00  0.00    +0.042 A 
ATOM     23  C   UNL     1       4.230  -3.820  -1.106  0.00  0.00    +0.040 A 
ATOM     24  C   UNL     1       3.021  -3.148  -1.105  0.00  0.00    +0.046 A 
ATOM     25 CL   UNL     1       2.371  -2.527  -2.590  0.00  0.00    -0.083 Cl
ATOM     26 CL   UNL     1       6.259  -5.168   0.074  0.00  0.00    -0.083 Cl
ENDBRANCH  18  19
ENDBRANCH  17  18
ENDBRANCH   3  17
TORSDOF 6
