REMARK  Name = ZINC39631285
REMARK  12 active torsions:
REMARK  status: ('A' for Active; 'I' for Inactive)
REMARK    1  A    between atoms: C_1  and  C_2
REMARK    2  A    between atoms: C_2  and  C_4
REMARK    3  A    between atoms: C_2  and  N_11
REMARK    4  A    between atoms: C_4  and  C_5
REMARK    5  A    between atoms: C_5  and  C_6
REMARK    6  A    between atoms: C_6  and  C_7
REMARK    7  A    between atoms: C_7  and  C_8
REMARK    8  A    between atoms: C_7  and  C_9
REMARK    9  A    between atoms: C_7  and  O_10
REMARK   10  A    between atoms: C_12  and  C_14
REMARK   11  A    between atoms: C_25  and  C_27
REMARK   12  A    between atoms: C_30  and  C_33
REMARK                            x       y       z     vdW  Elec       q    Type
REMARK                         _______ _______ _______ _____ _____    ______ ____
ROOT
ATOM      1  C   UNL     1       1.304  -1.379   3.954  0.00  0.00    +0.100 C 
ATOM      2  C   UNL     1       2.315  -0.217   4.078  0.00  0.00    +0.121 C 
ATOM      3  N   UNL     1       1.700   0.712   5.054  0.00  0.00    -0.296 N 
ATOM      4  C   UNL     1       1.093  -0.175   6.076  0.00  0.00    +0.115 C 
ATOM      5  C   UNL     1       0.507  -1.350   5.269  0.00  0.00    -0.004 C 
ATOM      6  C   UNL     1       0.695  -2.659   6.029  0.00  0.00    -0.010 C 
ATOM      7  C   UNL     1      -0.154  -2.630   7.304  0.00  0.00    -0.082 C 
ATOM      8  N   UNL     1      -1.566  -2.445   6.950  0.00  0.00    +0.379 N 
ATOM      9  C   UNL     1      -1.753  -1.141   6.301  0.00  0.00    -0.082 C 
ATOM     10  C   UNL     1      -0.973  -1.108   4.984  0.00  0.00    -0.010 C 
ATOM     11  C   UNL     1       1.694   2.059   5.022  0.00  0.00    +0.247 C 
ATOM     12  O   UNL     1       2.129   2.646   4.051  0.00  0.00    -0.270 OA
ATOM     13  H   UNL     1      -1.852  -3.178   6.318  0.00  0.00    -0.086 HD
ATOM     14  H   UNL     1      -2.130  -2.487   7.786  0.00  0.00    -0.086 HD
ENDROOT
BRANCH  11  15
ATOM     15  C   UNL     1       1.158   2.824   6.168  0.00  0.00    +0.037 A 
ATOM     16  C   UNL     1       1.065   2.227   7.427  0.00  0.00    +0.013 A 
ATOM     17  C   UNL     1       0.565   2.946   8.492  0.00  0.00    +0.013 A 
ATOM     18  C   UNL     1       0.155   4.256   8.316  0.00  0.00    +0.055 A 
ATOM     19  C   UNL     1       0.244   4.854   7.071  0.00  0.00    +0.013 A 
ATOM     20  C   UNL     1       0.749   4.147   5.998  0.00  0.00    +0.013 A 
BRANCH  18  21
ATOM     21  C   UNL     1      -0.391   5.036   9.484  0.00  0.00    +0.417 C 
ATOM     22  F   UNL     1       0.656   5.696  10.135  0.00  0.00    -0.166 F 
ATOM     23  F   UNL     1      -1.321   5.975   9.025  0.00  0.00    -0.166 F 
ATOM     24  F   UNL     1      -1.016   4.159  10.378  0.00  0.00    -0.166 F 
ENDBRANCH  18  21
ENDBRANCH  11  15
BRANCH   1  26
ATOM     25  N   UNL     1      -0.208  -2.203   2.178  0.00  0.00    -0.312 N 
ATOM     26  C   UNL     1       0.387  -1.154   2.779  0.00  0.00    +0.218 C 
ATOM     27  O   UNL     1       0.184  -0.028   2.375  0.00  0.00    -0.275 OA
ATOM     28  H   UNL     1      -0.046  -3.103   2.501  0.00  0.00    +0.149 HD
BRANCH  25  30
ATOM     29  C   UNL     1      -0.272  -1.904  -0.249  0.00  0.00    +0.028 C 
ATOM     30  C   UNL     1      -1.099  -1.984   1.036  0.00  0.00    +0.070 C 
BRANCH  30  31
ATOM     31  C   UNL     1      -2.091  -3.144   0.933  0.00  0.00    +0.022 C 
BRANCH  31  32
ATOM     32  C   UNL     1      -3.001  -3.148   2.163  0.00  0.00    +0.005 C 
BRANCH  32  33
ATOM     33  C   UNL     1      -3.993  -4.309   2.059  0.00  0.00    +0.034 C 
BRANCH  33  34
ATOM     34  C   UNL     1      -4.904  -4.312   3.289  0.00  0.00    +0.061 C 
ATOM     35  C   UNL     1      -5.811  -5.543   3.248  0.00  0.00    +0.041 C 
ATOM     36  C   UNL     1      -4.048  -4.351   4.557  0.00  0.00    +0.041 C 
BRANCH  34  37
ATOM     37  O   UNL     1      -5.705  -3.129   3.291  0.00  0.00    -0.389 OA
ATOM     38  H   UNL     1      -6.274  -3.038   2.515  0.00  0.00    +0.210 HD
ENDBRANCH  34  37
ENDBRANCH  33  34
ENDBRANCH  32  33
ENDBRANCH  31  32
ENDBRANCH  30  31
ENDBRANCH  25  30
ENDBRANCH   1  26
TORSDOF 9
