REMARK  Name = ZINC07008559
REMARK  6 active torsions:
REMARK  status: ('A' for Active; 'I' for Inactive)
REMARK    1  A    between atoms: C_1  and  C_2
REMARK    2  A    between atoms: C_2  and  C_3
REMARK    3  A    between atoms: C_2  and  C_4
REMARK    4  A    between atoms: C_4  and  C_5
REMARK    5  A    between atoms: C_5  and  N_6
REMARK    6  A    between atoms: N_14  and  N_15
REMARK                            x       y       z     vdW  Elec       q    Type
REMARK                         _______ _______ _______ _____ _____    ______ ____
ROOT
ATOM      1  N   UNL     1       2.873  -0.545  -2.413  0.00  0.00    -0.266 N 
ATOM      2  C   UNL     1       3.500  -1.781  -2.523  0.00  0.00    +0.046 A 
ATOM      3  C   UNL     1       3.649  -2.827  -1.618  0.00  0.00    +0.024 A 
ATOM      4  C   UNL     1       4.331  -3.969  -1.986  0.00  0.00    +0.002 A 
ATOM      5  C   UNL     1       4.875  -4.089  -3.254  0.00  0.00    +0.001 A 
ATOM      6  C   UNL     1       4.737  -3.061  -4.165  0.00  0.00    +0.012 A 
ATOM      7  C   UNL     1       4.051  -1.907  -3.805  0.00  0.00    +0.028 A 
ATOM      8  C   UNL     1       3.732  -0.651  -4.522  0.00  0.00    +0.153 C 
ATOM      9  N   UNL     1       4.052  -0.330  -5.754  0.00  0.00    -0.174 NA
ATOM     10  C   UNL     1       2.970   0.158  -3.553  0.00  0.00    +0.271 C 
ATOM     11  O   UNL     1       2.513   1.269  -3.750  0.00  0.00    -0.268 OA
ENDROOT
BRANCH   9  12
ATOM     12  N   UNL     1       3.697   0.812  -6.237  0.00  0.00    -0.206 N 
ATOM     13  C   UNL     1       4.034   1.150  -7.534  0.00  0.00    +0.214 A 
ATOM     14  N   UNL     1       3.717   2.329  -8.146  0.00  0.00    -0.325 N 
ATOM     15  H   UNL     1       3.223   3.067  -7.753  0.00  0.00    +0.169 HD
ATOM     16  C   UNL     1       4.231   2.277  -9.429  0.00  0.00    +0.067 A 
ATOM     17  C   UNL     1       4.230   3.156 -10.502  0.00  0.00    +0.028 A 
ATOM     18  C   UNL     1       4.848   2.798 -11.683  0.00  0.00    +0.002 A 
ATOM     19  C   UNL     1       5.470   1.564 -11.805  0.00  0.00    +0.002 A 
ATOM     20  C   UNL     1       5.481   0.679 -10.750  0.00  0.00    +0.030 A 
ATOM     21  C   UNL     1       4.861   1.026  -9.547  0.00  0.00    +0.091 A 
ATOM     22  N   UNL     1       4.710   0.390  -8.357  0.00  0.00    -0.213 NA
ATOM     23  H   UNL     1       3.192   1.434  -5.689  0.00  0.00    +0.177 HD
ENDBRANCH   9  12
BRANCH   1  24
ATOM     24  C   UNL     1       2.187  -0.073  -1.207  0.00  0.00    +0.114 C 
BRANCH  24  25
ATOM     25  C   UNL     1       0.718  -0.497  -1.257  0.00  0.00    +0.022 C 
BRANCH  25  27
ATOM     26  C   UNL     1      -0.019   1.526   0.010  0.00  0.00    +0.007 C 
ATOM     27  C   UNL     1       0.002  -0.004   0.002  0.00  0.00    -0.016 C 
ATOM     28  C   UNL     1      -1.433  -0.534   0.013  0.00  0.00    +0.007 C 
ENDBRANCH  25  27
ENDBRANCH  24  25
ENDBRANCH   1  24
TORSDOF 4
