REMARK  Name = ZINC67427305
REMARK  4 active torsions:
REMARK  status: ('A' for Active; 'I' for Inactive)
REMARK    1  A    between atoms: C_8  and  N_11
REMARK    2  A    between atoms: C_17  and  C_20
REMARK    3  A    between atoms: C_20  and  C_22
REMARK    4  A    between atoms: C_20  and  O_29
REMARK                            x       y       z     vdW  Elec       q    Type
REMARK                         _______ _______ _______ _____ _____    ______ ____
ROOT
ATOM      1  N   UNL     1       2.655  -4.082   0.004  0.00  0.00    -0.268 N 
ATOM      2  C   UNL     1       3.864  -4.656  -0.161  0.00  0.00    +0.306 C 
ATOM      3  O   UNL     1       4.863  -3.965  -0.211  0.00  0.00    -0.252 OA
ATOM      4  N   UNL     1       3.964  -5.995  -0.270  0.00  0.00    -0.285 N 
ATOM      5  C   UNL     1       2.760  -6.830  -0.380  0.00  0.00    +0.109 C 
ATOM      6  C   UNL     1       2.809  -7.912   0.703  0.00  0.00    +0.025 C 
ATOM      7  C   UNL     1       4.124  -8.687   0.584  0.00  0.00    +0.025 C 
ATOM      8  C   UNL     1       5.301  -7.734   0.800  0.00  0.00    +0.025 C 
ATOM      9  C   UNL     1       5.280  -6.649  -0.287  0.00  0.00    +0.109 C 
ATOM     10  H   UNL     1       1.877  -4.633   0.181  0.00  0.00    +0.156 HD
ENDROOT
BRANCH   1  18
ATOM     11  C   UNL     1      -0.013   1.281  -0.880  0.00  0.00    +0.001 A 
ATOM     12  C   UNL     1       1.123   2.042  -0.609  0.00  0.00    +0.002 A 
ATOM     13  C   UNL     1       2.303   1.449  -0.280  0.00  0.00    +0.028 A 
ATOM     14  C   UNL     1       2.385   0.047  -0.210  0.00  0.00    +0.071 A 
ATOM     15  C   UNL     1       1.228  -0.724  -0.486  0.00  0.00    +0.002 A 
ATOM     16  C   UNL     1       0.027  -0.078  -0.823  0.00  0.00    +0.010 A 
ATOM     17  C   UNL     1       1.309  -2.127  -0.416  0.00  0.00    +0.035 A 
ATOM     18  C   UNL     1       2.524  -2.691  -0.079  0.00  0.00    +0.054 A 
ATOM     19  C   UNL     1       3.623  -1.864   0.181  0.00  0.00    +0.134 A 
ATOM     20  N   UNL     1       3.532  -0.559   0.112  0.00  0.00    -0.253 NA
ENDBRANCH   1  18
BRANCH   7  21
ATOM     21  C   UNL     1       4.162  -9.792   1.642  0.00  0.00    +0.148 C 
BRANCH  21  22
ATOM     22  C   UNL     1       5.457 -10.555   1.525  0.00  0.00    -0.019 A 
ATOM     23  C   UNL     1       5.602 -11.524   0.550  0.00  0.00    +0.007 A 
ATOM     24  C   UNL     1       6.788 -12.224   0.442  0.00  0.00    +0.020 A 
ATOM     25  C   UNL     1       7.831 -11.955   1.310  0.00  0.00    +0.041 A 
ATOM     26  C   UNL     1       7.686 -10.985   2.286  0.00  0.00    +0.020 A 
ATOM     27  C   UNL     1       6.500 -10.281   2.389  0.00  0.00    +0.007 A 
ATOM     28 CL   UNL     1       9.322 -12.834   1.176  0.00  0.00    -0.084 Cl
ENDBRANCH  21  22
BRANCH  21  29
ATOM     29  O   UNL     1       3.064 -10.683   1.440  0.00  0.00    -0.387 OA
ATOM     30  H   UNL     1       3.063 -11.116   0.575  0.00  0.00    +0.210 HD
ENDBRANCH  21  29
ENDBRANCH   7  21
TORSDOF 4
