REMARK  Name = ZINC63270971
REMARK  7 active torsions:
REMARK  status: ('A' for Active; 'I' for Inactive)
REMARK    1  A    between atoms: C_7  and  C_10
REMARK    2  A    between atoms: C_10  and  C_11
REMARK    3  A    between atoms: C_11  and  N_12
REMARK    4  A    between atoms: C_13  and  C_15
REMARK    5  A    between atoms: C_15  and  C_16
REMARK    6  A    between atoms: C_16  and  C_17
REMARK    7  A    between atoms: C_17  and  N_18
REMARK                            x       y       z     vdW  Elec       q    Type
REMARK                         _______ _______ _______ _____ _____    ______ ____
ROOT
ATOM      1  C   UNL     1      -2.946  -8.217  -4.057  0.00  0.00    +0.106 C 
ENDROOT
BRANCH   1   2
ATOM      2  N   UNL     1      -3.171  -8.664  -5.434  0.00  0.00    -0.299 N 
ATOM      3  C   UNL     1      -3.978  -9.715  -5.679  0.00  0.00    +0.302 C 
ATOM      4  O   UNL     1      -4.448 -10.348  -4.753  0.00  0.00    -0.253 OA
ATOM      5  N   UNL     1      -4.264 -10.064  -6.949  0.00  0.00    -0.284 N 
ATOM      6  C   UNL     1      -5.235 -11.124  -7.204  0.00  0.00    +0.110 C 
ATOM      7  C   UNL     1      -4.595 -12.198  -8.061  0.00  0.00    +0.025 C 
ATOM      8  C   UNL     1      -3.703 -11.712  -9.137  0.00  0.00    +0.029 C 
ATOM      9  C   UNL     1      -3.211 -10.285  -9.194  0.00  0.00    +0.127 C 
ATOM     10  C   UNL     1      -3.610  -9.380  -8.043  0.00  0.00    +0.136 C 
ATOM     11  N   UNL     1      -3.774  -9.726 -10.445  0.00  0.00    -0.282 NA
ATOM     12  C   UNL     1      -4.360 -10.612 -11.163  0.00  0.00    +0.043 C 
ATOM     13  C   UNL     1      -4.167 -11.982 -10.560  0.00  0.00    +0.066 C 
ATOM     14  C   UNL     1      -5.465 -12.719 -10.661  0.00  0.00    +0.003 C 
ATOM     15  C   UNL     1      -6.348 -12.390 -11.606  0.00  0.00    +0.038 C 
ATOM     16  C   UNL     1      -6.102 -11.317 -12.568  0.00  0.00    +0.021 C 
ATOM     17  C   UNL     1      -5.106 -10.448 -12.368  0.00  0.00    +0.025 C 
ATOM     18 CL   UNL     1      -7.843 -13.269 -11.697  0.00  0.00    -0.084 Cl
ATOM     19  H   UNL     1      -2.739  -8.203  -6.170  0.00  0.00    +0.150 HD
ENDBRANCH   1   2
BRANCH   1  20
ATOM     20  C   UNL     1      -1.998  -7.017  -4.059  0.00  0.00    +0.028 C 
BRANCH  20  21
ATOM     21  C   UNL     1      -1.763  -6.550  -2.621  0.00  0.00    +0.097 C 
BRANCH  21  23
ATOM     22  N   UNL     1      -0.477  -4.785  -1.459  0.00  0.00    -0.315 N 
ATOM     23  C   UNL     1      -0.829  -5.368  -2.623  0.00  0.00    +0.213 C 
ATOM     24  O   UNL     1      -0.394  -4.940  -3.671  0.00  0.00    -0.276 OA
ATOM     25  H   UNL     1      -0.825  -5.128  -0.621  0.00  0.00    +0.149 HD
BRANCH  22  26
ATOM     26  C   UNL     1       0.431  -3.636  -1.461  0.00  0.00    +0.108 C 
BRANCH  26  27
ATOM     27  C   UNL     1       0.666  -3.170  -0.022  0.00  0.00    +0.052 C 
BRANCH  27  34
ATOM     28  C   UNL     1      -0.067   1.360   0.022  0.00  0.00    +0.001 A 
ATOM     29  C   UNL     1       1.111   2.120   0.013  0.00  0.00    +0.002 A 
ATOM     30  C   UNL     1       2.339   1.561  -0.006  0.00  0.00    +0.026 A 
ATOM     31  C   UNL     1       2.485   0.146  -0.018  0.00  0.00    +0.043 A 
ATOM     32  N   UNL     1       3.548  -0.621  -0.038  0.00  0.00    -0.380 N 
ATOM     33  C   UNL     1       3.112  -2.022  -0.043  0.00  0.00    +0.144 C 
ATOM     34  C   UNL     1       1.600  -1.987  -0.024  0.00  0.00    -0.040 C 
ATOM     35  C   UNL     1       1.256  -0.679  -0.009  0.00  0.00    -0.001 A 
ATOM     36  C   UNL     1      -0.041   0.008   0.011  0.00  0.00    +0.010 A 
ATOM     37  H   UNL     1       4.468  -0.315  -0.047  0.00  0.00    +0.160 HD
ENDBRANCH  27  34
ENDBRANCH  26  27
ENDBRANCH  22  26
ENDBRANCH  21  23
ENDBRANCH  20  21
ENDBRANCH   1  20
TORSDOF 7
