REMARK  Name = ZINC64864673
REMARK  9 active torsions:
REMARK  status: ('A' for Active; 'I' for Inactive)
REMARK    1  A    between atoms: C_1  and  C_2
REMARK    2  A    between atoms: C_4  and  C_28
REMARK    3  A    between atoms: C_6  and  N_8
REMARK    4  A    between atoms: N_8  and  C_9
REMARK    5  A    between atoms: C_9  and  C_10
REMARK    6  A    between atoms: C_10  and  C_11
REMARK    7  A    between atoms: N_13  and  C_14
REMARK    8  A    between atoms: C_14  and  C_15
REMARK    9  A    between atoms: C_15  and  C_21
REMARK                            x       y       z     vdW  Elec       q    Type
REMARK                         _______ _______ _______ _____ _____    ______ ____
ROOT
ATOM      1  C   UNL     1       0.314  -2.556   6.093  0.00  0.00    +0.215 C 
ATOM      2  O   UNL     1       0.271  -1.346   6.023  0.00  0.00    -0.276 OA
ATOM      3  N   UNL     1       0.253  -3.164   7.295  0.00  0.00    -0.314 N 
ATOM      4  H   UNL     1       0.287  -4.132   7.351  0.00  0.00    +0.149 HD
ENDROOT
BRANCH   1   5
ATOM      5  C   UNL     1       0.436  -3.380   4.837  0.00  0.00    +0.114 C 
BRANCH   5   6
ATOM      6  C   UNL     1       0.485  -2.452   3.622  0.00  0.00    +0.111 C 
BRANCH   6   7
ATOM      7  N   UNL     1       0.604  -3.253   2.401  0.00  0.00    -0.343 N 
ATOM      8  H   UNL     1       0.638  -4.221   2.457  0.00  0.00    +0.146 HD
BRANCH   7  14
ATOM      9  C   UNL     1       0.627   0.886  -0.249  0.00  0.00    +0.044 C 
ATOM     10  C   UNL     1       0.681  -0.618  -0.159  0.00  0.00    -0.048 A 
ATOM     11  C   UNL     1       0.793  -1.375  -1.311  0.00  0.00    +0.006 A 
ATOM     12  C   UNL     1       0.842  -2.755  -1.232  0.00  0.00    -0.048 A 
ATOM     13  C   UNL     1       0.780  -3.381  -0.003  0.00  0.00    +0.026 A 
ATOM     14  C   UNL     1       0.667  -2.623   1.156  0.00  0.00    +0.028 A 
ATOM     15  C   UNL     1       0.624  -1.237   1.074  0.00  0.00    +0.026 A 
ATOM     16  C   UNL     1       0.964  -3.576  -2.490  0.00  0.00    +0.044 C 
ENDBRANCH   7  14
ENDBRANCH   6   7
ENDBRANCH   5   6
ENDBRANCH   1   5
BRANCH   3  17
ATOM     17  C   UNL     1       0.134  -2.363   8.516  0.00  0.00    +0.115 C 
BRANCH  17  18
ATOM     18  C   UNL     1      -0.032  -3.291   9.720  0.00  0.00    +0.015 C 
ATOM     19  C   UNL     1      -0.197  -2.455  10.993  0.00  0.00    +0.041 C 
ATOM     20  C   UNL     1       1.075  -1.635  11.225  0.00  0.00    +0.160 C 
ATOM     21  O   UNL     1       2.197  -2.515  11.316  0.00  0.00    -0.380 OA
ATOM     22  C   UNL     1       2.429  -3.289  10.137  0.00  0.00    +0.160 C 
ATOM     23  C   UNL     1       1.211  -4.175   9.861  0.00  0.00    +0.041 C 
BRANCH  18  24
ATOM     24  C   UNL     1      -1.248  -4.160   9.524  0.00  0.00    -0.037 A 
ATOM     25  C   UNL     1      -1.120  -5.536   9.514  0.00  0.00    +0.004 A 
ATOM     26  C   UNL     1      -2.234  -6.334   9.334  0.00  0.00    +0.003 A 
ATOM     27  C   UNL     1      -3.478  -5.756   9.163  0.00  0.00    +0.038 A 
ATOM     28  C   UNL     1      -3.608  -4.378   9.173  0.00  0.00    +0.124 A 
ATOM     29  C   UNL     1      -2.491  -3.580   9.360  0.00  0.00    +0.042 A 
ATOM     30  F   UNL     1      -4.823  -3.812   9.006  0.00  0.00    -0.205 F 
ENDBRANCH  18  24
ENDBRANCH  17  18
ENDBRANCH   3  17
TORSDOF 7
