REMARK  Name = ZINC63182899
REMARK  6 active torsions:
REMARK  status: ('A' for Active; 'I' for Inactive)
REMARK    1  A    between atoms: C_1  and  C_2
REMARK    2  A    between atoms: C_2  and  O_3
REMARK    3  A    between atoms: O_3  and  C_4
REMARK    4  A    between atoms: N_12  and  N_13
REMARK    5  A    between atoms: C_14  and  C_16
REMARK    6  A    between atoms: C_17  and  C_25
REMARK                            x       y       z     vdW  Elec       q    Type
REMARK                         _______ _______ _______ _____ _____    ______ ____
ROOT
ATOM      1  N   UNL     1      -0.110  -6.906  -2.595  0.00  0.00    -0.227 N 
ATOM      2  C   UNL     1      -0.323  -8.237  -2.581  0.00  0.00    +0.296 C 
ATOM      3  O   UNL     1      -1.317  -8.689  -2.045  0.00  0.00    -0.265 OA
ATOM      4  H   UNL     1       0.683  -6.546  -3.022  0.00  0.00    +0.173 HD
ENDROOT
BRANCH   1  13
ATOM      5  C   UNL     1      -1.429  -1.925   0.007  0.00  0.00    +0.136 C 
ATOM      6  C   UNL     1      -2.704  -2.357   0.736  0.00  0.00    +0.035 C 
ATOM      7  C   UNL     1      -2.788  -3.885   0.757  0.00  0.00    +0.022 C 
ATOM      8  C   UNL     1      -2.853  -4.409  -0.681  0.00  0.00    +0.109 C 
ATOM      9  N   UNL     1      -1.705  -3.879  -1.429  0.00  0.00    -0.282 N 
ATOM     10  C   UNL     1      -1.478  -2.427  -1.440  0.00  0.00    +0.141 C 
ATOM     11  C   UNL     1      -0.876  -4.708  -2.093  0.00  0.00    +0.319 C 
ATOM     12  O   UNL     1       0.016  -4.253  -2.783  0.00  0.00    -0.251 OA
ATOM     13  N   UNL     1      -1.035  -6.043  -1.992  0.00  0.00    -0.218 N 
ATOM     14  H   UNL     1      -1.789  -6.406  -1.502  0.00  0.00    +0.174 HD
BRANCH   5  15
ATOM     15  O   UNL     1      -1.335  -0.499   0.014  0.00  0.00    -0.375 OA
BRANCH  15  17
ATOM     16  C   UNL     1      -0.015   1.525   0.012  0.00  0.00    +0.034 C 
ATOM     17  C   UNL     1       0.006  -0.005   0.003  0.00  0.00    +0.157 C 
ENDBRANCH  15  17
ENDBRANCH   5  15
ENDBRANCH   1  13
BRANCH   2  18
ATOM     18  C   UNL     1       0.647  -9.142  -3.213  0.00  0.00    +0.195 A 
ATOM     19  C   UNL     1       0.535 -10.495  -3.265  0.00  0.00    +0.008 A 
ATOM     20  C   UNL     1       1.717 -10.972  -3.982  0.00  0.00    +0.024 A 
ATOM     21  C   UNL     1       2.185 -12.234  -4.357  0.00  0.00    +0.012 A 
ATOM     22  C   UNL     1       3.363 -12.344  -5.040  0.00  0.00    +0.001 A 
ATOM     23  C   UNL     1       4.098 -11.210  -5.362  0.00  0.00    +0.004 A 
ATOM     24  C   UNL     1       3.654  -9.957  -5.001  0.00  0.00    +0.047 A 
ATOM     25  C   UNL     1       2.458  -9.820  -4.306  0.00  0.00    +0.136 A 
ATOM     26  O   UNL     1       1.781  -8.755  -3.835  0.00  0.00    -0.450 OA
ATOM     27  C   UNL     1      -0.581 -11.334  -2.699  0.00  0.00    +0.048 C 
ENDBRANCH   2  18
TORSDOF 4
