REMARK  Name = ZINC39545292
REMARK  4 active torsions:
REMARK  status: ('A' for Active; 'I' for Inactive)
REMARK    1  A    between atoms: C_4  and  N_7
REMARK    2  A    between atoms: C_8  and  C_10
REMARK    3  A    between atoms: C_13  and  C_24
REMARK    4  A    between atoms: C_29  and  O_30
REMARK                            x       y       z     vdW  Elec       q    Type
REMARK                         _______ _______ _______ _____ _____    ______ ____
ROOT
ATOM      1  C   UNL     1       5.058  -2.542  -0.081  0.00  0.00    +0.150 C 
ATOM      2  C   UNL     1       5.819  -2.240   1.224  0.00  0.00    +0.069 C 
ATOM      3  C   UNL     1       6.043  -3.600   1.847  0.00  0.00    -0.000 C 
ATOM      4  C   UNL     1       5.525  -4.531   1.058  0.00  0.00    +0.079 C 
ATOM      5  N   UNL     1       5.503  -5.910   1.310  0.00  0.00    -0.303 N 
ATOM      6  C   UNL     1       4.339  -6.570   0.882  0.00  0.00    +0.037 A 
ATOM      7  C   UNL     1       4.157  -7.913   1.183  0.00  0.00    +0.023 A 
ATOM      8  C   UNL     1       3.017  -8.564   0.753  0.00  0.00    +0.002 A 
ATOM      9  C   UNL     1       2.063  -7.875   0.026  0.00  0.00    +0.000 A 
ATOM     10  C   UNL     1       2.242  -6.537  -0.269  0.00  0.00    +0.007 A 
ATOM     11  C   UNL     1       3.379  -5.874   0.162  0.00  0.00    -0.010 A 
ATOM     12  C   UNL     1       3.535  -4.409  -0.154  0.00  0.00    +0.124 C 
ATOM     13  N   UNL     1       4.946  -4.009  -0.109  0.00  0.00    -0.370 NA
ATOM     14  H   UNL     1       6.235  -6.372   1.746  0.00  0.00    +0.153 HD
ATOM     15  H   UNL     1       5.426  -4.371  -0.920  0.00  0.00    +0.128 HD
ENDROOT
BRANCH   3  16
ATOM     16  C   UNL     1       6.730  -3.850   3.128  0.00  0.00    +0.023 A 
ATOM     17  C   UNL     1       8.030  -4.360   3.139  0.00  0.00    +0.012 A 
ATOM     18  C   UNL     1       8.667  -4.593   4.341  0.00  0.00    +0.001 A 
ATOM     19  C   UNL     1       8.023  -4.322   5.535  0.00  0.00    +0.004 A 
ATOM     20  C   UNL     1       6.735  -3.817   5.537  0.00  0.00    +0.046 A 
ATOM     21  C   UNL     1       6.085  -3.572   4.340  0.00  0.00    +0.124 A 
BRANCH  21  22
ATOM     22  O   UNL     1       4.822  -3.070   4.340  0.00  0.00    -0.506 OA
ATOM     23  H   UNL     1       4.130  -3.746   4.354  0.00  0.00    +0.292 HD
ENDBRANCH  21  22
ENDBRANCH   3  16
BRANCH   1  25
ATOM     24  N   UNL     1       3.217  -1.280  -1.146  0.00  0.00    -0.204 N 
ATOM     25  C   UNL     1       3.691  -1.909  -0.052  0.00  0.00    +0.249 C 
ATOM     26  O   UNL     1       3.017  -1.967   0.954  0.00  0.00    -0.272 OA
ATOM     27 BR   UNL     1       4.221  -1.240  -2.699  0.00  0.00    +0.044 Br
BRANCH  24  31
ATOM     28  C   UNL     1      -0.510   0.578  -1.029  0.00  0.00    +0.000 A 
ATOM     29  C   UNL     1       0.322   0.630   0.074  0.00  0.00    +0.002 A 
ATOM     30  C   UNL     1       1.558   0.015   0.039  0.00  0.00    +0.024 A 
ATOM     31  C   UNL     1       1.965  -0.656  -1.106  0.00  0.00    +0.048 A 
ATOM     32  C   UNL     1       1.127  -0.708  -2.213  0.00  0.00    +0.024 A 
ATOM     33  C   UNL     1      -0.108  -0.090  -2.171  0.00  0.00    +0.002 A 
ENDBRANCH  24  31
ENDBRANCH   1  25
TORSDOF 4
