REMARK  Name = ZINC20797917
REMARK  7 active torsions:
REMARK  status: ('A' for Active; 'I' for Inactive)
REMARK    1  A    between atoms: C_1  and  C_2
REMARK    2  A    between atoms: C_2  and  O_3
REMARK    3  A    between atoms: O_3  and  C_4
REMARK    4  A    between atoms: C_13  and  C_14
REMARK    5  A    between atoms: C_21  and  C_25
REMARK    6  A    between atoms: C_22  and  C_24
REMARK    7  A    between atoms: C_25  and  C_26
REMARK                            x       y       z     vdW  Elec       q    Type
REMARK                         _______ _______ _______ _____ _____    ______ ____
ROOT
ATOM      1  C   UNL     1       1.208   3.144   0.008  0.00  0.00    +0.146 A 
ATOM      2  C   UNL     1       1.190   1.778   0.000  0.00  0.00    +0.048 A 
ATOM      3  C   UNL     1      -0.013   1.076   0.008  0.00  0.00    +0.004 A 
ATOM      4  C   UNL     1      -1.208   1.730   0.017  0.00  0.00    +0.012 A 
ATOM      5  C   UNL     1      -1.230   3.133   0.031  0.00  0.00    +0.025 A 
ATOM      6  C   UNL     1      -0.008   3.853   0.023  0.00  0.00    +0.118 A 
ATOM      7  N   UNL     1      -0.049   5.191   0.032  0.00  0.00    -0.210 NA
ATOM      8  C   UNL     1      -1.207   5.819   0.046  0.00  0.00    +0.223 A 
ATOM      9  N   UNL     1      -2.373   5.176   0.054  0.00  0.00    -0.219 NA
ATOM     10  C   UNL     1      -2.434   3.861   0.046  0.00  0.00    +0.051 A 
ATOM     11  C   UNL     1      -3.764   3.151   0.056  0.00  0.00    +0.066 C 
ATOM     12  N   UNL     1      -1.212   7.207   0.055  0.00  0.00    -0.254 N 
ATOM     13  C   UNL     1      -2.404   7.888   0.071  0.00  0.00    +0.202 A 
ATOM     14  N   UNL     1      -2.395   9.249   0.085  0.00  0.00    -0.295 N 
ATOM     15  H   UNL     1      -1.438   9.792   0.088  0.00  0.00    +0.172 HD
ATOM     16  C   UNL     1      -3.562   9.927   0.095  0.00  0.00    +0.256 A 
ATOM     17  O   UNL     1      -3.573  11.146   0.103  0.00  0.00    -0.267 OA
ATOM     18  C   UNL     1      -4.766   9.199   0.101  0.00  0.00    +0.042 A 
ATOM     19  C   UNL     1      -4.712   7.836   0.092  0.00  0.00    +0.050 A 
ATOM     20  N   UNL     1      -3.535   7.214   0.077  0.00  0.00    -0.221 NA
ATOM     21  C   UNL     1      -5.987   7.032   0.100  0.00  0.00    +0.066 C 
ATOM     22  H   UNL     1      -0.262   7.760   0.050  0.00  0.00    +0.158 HD
ENDROOT
BRANCH   1  23
ATOM     23  O   UNL     1       2.390   3.814   0.001  0.00  0.00    -0.490 OA
BRANCH  23  25
ATOM     24  C   UNL     1       4.803   3.947  -0.020  0.00  0.00    +0.048 C 
ATOM     25  C   UNL     1       3.582   3.025  -0.014  0.00  0.00    +0.226 C 
ENDBRANCH  23  25
ENDBRANCH   1  23
BRANCH  18  26
ATOM     26  C   UNL     1      -6.093   9.913   0.119  0.00  0.00    +0.077 C 
BRANCH  26  27
ATOM     27  C   UNL     1      -6.463  10.252   1.540  0.00  0.00    -0.043 A 
ATOM     28  C   UNL     1      -7.202   9.358   2.293  0.00  0.00    +0.005 A 
ATOM     29  C   UNL     1      -7.537   9.666   3.598  0.00  0.00    +0.015 A 
ATOM     30  C   UNL     1      -7.142  10.872   4.147  0.00  0.00    +0.018 A 
ATOM     31  C   UNL     1      -6.407  11.768   3.392  0.00  0.00    +0.015 A 
ATOM     32  C   UNL     1      -6.068  11.457   2.089  0.00  0.00    +0.005 A 
ATOM     33 BR   UNL     1      -7.606  11.297   5.931  0.00  0.00    -0.050 Br
ENDBRANCH  26  27
ENDBRANCH  18  26
TORSDOF 4
