REMARK  Name = ZINC20548401
REMARK  9 active torsions:
REMARK  status: ('A' for Active; 'I' for Inactive)
REMARK    1  A    between atoms: C_1  and  C_2
REMARK    2  A    between atoms: C_2  and  C_3
REMARK    3  A    between atoms: C_3  and  C_4
REMARK    4  A    between atoms: C_4  and  N_5
REMARK    5  A    between atoms: C_10  and  C_29
REMARK    6  A    between atoms: C_22  and  C_27
REMARK    7  A    between atoms: C_27  and  C_28
REMARK    8  A    between atoms: C_29  and  C_30
REMARK    9  A    between atoms: C_30  and  C_31
REMARK                            x       y       z     vdW  Elec       q    Type
REMARK                         _______ _______ _______ _____ _____    ______ ____
ROOT
ATOM      1  N   UNL     1      -2.787  -2.571   0.015  0.00  0.00    -0.242 N 
ATOM      2  C   UNL     1      -3.488  -2.833   1.158  0.00  0.00    +0.227 C 
ATOM      3  O   UNL     1      -3.230  -2.449   2.278  0.00  0.00    -0.275 OA
ATOM      4  C   UNL     1      -4.646  -3.696   0.738  0.00  0.00    +0.107 C 
ATOM      5  C   UNL     1      -6.037  -3.419   1.321  0.00  0.00    +0.068 C 
ATOM      6  N   UNL     1      -6.947  -3.752   0.175  0.00  0.00    -0.295 NA
ATOM      7  C   UNL     1      -6.174  -3.532  -1.087  0.00  0.00    +0.136 C 
ATOM      8  C   UNL     1      -4.870  -2.995  -0.663  0.00  0.00    +0.122 C 
ATOM      9  C   UNL     1      -3.511  -2.828  -1.123  0.00  0.00    +0.228 C 
ATOM     10  O   UNL     1      -3.101  -2.900  -2.261  0.00  0.00    -0.275 OA
ATOM     11  C   UNL     1      -6.066  -4.832  -1.841  0.00  0.00    +0.004 A 
ATOM     12  C   UNL     1      -5.477  -6.043  -1.555  0.00  0.00    +0.008 A 
ATOM     13  C   UNL     1      -5.544  -7.079  -2.470  0.00  0.00    +0.001 A 
ATOM     14  C   UNL     1      -6.205  -6.894  -3.670  0.00  0.00    +0.005 A 
ATOM     15  C   UNL     1      -6.798  -5.684  -3.960  0.00  0.00    -0.026 A 
ATOM     16  C   UNL     1      -6.735  -4.636  -3.045  0.00  0.00    +0.042 A 
ATOM     17  N   UNL     1      -7.248  -3.339  -3.106  0.00  0.00    -0.283 N 
ATOM     18  C   UNL     1      -6.965  -2.627  -2.000  0.00  0.00    +0.243 C 
ATOM     19  O   UNL     1      -7.284  -1.478  -1.779  0.00  0.00    -0.273 OA
ATOM     20  H   UNL     1      -7.274  -4.704   0.238  0.00  0.00    +0.123 HD
ATOM     21  H   UNL     1      -7.751  -2.991  -3.859  0.00  0.00    +0.155 HD
ENDROOT
BRANCH  15  22
ATOM     22  C   UNL     1      -7.516  -5.494  -5.272  0.00  0.00    +0.033 C 
ATOM     23  C   UNL     1      -6.565  -4.857  -6.287  0.00  0.00    +0.009 C 
ENDBRANCH  15  22
BRANCH   1  24
ATOM     24  C   UNL     1      -1.413  -2.063   0.004  0.00  0.00    +0.116 C 
BRANCH  24  25
ATOM     25  C   UNL     1      -1.433  -0.534   0.013  0.00  0.00    +0.019 C 
BRANCH  25  27
ATOM     26  C   UNL     1      -0.019   1.526   0.010  0.00  0.00    +0.004 C 
ATOM     27  C   UNL     1       0.002  -0.004   0.002  0.00  0.00    -0.002 C 
ENDBRANCH  25  27
ENDBRANCH  24  25
ENDBRANCH   1  24
BRANCH   5  28
ATOM     28  C   UNL     1      -6.175  -1.948   1.718  0.00  0.00    +0.031 C 
BRANCH  28  29
ATOM     29  C   UNL     1      -7.522  -1.730   2.409  0.00  0.00    +0.126 C 
BRANCH  29  30
ATOM     30  C   UNL     1      -7.658  -0.281   2.800  0.00  0.00    +0.356 C 
ATOM     31  O   UNL     1      -6.760   0.504   2.551  0.00  0.00    -0.246 OA
ATOM     32  O   UNL     1      -8.666   0.105   3.367  0.00  0.00    -0.246 OA
ENDBRANCH  29  30
ENDBRANCH  28  29
ENDBRANCH   5  28
TORSDOF 7
