REMARK  Name = ZINC39533663
REMARK  9 active torsions:
REMARK  status: ('A' for Active; 'I' for Inactive)
REMARK    1  A    between atoms: C_4  and  C_7
REMARK    2  A    between atoms: C_10  and  C_13
REMARK    3  A    between atoms: C_13  and  C_15
REMARK    4  A    between atoms: C_13  and  N_26
REMARK    5  A    between atoms: C_15  and  N_16
REMARK    6  A    between atoms: N_16  and  S_17
REMARK    7  A    between atoms: S_17  and  C_20
REMARK    8  A    between atoms: C_30  and  C_33
REMARK    9  A    between atoms: C_38  and  O_39
REMARK                            x       y       z     vdW  Elec       q    Type
REMARK                         _______ _______ _______ _____ _____    ______ ____
ROOT
ATOM      1  C   UNL     1       7.434  -2.768  -0.085  0.00  0.00    +0.102 C 
ENDROOT
BRANCH   1   2
ATOM      2  N   UNL     1       7.393  -3.871   0.884  0.00  0.00    -0.297 NA
ATOM      3  C   UNL     1       6.379  -4.866   0.507  0.00  0.00    +0.066 C 
ATOM      4  C   UNL     1       6.410  -6.025   1.506  0.00  0.00    -0.066 C 
ATOM      5  N   UNL     1       6.140  -5.514   2.857  0.00  0.00    +0.385 N 
ATOM      6  C   UNL     1       7.175  -4.540   3.229  0.00  0.00    -0.023 C 
ATOM      7  C   UNL     1       7.151  -3.369   2.244  0.00  0.00    +0.074 C 
ATOM      8  H   UNL     1       5.236  -5.067   2.873  0.00  0.00    -0.085 HD
ATOM      9  H   UNL     1       6.148  -6.280   3.514  0.00  0.00    -0.085 HD
BRANCH   6  10
ATOM     10  C   UNL     1       6.907  -4.030   4.622  0.00  0.00    -0.019 A 
ATOM     11  C   UNL     1       5.647  -4.156   5.174  0.00  0.00    +0.005 A 
ATOM     12  C   UNL     1       5.400  -3.688   6.451  0.00  0.00    +0.000 A 
ATOM     13  C   UNL     1       6.414  -3.094   7.180  0.00  0.00    +0.004 A 
ATOM     14  C   UNL     1       7.676  -2.966   6.633  0.00  0.00    +0.045 A 
ATOM     15  C   UNL     1       7.927  -3.440   5.353  0.00  0.00    +0.118 A 
BRANCH  15  16
ATOM     16  O   UNL     1       9.169  -3.320   4.815  0.00  0.00    -0.507 OA
ATOM     17  H   UNL     1       9.309  -2.497   4.328  0.00  0.00    +0.292 HD
ENDBRANCH  15  16
ENDBRANCH   6  10
ENDBRANCH   1   2
BRANCH   1  21
ATOM     18  C   UNL     1       3.585  -0.921  -0.305  0.00  0.00    -0.018 A 
ATOM     19  C   UNL     1       3.781  -2.193  -0.837  0.00  0.00    +0.009 A 
ATOM     20  C   UNL     1       5.026  -2.785  -0.764  0.00  0.00    +0.006 A 
ATOM     21  C   UNL     1       6.077  -2.117  -0.163  0.00  0.00    -0.029 A 
ATOM     22  C   UNL     1       5.888  -0.854   0.368  0.00  0.00    +0.006 A 
ATOM     23  C   UNL     1       4.649  -0.250   0.295  0.00  0.00    +0.009 A 
BRANCH  18  27
ATOM     24  C   UNL     1      -0.244   0.916  -0.523  0.00  0.00    +0.000 A 
ATOM     25  C   UNL     1      -0.056  -0.349  -1.049  0.00  0.00    +0.001 A 
ATOM     26  C   UNL     1       1.185  -0.950  -0.981  0.00  0.00    +0.008 A 
ATOM     27  C   UNL     1       2.249  -0.279  -0.381  0.00  0.00    -0.018 A 
ATOM     28  C   UNL     1       2.054   0.995   0.146  0.00  0.00    +0.008 A 
ATOM     29  C   UNL     1       0.809   1.587   0.073  0.00  0.00    +0.001 A 
ENDBRANCH  18  27
ENDBRANCH   1  21
BRANCH   1  30
ATOM     30  C   UNL     1       7.818  -3.313  -1.462  0.00  0.00    +0.129 C 
BRANCH  30  31
ATOM     31  N   UNL     1       9.080  -4.050  -1.361  0.00  0.00    -0.188 NA
ATOM     32  H   UNL     1       9.640  -3.948  -0.575  0.00  0.00    +0.148 HD
BRANCH  31  33
ATOM     33  S   UNL     1       9.553  -5.055  -2.589  0.00  0.00    +0.058 S 
ATOM     34  O   UNL     1      10.812  -5.594  -2.212  0.00  0.00    -0.153 OA
ATOM     35  O   UNL     1       8.434  -5.876  -2.895  0.00  0.00    -0.153 OA
BRANCH  33  36
ATOM     36  C   UNL     1       9.841  -4.048  -4.006  0.00  0.00    +0.105 A 
ATOM     37  C   UNL     1       8.809  -3.784  -4.888  0.00  0.00    +0.028 A 
ATOM     38  C   UNL     1       9.035  -2.993  -5.999  0.00  0.00    +0.002 A 
ATOM     39  C   UNL     1      10.292  -2.467  -6.229  0.00  0.00    +0.000 A 
ATOM     40  C   UNL     1      11.324  -2.731  -5.347  0.00  0.00    +0.002 A 
ATOM     41  C   UNL     1      11.097  -3.517  -4.233  0.00  0.00    +0.028 A 
ENDBRANCH  33  36
ENDBRANCH  31  33
ENDBRANCH  30  31
ENDBRANCH   1  30
TORSDOF 9
