REMARK  Name = ZINC18137877
REMARK  8 active torsions:
REMARK  status: ('A' for Active; 'I' for Inactive)
REMARK    1  A    between atoms: C_1  and  C_2
REMARK    2  A    between atoms: C_5  and  N_9
REMARK    3  A    between atoms: C_6  and  C_8
REMARK    4  A    between atoms: C_10  and  C_12
REMARK    5  A    between atoms: C_12  and  C_13
REMARK    6  A    between atoms: C_13  and  C_14
REMARK    7  A    between atoms: N_16  and  N_17
REMARK    8  A    between atoms: C_23  and  C_26
REMARK                            x       y       z     vdW  Elec       q    Type
REMARK                         _______ _______ _______ _____ _____    ______ ____
ROOT
ATOM      1  C   UNL     1      -0.330  -8.351  -2.628  0.00  0.00    +0.233 C 
ATOM      2  O   UNL     1      -0.316  -8.960  -1.579  0.00  0.00    -0.274 OA
ATOM      3  N   UNL     1      -0.429  -9.020  -3.794  0.00  0.00    -0.206 N 
ATOM      4  H   UNL     1      -0.440  -8.533  -4.633  0.00  0.00    +0.177 HD
ENDROOT
BRANCH   3   5
ATOM      5  N   UNL     1      -0.516 -10.418  -3.794  0.00  0.00    -0.174 NA
ATOM      6  C   UNL     1      -0.612 -11.069  -4.928  0.00  0.00    +0.154 C 
ATOM      7  C   UNL     1      -0.719 -12.534  -5.122  0.00  0.00    +0.042 A 
ATOM      8  C   UNL     1      -0.798 -12.745  -6.504  0.00  0.00    +0.044 A 
ATOM      9  C   UNL     1      -0.907 -14.046  -6.984  0.00  0.00    +0.024 A 
ATOM     10  C   UNL     1      -0.937 -15.109  -6.103  0.00  0.00    +0.006 A 
ATOM     11  C   UNL     1      -0.858 -14.896  -4.738  0.00  0.00    -0.036 A 
ATOM     12  C   UNL     1      -0.749 -13.611  -4.242  0.00  0.00    +0.032 A 
ATOM     13 BR   UNL     1      -0.642 -13.318  -2.377  0.00  0.00    -0.049 Br
ATOM     14  C   UNL     1      -0.892 -16.068  -3.790  0.00  0.00    +0.045 C 
ATOM     15  N   UNL     1      -0.747 -11.520  -7.161  0.00  0.00    -0.280 N 
ATOM     16  C   UNL     1      -0.644 -10.501  -6.291  0.00  0.00    +0.269 C 
ATOM     17  O   UNL     1      -0.586  -9.319  -6.577  0.00  0.00    -0.268 OA
ATOM     18  H   UNL     1      -0.785 -11.415  -8.124  0.00  0.00    +0.155 HD
ENDBRANCH   3   5
BRANCH   1  19
ATOM     19  C   UNL     1      -0.236  -6.847  -2.628  0.00  0.00    +0.107 C 
BRANCH  19  20
ATOM     20  C   UNL     1      -0.134  -6.343  -1.187  0.00  0.00    +0.105 C 
BRANCH  20  22
ATOM     21  N   UNL     1       0.059  -4.170  -0.021  0.00  0.00    -0.285 N 
ATOM     22  C   UNL     1      -0.040  -4.839  -1.187  0.00  0.00    +0.218 C 
ATOM     23  O   UNL     1      -0.054  -4.230  -2.236  0.00  0.00    -0.275 OA
ATOM     24  H   UNL     1       0.135  -4.658   0.814  0.00  0.00    +0.155 HD
BRANCH  21  29
ATOM     25  C   UNL     1       0.025   1.503   0.005  0.00  0.00    +0.044 C 
ATOM     26  C   UNL     1       0.034  -0.004  -0.002  0.00  0.00    -0.050 A 
ATOM     27  C   UNL     1       0.632  -0.685  -1.046  0.00  0.00    +0.005 A 
ATOM     28  C   UNL     1       0.641  -2.066  -1.055  0.00  0.00    +0.024 A 
ATOM     29  C   UNL     1       0.051  -2.771  -0.014  0.00  0.00    +0.036 A 
ATOM     30  C   UNL     1      -0.548  -2.083   1.033  0.00  0.00    -0.029 A 
ATOM     31  C   UNL     1      -0.550  -0.702   1.039  0.00  0.00    +0.008 A 
ATOM     32  C   UNL     1      -1.190  -2.843   2.165  0.00  0.00    +0.045 C 
ENDBRANCH  21  29
ENDBRANCH  20  22
ENDBRANCH  19  20
ENDBRANCH   1  19
TORSDOF 5
