REMARK  Name = ZINC04258790
REMARK  4 active torsions:
REMARK  status: ('A' for Active; 'I' for Inactive)
REMARK    1  A    between atoms: C_1  and  C_2
REMARK    2  A    between atoms: C_2  and  C_3
REMARK    3  A    between atoms: C_2  and  N_4
REMARK    4  A    between atoms: C_16  and  C_23
REMARK                            x       y       z     vdW  Elec       q    Type
REMARK                         _______ _______ _______ _____ _____    ______ ____
ROOT
ATOM      1  N   UNL     1      -7.032   1.383  -0.845  0.00  0.00    -0.297 N 
ATOM      2  C   UNL     1      -5.686   1.310  -0.852  0.00  0.00    +0.302 C 
ATOM      3  O   UNL     1      -5.098   0.840   0.103  0.00  0.00    -0.253 OA
ATOM      4  N   UNL     1      -4.992   1.758  -1.917  0.00  0.00    -0.285 N 
ATOM      5  C   UNL     1      -5.675   2.432  -3.027  0.00  0.00    +0.114 C 
ATOM      6  C   UNL     1      -4.979   3.748  -3.350  0.00  0.00    +0.027 C 
ATOM      7  C   UNL     1      -3.473   3.544  -3.518  0.00  0.00    +0.018 C 
ATOM      8  C   UNL     1      -2.913   2.972  -2.214  0.00  0.00    +0.054 C 
ATOM      9  C   UNL     1      -3.533   1.581  -1.991  0.00  0.00    +0.119 C 
ATOM     10  C   UNL     1      -3.323   3.849  -1.055  0.00  0.00    +0.034 A 
ATOM     11  C   UNL     1      -2.517   3.854   0.053  0.00  0.00    +0.002 A 
ATOM     12  C   UNL     1      -2.912   4.548   1.214  0.00  0.00    +0.015 A 
ATOM     13  C   UNL     1      -4.112   5.191   1.218  0.00  0.00    +0.071 A 
ATOM     14  C   UNL     1      -4.910   5.162   0.064  0.00  0.00    +0.252 A 
ATOM     15  O   UNL     1      -6.016   5.676   0.083  0.00  0.00    -0.268 OA
ATOM     16  N   UNL     1      -4.466   4.571  -1.072  0.00  0.00    -0.311 N 
ATOM     17  C   UNL     1      -5.243   4.802  -2.290  0.00  0.00    +0.130 C 
ATOM     18  H   UNL     1      -7.505   1.688  -1.635  0.00  0.00    +0.150 HD
ENDROOT
BRANCH  11  19
ATOM     19  C   UNL     1      -1.227   3.120   0.032  0.00  0.00    -0.016 A 
ATOM     20  C   UNL     1      -0.185   3.562  -0.780  0.00  0.00    +0.008 A 
ATOM     21  C   UNL     1       1.011   2.873  -0.800  0.00  0.00    +0.001 A 
ATOM     22  C   UNL     1       1.180   1.753  -0.006  0.00  0.00    +0.000 A 
ATOM     23  C   UNL     1       0.150   1.313   0.806  0.00  0.00    +0.001 A 
ATOM     24  C   UNL     1      -1.052   1.991   0.829  0.00  0.00    +0.008 A 
ENDBRANCH  11  19
BRANCH   1  26
ATOM     25  C   UNL     1      -7.857   2.195   1.308  0.00  0.00    +0.027 C 
ATOM     26  C   UNL     1      -7.780   1.001   0.355  0.00  0.00    +0.068 C 
ATOM     27  C   UNL     1      -9.195   0.573  -0.041  0.00  0.00    +0.027 C 
ENDBRANCH   1  26
TORSDOF 2
