REMARK  Name = ZINC25677841
REMARK  9 active torsions:
REMARK  status: ('A' for Active; 'I' for Inactive)
REMARK    1  A    between atoms: C_1  and  C_2
REMARK    2  A    between atoms: C_2  and  C_3
REMARK    3  A    between atoms: C_2  and  C_4
REMARK    4  A    between atoms: C_4  and  C_6
REMARK    5  A    between atoms: C_4  and  N_16
REMARK    6  A    between atoms: C_17  and  C_19
REMARK    7  A    between atoms: C_19  and  N_20
REMARK    8  A    between atoms: N_23  and  S_26
REMARK    9  A    between atoms: S_26  and  C_29
REMARK                            x       y       z     vdW  Elec       q    Type
REMARK                         _______ _______ _______ _____ _____    ______ ____
ROOT
ATOM      1  N   UNL     1      -4.647  -0.149   0.915  0.00  0.00    -0.310 N 
ATOM      2  C   UNL     1      -5.643  -0.864   1.476  0.00  0.00    +0.197 C 
ATOM      3  O   UNL     1      -5.749  -2.048   1.237  0.00  0.00    -0.278 OA
ATOM      4  H   UNL     1      -4.552   0.925   1.132  0.00  0.00    +0.149 HD
ENDROOT
BRANCH   1   5
ATOM      5  C   UNL     1      -3.692  -0.803   0.018  0.00  0.00    +0.106 C 
BRANCH   5   6
ATOM      6  C   UNL     1      -2.397  -0.033   0.016  0.00  0.00    -0.023 A 
ATOM      7  C   UNL     1      -2.415   1.349   0.025  0.00  0.00    +0.009 A 
ATOM      8  C   UNL     1      -1.229   2.059   0.019  0.00  0.00    +0.050 A 
ATOM      9  C   UNL     1      -0.017   1.385   0.010  0.00  0.00    +0.162 A 
ATOM     10  C   UNL     1       0.002  -0.004   0.002  0.00  0.00    +0.162 A 
ATOM     11  C   UNL     1      -1.192  -0.710   0.004  0.00  0.00    +0.055 A 
ATOM     12  O   UNL     1       1.181  -0.685  -0.007  0.00  0.00    -0.485 OA
ATOM     13  C   UNL     1       2.347   0.053  -0.387  0.00  0.00    +0.270 C 
ATOM     14  C   UNL     1       2.334   1.392   0.364  0.00  0.00    +0.270 C 
ATOM     15  O   UNL     1       1.143   2.098   0.002  0.00  0.00    -0.485 OA
ENDBRANCH   5   6
BRANCH   5  17
ATOM     16  C   UNL     1      -5.582  -1.620  -1.398  0.00  0.00    +0.009 C 
ATOM     17  C   UNL     1      -4.266  -0.838  -1.400  0.00  0.00    +0.008 C 
ATOM     18  C   UNL     1      -4.523   0.591  -1.882  0.00  0.00    +0.009 C 
ENDBRANCH   5  17
ENDBRANCH   1   5
BRANCH   2  19
ATOM     19  C   UNL     1      -6.626  -0.191   2.399  0.00  0.00    +0.019 C 
BRANCH  19  20
ATOM     20  N   UNL     1      -7.606  -1.177   2.874  0.00  0.00    +0.387 N 
ATOM     21  C   UNL     1      -8.436  -1.670   1.767  0.00  0.00    -0.061 C 
ATOM     22  C   UNL     1      -9.316  -2.821   2.265  0.00  0.00    +0.091 C 
ATOM     23  N   UNL     1     -10.063  -2.360   3.446  0.00  0.00    -0.180 NA
ATOM     24  C   UNL     1      -9.312  -1.729   4.542  0.00  0.00    +0.091 C 
ATOM     25  C   UNL     1      -8.432  -0.621   3.954  0.00  0.00    -0.061 C 
ATOM     26  H   UNL     1      -7.053  -2.035   3.284  0.00  0.00    -0.081 HD
BRANCH  23  27
ATOM     27  S   UNL     1     -11.706  -2.548   3.539  0.00  0.00    +0.067 S 
ATOM     28  O   UNL     1     -12.041  -3.625   2.675  0.00  0.00    -0.152 OA
ATOM     29  O   UNL     1     -12.037  -2.547   4.921  0.00  0.00    -0.152 OA
BRANCH  27  30
ATOM     30  C   UNL     1     -12.435  -1.101   2.846  0.00  0.00    +0.143 A 
ATOM     31  C   UNL     1     -12.785  -0.853   1.560  0.00  0.00    +0.036 A 
ATOM     32  C   UNL     1     -13.352   0.366   1.243  0.00  0.00    +0.010 A 
ATOM     33  C   UNL     1     -13.532   1.283   2.225  0.00  0.00    +0.047 A 
ATOM     34  S   UNL     1     -12.897   0.422   3.654  0.00  0.00    -0.077 S 
ENDBRANCH  27  30
ENDBRANCH  23  27
ENDBRANCH  19  20
ENDBRANCH   2  19
TORSDOF 7
