REMARK  Name = ZINC49033180
REMARK  3 active torsions:
REMARK  status: ('A' for Active; 'I' for Inactive)
REMARK    1  A    between atoms: C_5  and  N_8
REMARK    2  A    between atoms: C_9  and  C_11
REMARK    3  A    between atoms: C_11  and  C_12
REMARK                            x       y       z     vdW  Elec       q    Type
REMARK                         _______ _______ _______ _____ _____    ______ ____
ROOT
ATOM      1  C   UNL     1      -0.005   1.383  -0.013  0.00  0.00    +0.048 A 
ATOM      2  C   UNL     1       1.188   2.086  -0.028  0.00  0.00    +0.077 A 
ATOM      3  C   UNL     1       2.403   1.401  -0.041  0.00  0.00    +0.144 A 
ATOM      4  C   UNL     1       2.416   0.018  -0.039  0.00  0.00    +0.072 A 
ATOM      5  C   UNL     1       1.218  -0.685  -0.025  0.00  0.00    +0.055 A 
ATOM      6  C   UNL     1       0.009   0.000  -0.011  0.00  0.00    +0.064 A 
ATOM      7 CL   UNL     1      -1.486  -0.882   0.007  0.00  0.00    -0.082 Cl
ATOM      8  O   UNL     1       3.567   2.104  -0.057  0.00  0.00    -0.481 OA
ATOM      9  C   UNL     1       3.554   3.353  -0.753  0.00  0.00    +0.325 C 
ATOM     10  C   UNL     1       2.330   4.140  -0.359  0.00  0.00    +0.255 C 
ATOM     11  O   UNL     1       2.365   5.353  -0.338  0.00  0.00    -0.272 OA
ATOM     12  N   UNL     1       1.193   3.490  -0.029  0.00  0.00    -0.280 N 
ATOM     13  H   UNL     1       0.392   3.985   0.203  0.00  0.00    +0.155 HD
ENDROOT
BRANCH   5  14
ATOM     14  N   UNL     1       1.229  -2.086  -0.023  0.00  0.00    -0.284 N 
ATOM     15  C   UNL     1       2.299  -2.751   0.456  0.00  0.00    +0.226 C 
ATOM     16  O   UNL     1       3.208  -2.141   0.978  0.00  0.00    -0.275 OA
ATOM     17  H   UNL     1       0.466  -2.577  -0.367  0.00  0.00    +0.155 HD
BRANCH  15  18
ATOM     18  C   UNL     1       2.364  -4.252   0.345  0.00  0.00    +0.209 C 
BRANCH  18  19
ATOM     19  C   UNL     1       3.672  -4.753   0.961  0.00  0.00    +0.398 C 
ATOM     20  F   UNL     1       3.724  -4.383   2.309  0.00  0.00    -0.170 F 
ATOM     21  F   UNL     1       3.733  -6.147   0.857  0.00  0.00    -0.170 F 
ATOM     22  F   UNL     1       4.755  -4.187   0.280  0.00  0.00    -0.170 F 
ENDBRANCH  18  19
ENDBRANCH  15  18
ENDBRANCH   5  14
TORSDOF 3
