REMARK  Name = ZINC24089825
REMARK  7 active torsions:
REMARK  status: ('A' for Active; 'I' for Inactive)
REMARK    1  A    between atoms: C_4  and  C_7
REMARK    2  A    between atoms: C_10  and  O_13
REMARK    3  A    between atoms: O_13  and  C_14
REMARK    4  A    between atoms: C_14  and  C_15
REMARK    5  A    between atoms: C_15  and  C_17
REMARK    6  A    between atoms: C_15  and  O_31
REMARK    7  A    between atoms: C_17  and  N_18
REMARK                            x       y       z     vdW  Elec       q    Type
REMARK                         _______ _______ _______ _____ _____    ______ ____
ROOT
ATOM      1  C   UNL     1      -1.629  -1.128  -1.433  0.00  0.00    +0.170 C 
ENDROOT
BRANCH   1   2
ATOM      2  O   UNL     1      -1.912   0.104  -2.098  0.00  0.00    -0.387 OA
ATOM      3  H   UNL     1      -1.126   0.867  -2.201  0.00  0.00    +0.210 HD
ENDBRANCH   1   2
BRANCH   1   4
ATOM      4  C   UNL     1      -2.883  -2.005  -1.427  0.00  0.00    +0.261 C 
BRANCH   4   5
ATOM      5  O   UNL     1      -3.217  -2.367  -2.768  0.00  0.00    -0.489 OA
BRANCH   5   9
ATOM      6  C   UNL     1      -6.549  -4.748  -3.292  0.00  0.00    -0.018 A 
ATOM      7  C   UNL     1      -5.806  -4.334  -4.396  0.00  0.00    +0.012 A 
ATOM      8  C   UNL     1      -4.693  -3.539  -4.218  0.00  0.00    +0.046 A 
ATOM      9  C   UNL     1      -4.313  -3.150  -2.941  0.00  0.00    +0.121 A 
ATOM     10  C   UNL     1      -5.048  -3.566  -1.839  0.00  0.00    +0.046 A 
ATOM     11  C   UNL     1      -6.165  -4.357  -2.011  0.00  0.00    +0.012 A 
BRANCH   6  15
ATOM     12  C   UNL     1      -9.979  -7.202  -3.832  0.00  0.00    +0.000 A 
ATOM     13  C   UNL     1      -9.602  -6.816  -2.558  0.00  0.00    +0.001 A 
ATOM     14  C   UNL     1      -8.489  -6.019  -2.377  0.00  0.00    +0.008 A 
ATOM     15  C   UNL     1      -7.746  -5.604  -3.480  0.00  0.00    -0.018 A 
ATOM     16  C   UNL     1      -8.134  -5.992  -4.761  0.00  0.00    +0.008 A 
ATOM     17  C   UNL     1      -9.245  -6.793  -4.930  0.00  0.00    +0.001 A 
ENDBRANCH   6  15
ENDBRANCH   5   9
ENDBRANCH   4   5
ENDBRANCH   1   4
BRANCH   1  18
ATOM     18  C   UNL     1      -1.199  -0.843   0.007  0.00  0.00    +0.152 C 
BRANCH  18  19
ATOM     19  N   UNL     1       0.002  -0.004   0.002  0.00  0.00    -0.222 N 
ATOM     20  C   UNL     1       1.260  -0.484  -0.011  0.00  0.00    +0.247 C 
ATOM     21  O   UNL     1       1.598  -1.648  -0.017  0.00  0.00    -0.273 OA
ATOM     22  C   UNL     1       2.169   0.734  -0.017  0.00  0.00    +0.113 C 
ATOM     23  C   UNL     1       2.913   0.762  -1.372  0.00  0.00    +0.035 C 
ATOM     24  C   UNL     1       3.341   2.174  -1.660  0.00  0.00    +0.003 C 
ATOM     25  C   UNL     1       4.779   2.467  -1.190  0.00  0.00    +0.000 C 
ATOM     26  C   UNL     1       5.091   1.862   0.192  0.00  0.00    +0.000 C 
ATOM     27  C   UNL     1       3.950   2.028   1.158  0.00  0.00    +0.003 C 
ATOM     28  C   UNL     1       3.086   0.753   1.115  0.00  0.00    +0.035 C 
ATOM     29  N   UNL     1       1.219   1.864   0.000  0.00  0.00    -0.285 N 
ATOM     30  C   UNL     1      -0.016   1.333   0.009  0.00  0.00    +0.309 C 
ATOM     31  O   UNL     1      -1.036   1.995   0.018  0.00  0.00    -0.252 OA
ATOM     32  H   UNL     1       1.594   2.898   0.004  0.00  0.00    +0.151 HD
ENDBRANCH  18  19
ENDBRANCH   1  18
TORSDOF 7
