REMARK  Name = ZINC48192797
REMARK  11 active torsions:
REMARK  status: ('A' for Active; 'I' for Inactive)
REMARK    1  A    between atoms: C_1  and  C_2
REMARK    2  A    between atoms: C_2  and  C_3
REMARK    3  A    between atoms: C_2  and  O_4
REMARK    4  A    between atoms: O_4  and  C_5
REMARK    5  A    between atoms: C_10  and  N_11
REMARK    6  A    between atoms: N_14  and  C_15
REMARK    7  A    between atoms: C_15  and  C_16
REMARK    8  A    between atoms: C_16  and  C_18
REMARK    9  A    between atoms: C_16  and  N_23
REMARK   10  A    between atoms: N_23  and  C_24
REMARK   11  A    between atoms: N_23  and  C_25
REMARK                            x       y       z     vdW  Elec       q    Type
REMARK                         _______ _______ _______ _____ _____    ______ ____
ROOT
ATOM      1  N   UNL     1      -3.955  -1.110   0.034  0.00  0.00    -0.266 N 
ATOM      2  C   UNL     1      -5.195  -1.633  -0.036  0.00  0.00    +0.304 C 
ATOM      3  O   UNL     1      -5.733  -1.779  -1.117  0.00  0.00    -0.253 OA
ATOM      4  N   UNL     1      -5.839  -1.994   1.091  0.00  0.00    -0.300 N 
ATOM      5  H   UNL     1      -3.547  -0.943   0.898  0.00  0.00    +0.156 HD
ATOM      6  H   UNL     1      -5.410  -1.878   1.953  0.00  0.00    +0.150 HD
ENDROOT
BRANCH   1  12
ATOM      7  C   UNL     1      -1.870  -0.951  -1.187  0.00  0.00    +0.142 A 
ATOM      8  C   UNL     1      -1.183  -0.656  -2.353  0.00  0.00    +0.047 A 
ATOM      9  C   UNL     1      -1.872  -0.214  -3.468  0.00  0.00    +0.004 A 
ATOM     10  C   UNL     1      -3.246  -0.064  -3.422  0.00  0.00    +0.002 A 
ATOM     11  C   UNL     1      -3.938  -0.357  -2.262  0.00  0.00    +0.027 A 
ATOM     12  C   UNL     1      -3.255  -0.807  -1.142  0.00  0.00    +0.077 A 
BRANCH   7  13
ATOM     13  O   UNL     1      -1.194  -1.386  -0.090  0.00  0.00    -0.488 OA
BRANCH  13  15
ATOM     14  C   UNL     1       0.804  -0.044   0.124  0.00  0.00    +0.051 C 
ATOM     15  C   UNL     1       0.231  -1.429  -0.181  0.00  0.00    +0.167 C 
ATOM     16  C   UNL     1       0.776  -2.440   0.831  0.00  0.00    +0.051 C 
ENDBRANCH  13  15
ENDBRANCH   7  13
ENDBRANCH   1  12
BRANCH   4  17
ATOM     17  C   UNL     1      -7.187  -2.563   1.015  0.00  0.00    +0.095 C 
BRANCH  17  18
ATOM     18  C   UNL     1      -7.733  -2.771   2.429  0.00  0.00    -0.014 C 
BRANCH  18  19
ATOM     19  C   UNL     1      -6.869  -3.765   3.160  0.00  0.00    -0.022 A 
ATOM     20  C   UNL     1      -5.892  -3.539   4.072  0.00  0.00    +0.009 A 
ATOM     21  C   UNL     1      -5.223  -4.618   4.619  0.00  0.00    +0.008 A 
ATOM     22  C   UNL     1      -5.565  -5.870   4.229  0.00  0.00    +0.045 A 
ATOM     23  S   UNL     1      -6.873  -5.548   3.058  0.00  0.00    -0.103 S 
ENDBRANCH  18  19
BRANCH  18  24
ATOM     24  N   UNL     1      -9.109  -3.281   2.352  0.00  0.00    +0.382 N 
ATOM     25  C   UNL     1      -9.671  -3.380   3.706  0.00  0.00    -0.096 C 
ATOM     26  C   UNL     1      -9.927  -2.363   1.548  0.00  0.00    -0.096 C 
ATOM     27  H   UNL     1      -9.106  -4.193   1.922  0.00  0.00    -0.082 HD
ENDBRANCH  18  24
ENDBRANCH  17  18
ENDBRANCH   4  17
TORSDOF 7
