REMARK  Name = ZINC54461772
REMARK  7 active torsions:
REMARK  status: ('A' for Active; 'I' for Inactive)
REMARK    1  A    between atoms: C_1  and  C_2
REMARK    2  A    between atoms: C_2  and  C_4
REMARK    3  A    between atoms: C_2  and  N_20
REMARK    4  A    between atoms: C_4  and  C_5
REMARK    5  A    between atoms: C_10  and  O_11
REMARK    6  A    between atoms: O_11  and  C_12
REMARK    7  A    between atoms: C_12  and  C_13
REMARK                            x       y       z     vdW  Elec       q    Type
REMARK                         _______ _______ _______ _____ _____    ______ ____
ROOT
ATOM      1  C   UNL     1       0.847  -1.998  -1.206  0.00  0.00    -0.006 A 
ATOM      2  C   UNL     1       2.002  -2.576  -0.715  0.00  0.00    +0.022 A 
ATOM      3  C   UNL     1       2.121  -3.954  -0.668  0.00  0.00    +0.018 A 
ATOM      4  C   UNL     1       1.084  -4.755  -1.112  0.00  0.00    +0.019 A 
ATOM      5  C   UNL     1      -0.072  -4.181  -1.603  0.00  0.00    +0.047 A 
ATOM      6  C   UNL     1      -0.196  -2.800  -1.646  0.00  0.00    +0.124 A 
ATOM      7 BR   UNL     1       3.703  -4.742   0.004  0.00  0.00    -0.050 Br
ENDROOT
BRANCH   1   8
ATOM      8  C   UNL     1       0.718  -0.497  -1.257  0.00  0.00    +0.022 C 
BRANCH   8  10
ATOM      9  C   UNL     1      -0.019   1.526   0.010  0.00  0.00    -0.014 C 
ATOM     10  C   UNL     1       0.002  -0.004   0.002  0.00  0.00    -0.074 C 
BRANCH  10  11
ATOM     11  N   UNL     1      -1.376  -0.512   0.012  0.00  0.00    +0.380 N 
ATOM     12  H   UNL     1      -1.864  -0.178  -0.805  0.00  0.00    -0.090 HD
ATOM     13  H   UNL     1      -1.362  -1.521   0.007  0.00  0.00    -0.090 HD
ATOM     14  H   UNL     1      -1.848  -0.187   0.843  0.00  0.00    -0.090 HD
ENDBRANCH  10  11
ENDBRANCH   8  10
ENDBRANCH   1   8
BRANCH   6  15
ATOM     15  O   UNL     1      -1.335  -2.233  -2.124  0.00  0.00    -0.484 OA
BRANCH  15  16
ATOM     16  C   UNL     1      -2.367  -3.120  -2.560  0.00  0.00    +0.305 C 
BRANCH  16  17
ATOM     17  C   UNL     1      -3.543  -2.317  -3.054  0.00  0.00    +0.166 A 
ATOM     18  N   UNL     1      -4.488  -1.973  -2.201  0.00  0.00    -0.237 NA
ATOM     19  C   UNL     1      -5.535  -1.268  -2.599  0.00  0.00    +0.114 A 
ATOM     20  C   UNL     1      -5.630  -0.893  -3.929  0.00  0.00    +0.039 A 
ATOM     21  C   UNL     1      -4.617  -1.274  -4.795  0.00  0.00    +0.114 A 
ATOM     22  N   UNL     1      -3.597  -1.974  -4.325  0.00  0.00    -0.237 NA
ENDBRANCH  16  17
ENDBRANCH  15  16
ENDBRANCH   6  15
TORSDOF 6
