REMARK  Name = ZINC36595402
REMARK  13 active torsions:
REMARK  status: ('A' for Active; 'I' for Inactive)
REMARK    1  A    between atoms: C_1  and  C_2
REMARK    2  A    between atoms: C_2  and  C_3
REMARK    3  A    between atoms: C_3  and  C_4
REMARK    4  A    between atoms: C_4  and  N_5
REMARK    5  A    between atoms: C_6  and  C_8
REMARK    6  A    between atoms: C_8  and  C_10
REMARK    7  A    between atoms: C_8  and  N_19
REMARK    8  A    between atoms: C_13  and  N_16
REMARK    9  A    between atoms: N_19  and  C_20
REMARK   10  A    between atoms: C_20  and  C_21
REMARK   11  A    between atoms: C_24  and  C_26
REMARK   12  A    between atoms: C_27  and  C_29
REMARK   13  A    between atoms: C_34  and  O_35
REMARK                            x       y       z     vdW  Elec       q    Type
REMARK                         _______ _______ _______ _____ _____    ______ ____
ROOT
ATOM      1  C   UNL     1       4.025  -4.909   3.156  0.00  0.00    +0.193 C 
ENDROOT
BRANCH   1   2
ATOM      2  C   UNL     1       5.402  -5.206   3.690  0.00  0.00    -0.018 A 
ATOM      3  C   UNL     1       5.934  -6.476   3.562  0.00  0.00    +0.008 A 
ATOM      4  C   UNL     1       7.197  -6.748   4.051  0.00  0.00    +0.033 A 
ATOM      5  C   UNL     1       7.929  -5.752   4.669  0.00  0.00    +0.126 A 
ATOM      6  C   UNL     1       7.398  -4.482   4.796  0.00  0.00    +0.033 A 
ATOM      7  C   UNL     1       6.136  -4.208   4.303  0.00  0.00    +0.008 A 
BRANCH   5   8
ATOM      8  N   UNL     1       9.282  -6.044   5.194  0.00  0.00    +0.056 N 
ATOM      9  O   UNL     1       9.747  -7.155   5.083  0.00  0.00    -0.126 OA
ATOM     10  O   UNL     1       9.922  -5.172   5.734  0.00  0.00    -0.126 OA
ENDBRANCH   5   8
ENDBRANCH   1   2
BRANCH   1  12
ATOM     11  N   UNL     1       4.025  -3.283   1.292  0.00  0.00    -0.313 N 
ATOM     12  C   UNL     1       4.117  -4.566   1.691  0.00  0.00    +0.238 C 
ATOM     13  O   UNL     1       4.273  -5.447   0.872  0.00  0.00    -0.273 OA
ATOM     14  H   UNL     1       3.900  -2.579   1.947  0.00  0.00    +0.149 HD
BRANCH  11  15
ATOM     15  C   UNL     1       4.114  -2.950  -0.132  0.00  0.00    +0.104 C 
BRANCH  15  16
ATOM     16  C   UNL     1       3.981  -1.437  -0.312  0.00  0.00    +0.018 C 
BRANCH  16  18
ATOM     17  C   UNL     1       3.942   0.424  -1.979  0.00  0.00    +0.004 C 
ATOM     18  C   UNL     1       4.075  -1.089  -1.799  0.00  0.00    -0.002 C 
ENDBRANCH  16  18
ENDBRANCH  15  16
ENDBRANCH  11  15
ENDBRANCH   1  12
BRANCH   1  19
ATOM     19  N   UNL     1       3.169  -6.085   3.330  0.00  0.00    -0.275 N 
ATOM     20  C   UNL     1       2.921  -6.561   4.566  0.00  0.00    +0.251 C 
ATOM     21  O   UNL     1       2.214  -7.540   4.710  0.00  0.00    -0.270 OA
BRANCH  20  22
ATOM     22  C   UNL     1       3.506  -5.893   5.745  0.00  0.00    +0.078 A 
ATOM     23  C   UNL     1       3.045  -4.636   6.141  0.00  0.00    +0.017 A 
ATOM     24  C   UNL     1       3.596  -4.018   7.243  0.00  0.00    +0.001 A 
ATOM     25  C   UNL     1       4.605  -4.639   7.961  0.00  0.00    +0.004 A 
ATOM     26  C   UNL     1       5.070  -5.882   7.580  0.00  0.00    +0.046 A 
ATOM     27  C   UNL     1       4.524  -6.520   6.476  0.00  0.00    +0.129 A 
BRANCH  27  28
ATOM     28  O   UNL     1       4.976  -7.744   6.104  0.00  0.00    -0.506 OA
ATOM     29  H   UNL     1       5.713  -7.717   5.479  0.00  0.00    +0.292 HD
ENDBRANCH  27  28
ENDBRANCH  20  22
BRANCH  19  30
ATOM     30  C   UNL     1       2.583  -6.744   2.160  0.00  0.00    +0.183 C 
BRANCH  30  31
ATOM     31  C   UNL     1       3.471  -7.883   1.728  0.00  0.00    +0.122 A 
ATOM     32  C   UNL     1       3.381  -9.155   2.155  0.00  0.00    +0.046 A 
ATOM     33  C   UNL     1       4.401  -9.880   1.498  0.00  0.00    +0.045 A 
ATOM     34  C   UNL     1       5.053  -9.008   0.708  0.00  0.00    +0.102 A 
ATOM     35  O   UNL     1       4.481  -7.801   0.848  0.00  0.00    -0.463 OA
ATOM     36  C   UNL     1       6.223  -9.331  -0.185  0.00  0.00    +0.086 C 
ENDBRANCH  30  31
ENDBRANCH  19  30
ENDBRANCH   1  19
TORSDOF 11
