REMARK  Name = ZINC27693556
REMARK  12 active torsions:
REMARK  status: ('A' for Active; 'I' for Inactive)
REMARK    1  A    between atoms: C_1  and  O_2
REMARK    2  A    between atoms: O_2  and  C_3
REMARK    3  A    between atoms: C_6  and  C_9
REMARK    4  A    between atoms: C_9  and  C_10
REMARK    5  A    between atoms: N_18  and  C_19
REMARK    6  A    between atoms: C_19  and  C_20
REMARK    7  A    between atoms: C_20  and  C_22
REMARK    8  A    between atoms: C_20  and  O_37
REMARK    9  A    between atoms: C_22  and  N_23
REMARK   10  A    between atoms: N_23  and  C_24
REMARK   11  A    between atoms: N_23  and  C_31
REMARK   12  A    between atoms: C_24  and  C_25
REMARK                            x       y       z     vdW  Elec       q    Type
REMARK                         _______ _______ _______ _____ _____    ______ ____
ROOT
ATOM      1  C   UNL     1       3.770   3.615   0.151  0.00  0.00    +0.153 C 
ENDROOT
BRANCH   1  10
ATOM      2  C   UNL     1       1.597   4.865   0.417  0.00  0.00    +0.115 A 
ATOM      3  N   UNL     1       0.327   4.591   0.500  0.00  0.00    -0.232 NA
ATOM      4  C   UNL     1       0.144   3.248   0.417  0.00  0.00    +0.089 A 
ATOM      5  C   UNL     1      -0.985   2.426   0.449  0.00  0.00    +0.030 A 
ATOM      6  C   UNL     1      -0.845   1.072   0.333  0.00  0.00    +0.002 A 
ATOM      7  C   UNL     1       0.412   0.500   0.196  0.00  0.00    +0.002 A 
ATOM      8  C   UNL     1       1.540   1.291   0.162  0.00  0.00    +0.028 A 
ATOM      9  C   UNL     1       1.416   2.670   0.272  0.00  0.00    +0.069 A 
ATOM     10  N   UNL     1       2.314   3.718   0.276  0.00  0.00    -0.325 N 
BRANCH   2  11
ATOM     11  C   UNL     1       2.186   6.251   0.470  0.00  0.00    +0.109 C 
BRANCH  11  15
ATOM     12  C   UNL     1       3.068   7.270   4.525  0.00  0.00    +0.120 A 
ATOM     13  C   UNL     1       4.025   6.641   3.743  0.00  0.00    +0.046 A 
ATOM     14  C   UNL     1       3.738   6.313   2.432  0.00  0.00    +0.007 A 
ATOM     15  C   UNL     1       2.497   6.611   1.900  0.00  0.00    -0.040 A 
ATOM     16  C   UNL     1       1.543   7.243   2.676  0.00  0.00    +0.007 A 
ATOM     17  C   UNL     1       1.823   7.568   3.989  0.00  0.00    +0.046 A 
BRANCH  12  19
ATOM     18  C   UNL     1       2.315   8.240   6.561  0.00  0.00    +0.277 C 
ATOM     19  O   UNL     1       3.348   7.594   5.815  0.00  0.00    -0.495 OA
ENDBRANCH  12  19
ENDBRANCH  11  15
ENDBRANCH   2  11
ENDBRANCH   1  10
BRANCH   1  20
ATOM     20  C   UNL     1       4.162   3.683  -1.326  0.00  0.00    +0.118 C 
BRANCH  20  21
ATOM     21  O   UNL     1       3.642   2.541  -2.010  0.00  0.00    -0.392 OA
ATOM     22  H   UNL     1       3.823   2.416  -3.088  0.00  0.00    +0.210 HD
ENDBRANCH  20  21
BRANCH  20  23
ATOM     23  C   UNL     1       5.687   3.701  -1.450  0.00  0.00    -0.045 C 
BRANCH  23  24
ATOM     24  N   UNL     1       6.064   3.646  -2.868  0.00  0.00    +0.386 N 
ATOM     25  H   UNL     1       5.419   2.904  -3.361  0.00  0.00    -0.081 HD
BRANCH  24  26
ATOM     26  C   UNL     1       5.843   4.942  -3.522  0.00  0.00    -0.068 C 
ATOM     27  C   UNL     1       6.048   6.068  -2.506  0.00  0.00    -0.015 C 
ATOM     28  C   UNL     1       5.817   7.418  -3.188  0.00  0.00    -0.002 C 
ATOM     29  C   UNL     1       4.388   7.477  -3.733  0.00  0.00    -0.000 C 
ATOM     30  C   UNL     1       4.183   6.352  -4.748  0.00  0.00    -0.002 C 
ATOM     31  C   UNL     1       4.414   5.001  -4.067  0.00  0.00    -0.015 C 
ENDBRANCH  24  26
BRANCH  24  32
ATOM     32  C   UNL     1       7.457   3.208  -3.026  0.00  0.00    -0.043 C 
BRANCH  32  33
ATOM     33  C   UNL     1       7.688   2.769  -4.449  0.00  0.00    -0.064 A 
ATOM     34  C   UNL     1       7.358   1.484  -4.838  0.00  0.00    +0.002 A 
ATOM     35  C   UNL     1       7.565   1.083  -6.145  0.00  0.00    +0.000 A 
ATOM     36  C   UNL     1       8.112   1.964  -7.059  0.00  0.00    +0.000 A 
ATOM     37  C   UNL     1       8.447   3.247  -6.669  0.00  0.00    +0.000 A 
ATOM     38  C   UNL     1       8.235   3.649  -5.364  0.00  0.00    +0.002 A 
ENDBRANCH  32  33
ENDBRANCH  24  32
ENDBRANCH  23  24
ENDBRANCH  20  23
ENDBRANCH   1  20
TORSDOF 11
