REMARK  Name = ZINC16322041
REMARK  10 active torsions:
REMARK  status: ('A' for Active; 'I' for Inactive)
REMARK    1  A    between atoms: C_1  and  C_2
REMARK    2  A    between atoms: C_2  and  C_4
REMARK    3  A    between atoms: C_6  and  C_10
REMARK    4  A    between atoms: C_12  and  C_15
REMARK    5  A    between atoms: N_16  and  N_17
REMARK    6  A    between atoms: N_20  and  N_21
REMARK    7  A    between atoms: C_22  and  C_23
REMARK    8  A    between atoms: C_25  and  C_28
REMARK    9  A    between atoms: C_30  and  C_34
REMARK   10  A    between atoms: C_34  and  C_36
REMARK                            x       y       z     vdW  Elec       q    Type
REMARK                         _______ _______ _______ _____ _____    ______ ____
ROOT
ATOM      1  N   UNL     1       1.299  -8.467  -0.233  0.00  0.00    -0.189 N 
ATOM      2  C   UNL     1       2.608  -8.309   0.047  0.00  0.00    +0.339 C 
ATOM      3  O   UNL     1       3.357  -9.266   0.013  0.00  0.00    -0.249 OA
ATOM      4  N   UNL     1       3.086  -7.090   0.364  0.00  0.00    -0.189 N 
ATOM      5  H   UNL     1       0.940  -9.354  -0.389  0.00  0.00    +0.179 HD
ATOM      6  H   UNL     1       2.478  -6.340   0.464  0.00  0.00    +0.179 HD
ENDROOT
BRANCH   1   8
ATOM      7  C   UNL     1      -0.824  -7.509  -0.471  0.00  0.00    +0.176 C 
ATOM      8  N   UNL     1       0.456  -7.349  -0.298  0.00  0.00    -0.183 NA
BRANCH   7  11
ATOM      9  C   UNL     1      -2.431  -4.272  -0.311  0.00  0.00    +0.136 A 
ATOM     10  O   UNL     1      -1.339  -5.061  -0.316  0.00  0.00    -0.454 OA
ATOM     11  C   UNL     1      -1.718  -6.350  -0.429  0.00  0.00    +0.148 A 
ATOM     12  C   UNL     1      -3.093  -6.387  -0.499  0.00  0.00    +0.051 A 
ATOM     13  C   UNL     1      -3.538  -5.060  -0.417  0.00  0.00    +0.050 A 
BRANCH   9  16
ATOM     14  C   UNL     1      -1.231  -0.709  -0.105  0.00  0.00    +0.018 A 
ATOM     15  C   UNL     1      -1.223  -2.101  -0.207  0.00  0.00    +0.023 A 
ATOM     16  C   UNL     1      -2.429  -2.800  -0.203  0.00  0.00    +0.018 A 
ATOM     17  C   UNL     1      -3.636  -2.104  -0.097  0.00  0.00    +0.011 A 
ATOM     18  C   UNL     1      -3.638  -0.726   0.003  0.00  0.00    +0.001 A 
ATOM     19  C   UNL     1      -2.448  -0.026   0.005  0.00  0.00    +0.011 A 
BRANCH  14  21
ATOM     20  C   UNL     1       0.023   1.546  -0.108  0.00  0.00    +0.091 C 
ATOM     21  C   UNL     1       0.037   0.039  -0.108  0.00  0.00    +0.160 C 
ATOM     22  O   UNL     1       1.092  -0.557  -0.111  0.00  0.00    -0.292 OA
ENDBRANCH  14  21
ENDBRANCH   9  16
ENDBRANCH   7  11
ENDBRANCH   1   8
BRANCH   4  23
ATOM     23  N   UNL     1       4.462  -6.904   0.551  0.00  0.00    -0.183 NA
ATOM     24  C   UNL     1       4.915  -5.752   0.953  0.00  0.00    +0.176 C 
BRANCH  24  25
ATOM     25  C   UNL     1       6.359  -5.523   1.042  0.00  0.00    +0.148 A 
ATOM     26  O   UNL     1       7.322  -6.380   0.646  0.00  0.00    -0.454 OA
ATOM     27  C   UNL     1       8.530  -5.833   0.881  0.00  0.00    +0.136 A 
ATOM     28  C   UNL     1       8.351  -4.603   1.439  0.00  0.00    +0.050 A 
ATOM     29  C   UNL     1       6.969  -4.394   1.540  0.00  0.00    +0.051 A 
BRANCH  27  30
ATOM     30  C   UNL     1       9.832  -6.463   0.585  0.00  0.00    +0.018 A 
ATOM     31  C   UNL     1       9.881  -7.682  -0.090  0.00  0.00    +0.023 A 
ATOM     32  C   UNL     1      11.117  -8.270  -0.366  0.00  0.00    +0.018 A 
ATOM     33  C   UNL     1      12.296  -7.632   0.036  0.00  0.00    +0.011 A 
ATOM     34  C   UNL     1      12.238  -6.425   0.704  0.00  0.00    +0.001 A 
ATOM     35  C   UNL     1      11.019  -5.836   0.976  0.00  0.00    +0.011 A 
BRANCH  32  36
ATOM     36  C   UNL     1      11.180  -9.557  -1.077  0.00  0.00    +0.160 C 
ATOM     37  O   UNL     1      10.158 -10.157  -1.336  0.00  0.00    -0.292 OA
ATOM     38  C   UNL     1      12.513 -10.129  -1.484  0.00  0.00    +0.091 C 
ENDBRANCH  32  36
ENDBRANCH  27  30
ENDBRANCH  24  25
ENDBRANCH   4  23
TORSDOF 8
