REMARK  Name = ZINC39988325
REMARK  4 active torsions:
REMARK  status: ('A' for Active; 'I' for Inactive)
REMARK    1  A    between atoms: C_1  and  C_2
REMARK    2  A    between atoms: C_7  and  C_8
REMARK    3  A    between atoms: C_13  and  C_14
REMARK    4  A    between atoms: N_16  and  C_17
REMARK                            x       y       z     vdW  Elec       q    Type
REMARK                         _______ _______ _______ _____ _____    ______ ____
ROOT
ATOM      1  C   UNL     1       0.308   0.957   1.011  0.00  0.00    +0.044 C 
ATOM      2  C   UNL     1       0.100  -0.498   0.680  0.00  0.00    -0.046 A 
ATOM      3  C   UNL     1       0.259  -0.939  -0.620  0.00  0.00    +0.028 A 
ATOM      4  C   UNL     1       0.066  -2.278  -0.922  0.00  0.00    +0.053 A 
ATOM      5  C   UNL     1      -0.288  -3.181   0.085  0.00  0.00    +0.055 A 
ATOM      6  C   UNL     1      -0.444  -2.726   1.387  0.00  0.00    +0.028 A 
ATOM      7  C   UNL     1      -0.245  -1.391   1.680  0.00  0.00    -0.046 A 
ATOM      8  C   UNL     1      -0.409  -0.902   3.096  0.00  0.00    +0.044 C 
ATOM      9  N   UNL     1      -0.485  -4.530  -0.212  0.00  0.00    -0.279 N 
ATOM     10  C   UNL     1      -0.093  -5.023  -1.409  0.00  0.00    +0.263 C 
ATOM     11  O   UNL     1      -0.250  -6.196  -1.684  0.00  0.00    -0.268 OA
ATOM     12  C   UNL     1       0.536  -4.085  -2.382  0.00  0.00    +0.099 C 
ATOM     13  C   UNL     1       1.370  -4.523  -3.362  0.00  0.00    +0.096 C 
ATOM     14  N   UNL     1       0.225  -2.740  -2.233  0.00  0.00    -0.309 N 
ATOM     15  H   UNL     1      -0.902  -5.114   0.439  0.00  0.00    +0.155 HD
ATOM     16  H   UNL     1       0.123  -2.152  -2.997  0.00  0.00    +0.152 HD
ENDROOT
BRANCH  13  17
ATOM     17  C   UNL     1       1.967  -5.806  -3.264  0.00  0.00    +0.243 C 
ATOM     18  O   UNL     1       1.835  -6.462  -2.247  0.00  0.00    -0.270 OA
ATOM     19  N   UNL     1       2.679  -6.298  -4.297  0.00  0.00    -0.281 N 
ATOM     20  H   UNL     1       2.829  -5.754  -5.086  0.00  0.00    +0.155 HD
BRANCH  19  21
ATOM     21  C   UNL     1       3.203  -7.593  -4.231  0.00  0.00    +0.052 A 
ATOM     22  C   UNL     1       3.567  -8.135  -3.005  0.00  0.00    +0.026 A 
ATOM     23  C   UNL     1       4.084  -9.414  -2.942  0.00  0.00    +0.022 A 
ATOM     24  C   UNL     1       4.239 -10.157  -4.100  0.00  0.00    +0.042 A 
ATOM     25  C   UNL     1       3.878  -9.620  -5.323  0.00  0.00    +0.041 A 
ATOM     26  C   UNL     1       3.355  -8.343  -5.391  0.00  0.00    +0.064 A 
ATOM     27 CL   UNL     1       2.896  -7.672  -6.925  0.00  0.00    -0.082 Cl
ATOM     28 CL   UNL     1       4.890 -11.764  -4.017  0.00  0.00    -0.083 Cl
ENDBRANCH  19  21
ENDBRANCH  13  17
TORSDOF 2
