REMARK  Name = ZINC16936087
REMARK  10 active torsions:
REMARK  status: ('A' for Active; 'I' for Inactive)
REMARK    1  A    between atoms: C_1  and  C_2
REMARK    2  A    between atoms: C_2  and  O_3
REMARK    3  A    between atoms: O_3  and  C_4
REMARK    4  A    between atoms: C_7  and  C_12
REMARK    5  A    between atoms: C_9  and  O_10
REMARK    6  A    between atoms: O_10  and  C_11
REMARK    7  A    between atoms: N_16  and  C_28
REMARK    8  A    between atoms: N_18  and  C_19
REMARK    9  A    between atoms: C_22  and  C_26
REMARK   10  A    between atoms: C_24  and  O_25
REMARK                            x       y       z     vdW  Elec       q    Type
REMARK                         _______ _______ _______ _____ _____    ______ ____
ROOT
ATOM      1  C   UNL     1      -2.801   2.342   2.388  0.00  0.00    +0.028 C 
ATOM      2  C   UNL     1      -1.593   2.170   1.793  0.00  0.00    +0.078 C 
ATOM      3  C   UNL     1      -1.268   1.536   0.501  0.00  0.00    +0.259 C 
ATOM      4  O   UNL     1      -2.134   1.067  -0.214  0.00  0.00    -0.269 OA
ATOM      5  N   UNL     1       0.009   1.497   0.157  0.00  0.00    -0.249 N 
ATOM      6  C   UNL     1       0.974   2.038   0.978  0.00  0.00    +0.168 C 
ATOM      7  N   UNL     1       2.273   2.089   0.789  0.00  0.00    -0.222 NA
ATOM      8  S   UNL     1       0.030   2.655   2.362  0.00  0.00    -0.049 S 
ATOM      9  C   UNL     1       0.399   0.878  -1.112  0.00  0.00    +0.140 C 
ENDROOT
BRANCH   7  10
ATOM     10  C   UNL     1       3.091   2.567   1.778  0.00  0.00    +0.108 A 
ATOM     11  C   UNL     1       2.904   2.161   3.100  0.00  0.00    +0.032 A 
ATOM     12  C   UNL     1       3.732   2.646   4.092  0.00  0.00    +0.005 A 
ATOM     13  C   UNL     1       4.748   3.532   3.780  0.00  0.00    -0.047 A 
ATOM     14  C   UNL     1       4.943   3.941   2.473  0.00  0.00    +0.051 A 
ATOM     15  C   UNL     1       4.124   3.460   1.466  0.00  0.00    +0.142 A 
ATOM     16  C   UNL     1       5.647   4.056   4.871  0.00  0.00    +0.044 C 
BRANCH  15  17
ATOM     17  O   UNL     1       4.319   3.857   0.180  0.00  0.00    -0.505 OA
ATOM     18  H   UNL     1       3.825   4.652  -0.065  0.00  0.00    +0.292 HD
ENDBRANCH  15  17
ENDBRANCH   7  10
BRANCH   1  22
ATOM     19  C   UNL     1      -3.123   4.740   5.873  0.00  0.00    +0.162 A 
ATOM     20  C   UNL     1      -1.934   4.714   5.157  0.00  0.00    +0.050 A 
ATOM     21  C   UNL     1      -1.824   3.937   4.025  0.00  0.00    +0.012 A 
ATOM     22  C   UNL     1      -2.914   3.171   3.595  0.00  0.00    -0.020 A 
ATOM     23  C   UNL     1      -4.115   3.202   4.315  0.00  0.00    +0.057 A 
ATOM     24  C   UNL     1      -4.213   3.981   5.452  0.00  0.00    +0.162 A 
BRANCH  24  25
ATOM     25  O   UNL     1      -5.376   4.011   6.156  0.00  0.00    -0.491 OA
ATOM     26  C   UNL     1      -6.452   3.208   5.667  0.00  0.00    +0.277 C 
ENDBRANCH  24  25
BRANCH  19  27
ATOM     27  O   UNL     1      -3.224   5.509   6.989  0.00  0.00    -0.489 OA
BRANCH  27  29
ATOM     28  C   UNL     1      -2.372   7.060   8.636  0.00  0.00    +0.048 C 
ATOM     29  C   UNL     1      -2.070   6.262   7.365  0.00  0.00    +0.226 C 
ENDBRANCH  27  29
ENDBRANCH  19  27
ENDBRANCH   1  22
TORSDOF 6
