REMARK  Name = ZINC09383314
REMARK  5 active torsions:
REMARK  status: ('A' for Active; 'I' for Inactive)
REMARK    1  A    between atoms: C_1  and  C_2
REMARK    2  A    between atoms: C_10  and  N_21
REMARK    3  A    between atoms: C_11  and  C_12
REMARK    4  A    between atoms: C_22  and  C_24
REMARK    5  A    between atoms: C_24  and  C_25
REMARK                            x       y       z     vdW  Elec       q    Type
REMARK                         _______ _______ _______ _____ _____    ______ ____
ROOT
ATOM      1  C   UNL     1       1.517  -1.782   3.052  0.00  0.00    +0.109 C 
ATOM      2  C   UNL     1       0.518  -1.203   2.084  0.00  0.00    +0.213 C 
ATOM      3  O   UNL     1      -0.669  -1.381   2.259  0.00  0.00    -0.276 OA
ATOM      4  N   UNL     1       0.943  -0.487   1.024  0.00  0.00    -0.297 N 
ATOM      5  C   UNL     1       0.004  -0.010  -0.002  0.00  0.00    +0.113 C 
ATOM      6  C   UNL     1      -0.029   1.519   0.005  0.00  0.00    +0.055 C 
ATOM      7  C   UNL     1       1.399   2.053   0.001  0.00  0.00    -0.023 A 
ATOM      8  C   UNL     1       2.436   1.273   0.387  0.00  0.00    +0.013 A 
ATOM      9  S   UNL     1       3.867   2.303   0.226  0.00  0.00    -0.076 S 
ATOM     10  C   UNL     1       3.068   3.784  -0.368  0.00  0.00    +0.082 A 
ATOM     11  C   UNL     1       1.737   3.405  -0.408  0.00  0.00    +0.039 A 
ATOM     12  C   UNL     1       2.370  -0.152   0.848  0.00  0.00    +0.150 C 
ENDROOT
BRANCH  11  13
ATOM     13  C   UNL     1       0.694   4.345  -0.853  0.00  0.00    +0.112 A 
ATOM     14  N   UNL     1      -0.605   4.149  -0.958  0.00  0.00    -0.239 NA
ATOM     15  C   UNL     1      -1.449   5.113  -1.379  0.00  0.00    +0.079 A 
ATOM     16  C   UNL     1      -2.854   5.037  -1.532  0.00  0.00    +0.029 A 
ATOM     17  C   UNL     1      -3.568   6.115  -1.982  0.00  0.00    +0.002 A 
ATOM     18  C   UNL     1      -2.947   7.314  -2.304  0.00  0.00    +0.001 A 
ATOM     19  C   UNL     1      -1.576   7.424  -2.167  0.00  0.00    +0.017 A 
ATOM     20  C   UNL     1      -0.851   6.349  -1.716  0.00  0.00    +0.040 A 
ATOM     21  S   UNL     1       0.869   6.038  -1.396  0.00  0.00    -0.067 S 
ENDBRANCH  11  13
BRANCH  10  22
ATOM     22  N   UNL     1       3.637   5.007  -0.703  0.00  0.00    -0.279 N 
ATOM     23  C   UNL     1       4.969   5.183  -0.595  0.00  0.00    +0.222 C 
ATOM     24  O   UNL     1       5.671   4.275  -0.205  0.00  0.00    -0.275 OA
ATOM     25  H   UNL     1       3.076   5.734  -1.015  0.00  0.00    +0.155 HD
BRANCH  23  26
ATOM     26  C   UNL     1       5.586   6.509  -0.959  0.00  0.00    +0.131 C 
BRANCH  26  27
ATOM     27  C   UNL     1       7.077   6.444  -0.750  0.00  0.00    -0.031 A 
ATOM     28  C   UNL     1       7.624   6.879   0.418  0.00  0.00    +0.005 A 
ATOM     29  C   UNL     1       9.001   6.826   0.629  0.00  0.00    +0.001 A 
ATOM     30  C   UNL     1       9.838   6.338  -0.327  0.00  0.00    +0.008 A 
ATOM     31  C   UNL     1       9.310   5.879  -1.545  0.00  0.00    -0.018 A 
ATOM     32  C   UNL     1       7.909   5.928  -1.758  0.00  0.00    -0.014 A 
ATOM     33  C   UNL     1       7.381   5.473  -2.978  0.00  0.00    +0.009 A 
ATOM     34  C   UNL     1       8.219   4.986  -3.934  0.00  0.00    +0.001 A 
ATOM     35  C   UNL     1       9.595   4.934  -3.724  0.00  0.00    +0.001 A 
ATOM     36  C   UNL     1      10.143   5.369  -2.556  0.00  0.00    +0.008 A 
ENDBRANCH  26  27
ENDBRANCH  23  26
ENDBRANCH  10  22
TORSDOF 4
