REMARK  Name = ZINC40981185
REMARK  14 active torsions:
REMARK  status: ('A' for Active; 'I' for Inactive)
REMARK    1  A    between atoms: C_1  and  C_2
REMARK    2  A    between atoms: C_2  and  C_3
REMARK    3  A    between atoms: C_3  and  S_4
REMARK    4  A    between atoms: S_4  and  C_5
REMARK    5  A    between atoms: C_10  and  C_22
REMARK    6  A    between atoms: C_16  and  C_20
REMARK    7  A    between atoms: C_16  and  C_21
REMARK    8  A    between atoms: C_25  and  O_31
REMARK    9  A    between atoms: C_26  and  O_28
REMARK   10  A    between atoms: O_28  and  C_29
REMARK   11  A    between atoms: C_29  and  C_30
REMARK   12  A    between atoms: O_31  and  C_32
REMARK   13  A    between atoms: C_32  and  C_33
REMARK   14  A    between atoms: C_37  and  C_39
REMARK                            x       y       z     vdW  Elec       q    Type
REMARK                         _______ _______ _______ _____ _____    ______ ____
ROOT
ATOM      1  C   UNL     1      -3.112  -2.797   0.017  0.00  0.00    +0.210 A 
ATOM      2  N   UNL     1      -4.144  -1.940   0.025  0.00  0.00    -0.187 NA
ATOM      3  C   UNL     1      -5.265  -2.608   0.037  0.00  0.00    +0.219 A 
ATOM      4  N   UNL     1      -4.969  -3.930   0.029  0.00  0.00    -0.220 N 
ATOM      5  N   UNL     1      -3.578  -4.028   0.015  0.00  0.00    -0.141 NA
ATOM      6  C   UNL     1      -5.981  -4.979   0.027  0.00  0.00    +0.176 C 
ATOM      7  C   UNL     1      -7.332  -4.396   0.375  0.00  0.00    +0.041 C 
ATOM      8  C   UNL     1      -7.561  -3.065   0.374  0.00  0.00    +0.020 C 
ATOM      9  N   UNL     1      -6.576  -2.161   0.056  0.00  0.00    -0.287 N 
ATOM     10  C   UNL     1      -8.920  -2.511   0.733  0.00  0.00    +0.058 C 
ATOM     11  C   UNL     1     -10.007  -3.506   0.322  0.00  0.00    -0.023 C 
ATOM     12  C   UNL     1      -9.743  -4.833   1.041  0.00  0.00    +0.086 C 
ATOM     13  C   UNL     1      -8.355  -5.304   0.702  0.00  0.00    +0.164 C 
ATOM     14  O   UNL     1      -8.113  -6.495   0.712  0.00  0.00    -0.292 OA
ATOM     15  C   UNL     1      -9.962  -3.723  -1.192  0.00  0.00    +0.011 C 
ATOM     16  C   UNL     1     -11.380  -2.966   0.726  0.00  0.00    +0.011 C 
ATOM     17  H   UNL     1      -6.793  -1.238  -0.148  0.00  0.00    +0.155 HD
ENDROOT
BRANCH   6  18
ATOM     18  C   UNL     1      -6.047  -5.607  -1.341  0.00  0.00    -0.015 A 
ATOM     19  C   UNL     1      -6.358  -4.830  -2.442  0.00  0.00    +0.010 A 
ATOM     20  C   UNL     1      -6.420  -5.402  -3.700  0.00  0.00    +0.050 A 
ATOM     21  C   UNL     1      -6.169  -6.755  -3.859  0.00  0.00    +0.162 A 
ATOM     22  C   UNL     1      -5.856  -7.537  -2.751  0.00  0.00    +0.162 A 
ATOM     23  C   UNL     1      -5.791  -6.957  -1.494  0.00  0.00    +0.055 A 
BRANCH  22  24
ATOM     24  O   UNL     1      -5.609  -8.866  -2.902  0.00  0.00    -0.489 OA
BRANCH  24  25
ATOM     25  C   UNL     1      -5.294  -9.605  -1.721  0.00  0.00    +0.226 C 
ATOM     26  C   UNL     1      -5.050 -11.071  -2.087  0.00  0.00    +0.048 C 
ENDBRANCH  24  25
ENDBRANCH  22  24
BRANCH  21  27
ATOM     27  O   UNL     1      -6.230  -7.319  -5.095  0.00  0.00    -0.484 OA
BRANCH  27  28
ATOM     28  C   UNL     1      -6.558  -6.456  -6.186  0.00  0.00    +0.264 C 
BRANCH  28  29
ATOM     29  C   UNL     1      -6.579  -7.250  -7.466  0.00  0.00    -0.010 A 
ATOM     30  C   UNL     1      -5.424  -7.385  -8.215  0.00  0.00    +0.007 A 
ATOM     31  C   UNL     1      -5.443  -8.114  -9.389  0.00  0.00    +0.001 A 
ATOM     32  C   UNL     1      -6.617  -8.708  -9.815  0.00  0.00    +0.003 A 
ATOM     33  C   UNL     1      -7.771  -8.574  -9.066  0.00  0.00    -0.050 A 
ATOM     34  C   UNL     1      -7.751  -7.849  -7.889  0.00  0.00    +0.010 A 
ATOM     35  C   UNL     1      -9.050  -9.222  -9.531  0.00  0.00    +0.044 C 
ENDBRANCH  28  29
ENDBRANCH  27  28
ENDBRANCH  21  27
ENDBRANCH   6  18
BRANCH   1  36
ATOM     36  S   UNL     1      -1.409  -2.348   0.003  0.00  0.00    -0.084 S 
BRANCH  36  37
ATOM     37  C   UNL     1      -1.433  -0.534   0.013  0.00  0.00    +0.077 C 
BRANCH  37  39
ATOM     38  C   UNL     1      -0.019   1.526   0.010  0.00  0.00    +0.004 C 
ATOM     39  C   UNL     1       0.002  -0.004   0.002  0.00  0.00    +0.008 C 
ENDBRANCH  37  39
ENDBRANCH  36  37
ENDBRANCH   1  36
TORSDOF 9
