REMARK  Name = ZINC65752875
REMARK  3 active torsions:
REMARK  status: ('A' for Active; 'I' for Inactive)
REMARK    1  A    between atoms: C_6  and  N_7
REMARK    2  A    between atoms: N_13  and  C_16
REMARK    3  A    between atoms: C_16  and  C_17
REMARK                            x       y       z     vdW  Elec       q    Type
REMARK                         _______ _______ _______ _____ _____    ______ ____
ROOT
ATOM      1  N   UNL     1      -1.196  -0.734   0.048  0.00  0.00    -0.268 N 
ATOM      2  C   UNL     1      -1.169  -2.074  -0.099  0.00  0.00    +0.307 C 
ATOM      3  O   UNL     1      -0.104  -2.659  -0.147  0.00  0.00    -0.252 OA
ATOM      4  N   UNL     1      -2.322  -2.765  -0.193  0.00  0.00    -0.283 N 
ATOM      5  C   UNL     1      -3.614  -2.068  -0.294  0.00  0.00    +0.124 C 
ATOM      6  C   UNL     1      -4.561  -2.642   0.765  0.00  0.00    +0.104 C 
ATOM      7  N   UNL     1      -4.629  -4.102   0.615  0.00  0.00    -0.295 NA
ATOM      8  C   UNL     1      -3.321  -4.725   0.858  0.00  0.00    +0.104 C 
ATOM      9  C   UNL     1      -2.322  -4.235  -0.203  0.00  0.00    +0.124 C 
ATOM     10  H   UNL     1      -2.037  -0.282   0.221  0.00  0.00    +0.156 HD
ENDROOT
BRANCH   1  16
ATOM     11  C   UNL     1      -0.046   1.354  -0.392  0.00  0.00    +0.028 A 
ATOM     12  C   UNL     1       1.153   2.044  -0.475  0.00  0.00    +0.042 A 
ATOM     13  C   UNL     1       2.336   1.375  -0.218  0.00  0.00    +0.129 A 
ATOM     14  N   UNL     1       2.335   0.095   0.104  0.00  0.00    -0.242 NA
ATOM     15  C   UNL     1       1.217  -0.597   0.194  0.00  0.00    +0.135 A 
ATOM     16  C   UNL     1      -0.011   0.005  -0.050  0.00  0.00    +0.053 A 
ATOM     17 CL   UNL     1       3.844   2.230  -0.320  0.00  0.00    -0.062 Cl
ENDBRANCH   1  16
BRANCH   7  18
ATOM     18  C   UNL     1      -5.656  -4.674   1.497  0.00  0.00    +0.127 C 
BRANCH  18  19
ATOM     19  C   UNL     1      -5.869  -6.124   1.145  0.00  0.00    +0.005 A 
ATOM     20  C   UNL     1      -5.248  -7.222   1.639  0.00  0.00    +0.014 A 
ATOM     21  C   UNL     1      -5.610  -8.469   1.163  0.00  0.00    +0.028 A 
ATOM     22  C   UNL     1      -6.577  -8.555   0.216  0.00  0.00    +0.078 A 
ATOM     23  S   UNL     1      -7.012  -6.840  -0.025  0.00  0.00    -0.080 S 
ATOM     24 CL   UNL     1      -7.228  -9.966  -0.557  0.00  0.00    -0.076 Cl
ENDBRANCH  18  19
ENDBRANCH   7  18
TORSDOF 3
