REMARK  Name = ZINC32964441
REMARK  8 active torsions:
REMARK  status: ('A' for Active; 'I' for Inactive)
REMARK    1  A    between atoms: C_1  and  O_2
REMARK    2  A    between atoms: O_2  and  C_3
REMARK    3  A    between atoms: C_5  and  O_34
REMARK    4  A    between atoms: C_8  and  N_9
REMARK    5  A    between atoms: C_13  and  C_14
REMARK    6  A    between atoms: C_24  and  C_26
REMARK    7  A    between atoms: C_26  and  C_27
REMARK    8  A    between atoms: O_34  and  C_35
REMARK                            x       y       z     vdW  Elec       q    Type
REMARK                         _______ _______ _______ _____ _____    ______ ____
ROOT
ATOM      1  C   UNL     1       0.945  -1.942   2.064  0.00  0.00    +0.042 C 
ATOM      2  C   UNL     1      -0.137  -1.119   2.331  0.00  0.00    +0.082 C 
ATOM      3  C   UNL     1      -1.258  -0.961   1.366  0.00  0.00    +0.153 C 
ATOM      4  N   UNL     1      -1.670  -1.922   0.580  0.00  0.00    -0.283 NA
ATOM      5  N   UNL     1      -1.834   0.327   1.382  0.00  0.00    -0.152 N 
ATOM      6  C   UNL     1      -1.683   1.077   2.529  0.00  0.00    +0.181 C 
ATOM      7  N   UNL     1      -0.980   0.777   3.591  0.00  0.00    -0.152 NA
ATOM      8  C   UNL     1      -0.241  -0.354   3.595  0.00  0.00    +0.273 C 
ATOM      9  O   UNL     1       0.327  -0.733   4.607  0.00  0.00    -0.268 OA
ATOM     10  S   UNL     1      -2.653   2.516   2.162  0.00  0.00    -0.038 S 
ATOM     11  C   UNL     1      -3.105   2.073   0.490  0.00  0.00    +0.104 C 
ATOM     12  N   UNL     1      -2.549   0.904   0.354  0.00  0.00    -0.169 NA
ATOM     13  H   UNL     1      -2.358  -1.747  -0.081  0.00  0.00    +0.188 HD
ENDROOT
BRANCH   1  18
ATOM     14  N   UNL     1       2.136  -3.297   0.351  0.00  0.00    -0.313 N 
ATOM     15  C   UNL     1       2.078  -3.425  -0.998  0.00  0.00    +0.092 A 
ATOM     16  C   UNL     1       1.128  -2.583  -1.481  0.00  0.00    +0.020 A 
ATOM     17  C   UNL     1       0.568  -1.900  -0.402  0.00  0.00    +0.027 A 
ATOM     18  C   UNL     1       1.203  -2.359   0.745  0.00  0.00    +0.048 A 
BRANCH  14  24
ATOM     19  C   UNL     1       2.477  -4.908   2.127  0.00  0.00    +0.147 A 
ATOM     20  C   UNL     1       3.330  -5.609   2.964  0.00  0.00    +0.094 A 
ATOM     21  C   UNL     1       4.699  -5.404   2.886  0.00  0.00    +0.142 A 
ATOM     22  C   UNL     1       5.216  -4.498   1.970  0.00  0.00    +0.085 A 
ATOM     23  C   UNL     1       4.368  -3.798   1.134  0.00  0.00    +0.053 A 
ATOM     24  C   UNL     1       2.998  -4.003   1.204  0.00  0.00    +0.090 A 
ATOM     25 CL   UNL     1       6.931  -4.244   1.875  0.00  0.00    -0.080 Cl
BRANCH  19  27
ATOM     26  C   UNL     1       0.671  -6.049   3.172  0.00  0.00    +0.277 C 
ATOM     27  O   UNL     1       1.134  -5.107   2.202  0.00  0.00    -0.493 OA
ENDBRANCH  19  27
BRANCH  21  28
ATOM     28  O   UNL     1       5.536  -6.092   3.708  0.00  0.00    -0.494 OA
ATOM     29  C   UNL     1       4.932  -6.919   4.704  0.00  0.00    +0.277 C 
ENDBRANCH  21  28
ENDBRANCH  14  24
ENDBRANCH   1  18
BRANCH  11  30
ATOM     30  C   UNL     1      -3.921   2.854  -0.507  0.00  0.00    +0.099 C 
BRANCH  30  31
ATOM     31  C   UNL     1      -4.139   2.019  -1.742  0.00  0.00    -0.041 A 
ATOM     32  C   UNL     1      -3.182   1.997  -2.739  0.00  0.00    +0.004 A 
ATOM     33  C   UNL     1      -3.382   1.231  -3.872  0.00  0.00    +0.000 A 
ATOM     34  C   UNL     1      -4.539   0.486  -4.008  0.00  0.00    +0.000 A 
ATOM     35  C   UNL     1      -5.495   0.508  -3.010  0.00  0.00    +0.000 A 
ATOM     36  C   UNL     1      -5.294   1.270  -1.875  0.00  0.00    +0.004 A 
ENDBRANCH  30  31
ENDBRANCH  11  30
TORSDOF 6
