REMARK  Name = ZINC48622342
REMARK  4 active torsions:
REMARK  status: ('A' for Active; 'I' for Inactive)
REMARK    1  A    between atoms: C_1  and  C_2
REMARK    2  A    between atoms: C_2  and  N_3
REMARK    3  A    between atoms: C_4  and  C_16
REMARK    4  A    between atoms: C_19  and  C_21
REMARK                            x       y       z     vdW  Elec       q    Type
REMARK                         _______ _______ _______ _____ _____    ______ ____
ROOT
ATOM      1  N   UNL     1       0.688  -0.476  -1.203  0.00  0.00    -0.273 N 
ATOM      2  C   UNL     1      -0.085  -0.714  -2.423  0.00  0.00    +0.229 C 
ATOM      3  N   UNL     1       0.499  -1.822  -3.188  0.00  0.00    -0.319 N 
ATOM      4  C   UNL     1       1.881  -1.880  -3.333  0.00  0.00    +0.042 A 
ATOM      5  C   UNL     1       2.474  -2.463  -4.439  0.00  0.00    +0.043 A 
ATOM      6  C   UNL     1       3.853  -2.512  -4.531  0.00  0.00    +0.043 A 
ATOM      7  C   UNL     1       4.645  -1.982  -3.523  0.00  0.00    +0.021 A 
ATOM      8  C   UNL     1       4.069  -1.391  -2.417  0.00  0.00    +0.016 A 
ATOM      9  C   UNL     1       2.681  -1.329  -2.316  0.00  0.00    +0.058 A 
ATOM     10  C   UNL     1       2.020  -0.679  -1.170  0.00  0.00    +0.250 C 
ATOM     11  O   UNL     1       2.669  -0.333  -0.202  0.00  0.00    -0.270 OA
ATOM     12 CL   UNL     1       4.598  -3.243  -5.918  0.00  0.00    -0.083 Cl
ATOM     13  H   UNL     1      -0.068  -2.501  -3.586  0.00  0.00    +0.148 HD
ENDROOT
BRANCH   2  14
ATOM     14  C   UNL     1      -0.076   0.532  -3.270  0.00  0.00    +0.144 A 
ATOM     15  C   UNL     1      -0.156   0.572  -4.612  0.00  0.00    +0.048 A 
ATOM     16  C   UNL     1      -0.112   1.935  -4.985  0.00  0.00    +0.045 A 
ATOM     17  C   UNL     1      -0.008   2.647  -3.848  0.00  0.00    +0.102 A 
ATOM     18  O   UNL     1       0.008   1.792  -2.812  0.00  0.00    -0.461 OA
ATOM     19  C   UNL     1       0.072   4.149  -3.753  0.00  0.00    +0.086 C 
ENDBRANCH   2  14
BRANCH   1  21
ATOM     20  C   UNL     1      -0.019   1.526   0.010  0.00  0.00    +0.024 C 
ATOM     21  C   UNL     1       0.002  -0.004   0.002  0.00  0.00    +0.107 C 
ENDBRANCH   1  21
TORSDOF 2
