REMARK  Name = ZINC38705751
REMARK  13 active torsions:
REMARK  status: ('A' for Active; 'I' for Inactive)
REMARK    1  A    between atoms: C_1  and  C_2
REMARK    2  A    between atoms: C_4  and  C_38
REMARK    3  A    between atoms: C_5  and  C_9
REMARK    4  A    between atoms: C_6  and  O_8
REMARK    5  A    between atoms: N_17  and  C_32
REMARK    6  A    between atoms: C_18  and  C_20
REMARK    7  A    between atoms: C_24  and  O_26
REMARK    8  A    between atoms: O_26  and  C_27
REMARK    9  A    between atoms: C_27  and  C_28
REMARK   10  A    between atoms: C_28  and  C_29
REMARK   11  A    between atoms: C_29  and  C_30
REMARK   12  A    between atoms: C_29  and  C_31
REMARK   13  A    between atoms: C_32  and  C_33
REMARK                            x       y       z     vdW  Elec       q    Type
REMARK                         _______ _______ _______ _____ _____    ______ ____
ROOT
ATOM      1  C   UNL     1       0.196  -4.484  -0.142  0.00  0.00    +0.102 A 
ATOM      2  C   UNL     1       0.235  -5.230   1.042  0.00  0.00    +0.035 A 
ATOM      3  C   UNL     1       0.185  -6.555   0.653  0.00  0.00    +0.126 A 
ATOM      4  N   UNL     1       0.120  -6.548  -0.711  0.00  0.00    -0.272 N 
ATOM      5  H   UNL     1       0.074  -7.340  -1.270  0.00  0.00    +0.189 HD
ATOM      6  N   UNL     1       0.122  -5.338  -1.144  0.00  0.00    -0.173 NA
ATOM      7  C   UNL     1       0.222  -7.395   1.856  0.00  0.00    +0.266 C 
ATOM      8  O   UNL     1       0.193  -8.611   1.854  0.00  0.00    -0.268 OA
ATOM      9  N   UNL     1       0.292  -6.630   2.960  0.00  0.00    -0.278 N 
ATOM     10  C   UNL     1       0.306  -5.221   2.544  0.00  0.00    +0.142 C 
ENDROOT
BRANCH   1  15
ATOM     11  C   UNL     1       0.315   1.262  -0.563  0.00  0.00    +0.044 C 
ATOM     12  C   UNL     1       0.281  -0.240  -0.451  0.00  0.00    -0.047 A 
ATOM     13  C   UNL     1       1.147  -1.007  -1.211  0.00  0.00    +0.007 A 
ATOM     14  C   UNL     1       1.123  -2.384  -1.114  0.00  0.00    -0.037 A 
ATOM     15  C   UNL     1       0.226  -3.004  -0.249  0.00  0.00    +0.047 A 
ATOM     16  C   UNL     1      -0.647  -2.227   0.518  0.00  0.00    +0.127 A 
ATOM     17  C   UNL     1      -0.609  -0.846   0.415  0.00  0.00    +0.049 A 
ATOM     18  C   UNL     1       2.067  -3.214  -1.945  0.00  0.00    +0.044 C 
BRANCH  16  19
ATOM     19  O   UNL     1      -1.526  -2.824   1.365  0.00  0.00    -0.506 OA
ATOM     20  H   UNL     1      -1.212  -2.887   2.277  0.00  0.00    +0.292 HD
ENDBRANCH  16  19
ENDBRANCH   1  15
BRANCH  10  21
ATOM     21  C   UNL     1       1.581  -4.558   2.998  0.00  0.00    -0.019 A 
ATOM     22  C   UNL     1       2.799  -5.175   2.775  0.00  0.00    +0.006 A 
ATOM     23  C   UNL     1       3.970  -4.570   3.191  0.00  0.00    +0.004 A 
ATOM     24  C   UNL     1       3.926  -3.346   3.831  0.00  0.00    +0.045 A 
ATOM     25  C   UNL     1       2.707  -2.725   4.056  0.00  0.00    +0.121 A 
ATOM     26  C   UNL     1       1.533  -3.332   3.633  0.00  0.00    +0.051 A 
BRANCH  25  27
ATOM     27  O   UNL     1       2.662  -1.522   4.686  0.00  0.00    -0.492 OA
BRANCH  27  28
ATOM     28  C   UNL     1       3.909  -0.953   5.089  0.00  0.00    +0.229 C 
BRANCH  28  29
ATOM     29  C   UNL     1       3.659   0.391   5.776  0.00  0.00    +0.044 C 
BRANCH  29  30
ATOM     30  C   UNL     1       4.995   1.000   6.207  0.00  0.00    -0.014 C 
ATOM     31  C   UNL     1       5.830   1.327   4.968  0.00  0.00    +0.007 C 
ATOM     32  C   UNL     1       4.739   2.281   7.003  0.00  0.00    +0.007 C 
ENDBRANCH  29  30
ENDBRANCH  28  29
ENDBRANCH  27  28
ENDBRANCH  25  27
ENDBRANCH  10  21
BRANCH   9  33
ATOM     33  C   UNL     1       0.345  -7.117   4.340  0.00  0.00    +0.183 C 
BRANCH  33  34
ATOM     34  C   UNL     1       1.782  -7.319   4.747  0.00  0.00    +0.122 A 
ATOM     35  C   UNL     1       2.572  -6.397   5.327  0.00  0.00    +0.046 A 
ATOM     36  C   UNL     1       3.830  -7.008   5.534  0.00  0.00    +0.041 A 
ATOM     37  C   UNL     1       3.733  -8.266   5.069  0.00  0.00    +0.195 A 
ATOM     38  O   UNL     1       2.489  -8.451   4.599  0.00  0.00    -0.466 OA
ENDBRANCH  33  34
ENDBRANCH   9  33
TORSDOF 9
