REMARK  Name = ZINC25676545
REMARK  5 active torsions:
REMARK  status: ('A' for Active; 'I' for Inactive)
REMARK    1  A    between atoms: C_1  and  N_2
REMARK    2  A    between atoms: N_2  and  C_3
REMARK    3  A    between atoms: C_11  and  C_13
REMARK    4  A    between atoms: N_19  and  S_20
REMARK    5  A    between atoms: S_20  and  C_23
REMARK                            x       y       z     vdW  Elec       q    Type
REMARK                         _______ _______ _______ _____ _____    ______ ____
ROOT
ATOM      1  C   UNL     1      -3.651   1.717  -0.886  0.00  0.00    +0.166 C 
ATOM      2  C   UNL     1      -3.470   2.590  -2.132  0.00  0.00    +0.030 C 
ATOM      3  C   UNL     1      -4.791   2.651  -2.903  0.00  0.00    +0.003 C 
ATOM      4  C   UNL     1      -5.873   3.280  -2.022  0.00  0.00    +0.017 C 
ATOM      5  C   UNL     1      -6.080   2.412  -0.777  0.00  0.00    +0.110 C 
ATOM      6  N   UNL     1      -4.785   2.231  -0.106  0.00  0.00    -0.165 NA
ENDROOT
BRANCH   1   9
ATOM      7  C   UNL     1      -2.098  -0.617  -0.461  0.00  0.00    +0.132 C 
ATOM      8  N   UNL     1      -1.702   0.636   0.186  0.00  0.00    -0.299 N 
ATOM      9  C   UNL     1      -2.399   1.765  -0.049  0.00  0.00    +0.235 C 
ATOM     10  O   UNL     1      -2.019   2.820   0.413  0.00  0.00    -0.274 OA
BRANCH   8  11
ATOM     11  C   UNL     1      -0.548   0.662   1.089  0.00  0.00    +0.098 C 
ATOM     12  C   UNL     1      -0.801  -0.292   2.268  0.00  0.00    +0.046 C 
ATOM     13  C   UNL     1       0.540  -0.486   3.030  0.00  0.00    +0.168 C 
ATOM     14  S   UNL     1       1.716  -0.610   1.618  0.00  0.00    -0.029 S 
ATOM     15  O   UNL     1       1.879  -1.978   1.271  0.00  0.00    -0.174 OA
ATOM     16  O   UNL     1       2.863   0.182   1.898  0.00  0.00    -0.174 OA
ATOM     17  C   UNL     1       0.719   0.222   0.316  0.00  0.00    +0.188 C 
ENDBRANCH   8  11
ENDBRANCH   1   9
BRANCH   6  18
ATOM     18  S   UNL     1      -4.608   2.598   1.499  0.00  0.00    +0.062 S 
ATOM     19  O   UNL     1      -5.905   2.534   2.076  0.00  0.00    -0.153 OA
ATOM     20  O   UNL     1      -3.522   1.816   1.977  0.00  0.00    -0.153 OA
BRANCH  18  21
ATOM     21  C   UNL     1      -4.098   4.282   1.594  0.00  0.00    +0.106 A 
ATOM     22  C   UNL     1      -2.829   4.594   2.045  0.00  0.00    +0.029 A 
ATOM     23  C   UNL     1      -2.426   5.915   2.116  0.00  0.00    +0.017 A 
ATOM     24  C   UNL     1      -3.296   6.924   1.746  0.00  0.00    +0.018 A 
ATOM     25  C   UNL     1      -4.568   6.611   1.299  0.00  0.00    +0.017 A 
ATOM     26  C   UNL     1      -4.968   5.290   1.224  0.00  0.00    +0.029 A 
ATOM     27 BR   UNL     1      -2.749   8.731   1.849  0.00  0.00    -0.050 Br
ENDBRANCH  18  21
ENDBRANCH   6  18
TORSDOF 4
