REMARK  Name = ZINC55226439
REMARK  8 active torsions:
REMARK  status: ('A' for Active; 'I' for Inactive)
REMARK    1  A    between atoms: C_1  and  C_2
REMARK    2  A    between atoms: C_2  and  O_3
REMARK    3  A    between atoms: O_3  and  C_4
REMARK    4  A    between atoms: C_4  and  C_6
REMARK    5  A    between atoms: C_7  and  C_23
REMARK    6  A    between atoms: C_12  and  C_14
REMARK    7  A    between atoms: C_18  and  N_20
REMARK    8  A    between atoms: C_23  and  N_24
REMARK                            x       y       z     vdW  Elec       q    Type
REMARK                         _______ _______ _______ _____ _____    ______ ____
ROOT
ATOM      1  C   UNL     1      -2.795  -2.407   0.102  0.00  0.00    +0.079 C 
ATOM      2  C   UNL     1      -2.985  -3.731  -0.085  0.00  0.00    +0.038 C 
ATOM      3  N   UNL     1      -4.241  -4.259  -0.162  0.00  0.00    -0.271 N 
ATOM      4  C   UNL     1      -5.360  -3.530  -0.063  0.00  0.00    +0.304 C 
ATOM      5  O   UNL     1      -6.436  -4.090  -0.145  0.00  0.00    -0.252 OA
ATOM      6  N   UNL     1      -5.333  -2.196   0.125  0.00  0.00    -0.288 N 
ATOM      7  C   UNL     1      -4.024  -1.529   0.228  0.00  0.00    +0.144 C 
ATOM      8  H   UNL     1      -4.329  -5.215  -0.297  0.00  0.00    +0.156 HD
ATOM      9  H   UNL     1      -6.156  -1.687   0.193  0.00  0.00    +0.151 HD
ENDROOT
BRANCH   7  10
ATOM     10  C   UNL     1      -3.957  -0.478  -0.849  0.00  0.00    -0.020 A 
ATOM     11  C   UNL     1      -4.336  -0.788  -2.142  0.00  0.00    +0.006 A 
ATOM     12  C   UNL     1      -4.275   0.176  -3.130  0.00  0.00    +0.003 A 
ATOM     13  C   UNL     1      -3.834   1.451  -2.826  0.00  0.00    +0.033 A 
ATOM     14  C   UNL     1      -3.455   1.761  -1.533  0.00  0.00    +0.127 A 
ATOM     15  C   UNL     1      -3.521   0.798  -0.544  0.00  0.00    +0.038 A 
BRANCH  14  16
ATOM     16  N   UNL     1      -2.983   3.126  -1.208  0.00  0.00    +0.056 N 
ATOM     17  O   UNL     1      -2.929   3.969  -2.072  0.00  0.00    -0.126 OA
ATOM     18  O   UNL     1      -2.652   3.397  -0.077  0.00  0.00    -0.126 OA
ENDBRANCH  14  16
ENDBRANCH   7  10
BRANCH   1  19
ATOM     19  C   UNL     1      -1.494  -1.858   0.183  0.00  0.00    +0.339 C 
ATOM     20  O   UNL     1      -1.019  -1.575   1.268  0.00  0.00    -0.245 OA
BRANCH  19  21
ATOM     21  O   UNL     1      -0.778  -1.650  -0.942  0.00  0.00    -0.462 OA
BRANCH  21  23
ATOM     22  C   UNL     1       1.181  -0.930  -2.159  0.00  0.00    +0.048 C 
ATOM     23  C   UNL     1       0.529  -1.093  -0.785  0.00  0.00    +0.229 C 
ENDBRANCH  21  23
ENDBRANCH  19  21
ENDBRANCH   1  19
BRANCH   2  24
ATOM     24  C   UNL     1      -1.789  -4.640  -0.210  0.00  0.00    +0.135 C 
BRANCH  24  25
ATOM     25  N   UNL     1      -1.770  -5.582   0.917  0.00  0.00    -0.297 NA
ATOM     26  C   UNL     1      -1.549  -4.879   2.187  0.00  0.00    +0.085 C 
ATOM     27  C   UNL     1      -1.681  -5.867   3.349  0.00  0.00    +0.015 C 
ATOM     28  C   UNL     1      -0.651  -6.987   3.178  0.00  0.00    +0.002 C 
ATOM     29  C   UNL     1      -0.872  -7.672   1.826  0.00  0.00    +0.015 C 
ATOM     30  C   UNL     1      -0.765  -6.631   0.709  0.00  0.00    +0.085 C 
ENDBRANCH  24  25
ENDBRANCH   2  24
TORSDOF 7
