REMARK  Name = ZINC11910407
REMARK  6 active torsions:
REMARK  status: ('A' for Active; 'I' for Inactive)
REMARK    1  A    between atoms: C_9  and  C_12
REMARK    2  A    between atoms: C_17  and  C_18
REMARK    3  A    between atoms: C_17  and  N_52
REMARK    4  A    between atoms: C_18  and  N_19
REMARK    5  A    between atoms: C_20  and  C_22
REMARK    6  A    between atoms: C_22  and  C_23
REMARK                            x       y       z     vdW  Elec       q    Type
REMARK                         _______ _______ _______ _____ _____    ______ ____
ROOT
ATOM      1  C   UNL     1      -3.761  10.761  -6.433  0.00  0.00    +0.000 A 
ATOM      2  C   UNL     1      -3.656  11.883  -7.235  0.00  0.00    +0.004 A 
ATOM      3  C   UNL     1      -2.936  12.981  -6.804  0.00  0.00    +0.046 A 
ATOM      4  C   UNL     1      -2.317  12.953  -5.562  0.00  0.00    +0.123 A 
ATOM      5  C   UNL     1      -2.439  11.836  -4.757  0.00  0.00    -0.022 A 
ATOM      6  C   UNL     1      -3.153  10.737  -5.190  0.00  0.00    +0.005 A 
ATOM      7  C   UNL     1      -1.785  11.830  -3.390  0.00  0.00    -0.039 C 
ATOM      8  C   UNL     1       0.230  13.146  -3.765  0.00  0.00    -0.028 C 
ATOM      9  C   UNL     1      -0.153  13.769  -5.090  0.00  0.00    +0.188 C 
ATOM     10  O   UNL     1      -1.564  14.009  -5.149  0.00  0.00    -0.486 OA
ATOM     11  N   UNL     1      -0.317  11.783  -3.590  0.00  0.00    +0.386 N 
ATOM     12  H   UNL     1      -0.117  11.236  -4.436  0.00  0.00    -0.081 HD
ENDROOT
BRANCH   9  13
ATOM     13  C   UNL     1       0.580  15.076  -5.252  0.00  0.00    -0.002 A 
ATOM     14  C   UNL     1       1.732  15.145  -6.011  0.00  0.00    +0.015 A 
ATOM     15  C   UNL     1       2.367  16.337  -6.137  0.00  0.00    +0.045 A 
ATOM     16  S   UNL     1       1.327  17.413  -5.163  0.00  0.00    -0.105 S 
ATOM     17  C   UNL     1       0.115  16.203  -4.659  0.00  0.00    +0.052 A 
ENDBRANCH   9  13
BRANCH  11  18
ATOM     18  C   UNL     1       0.328  11.131  -2.438  0.00  0.00    -0.059 C 
BRANCH  18  19
ATOM     19  C   UNL     1      -0.059   9.650  -2.443  0.00  0.00    +0.085 C 
BRANCH  19  20
ATOM     20  N   UNL     1       0.595   8.972  -1.321  0.00  0.00    -0.317 N 
ATOM     21  C   UNL     1       0.399   7.653  -1.125  0.00  0.00    +0.219 C 
ATOM     22  O   UNL     1      -0.318   7.028  -1.877  0.00  0.00    -0.275 OA
ATOM     23  H   UNL     1       1.169   9.472  -0.720  0.00  0.00    +0.149 HD
BRANCH  21  24
ATOM     24  C   UNL     1       1.072   6.955   0.029  0.00  0.00    +0.152 C 
BRANCH  24  25
ATOM     25  C   UNL     1       0.691   5.497   0.025  0.00  0.00    +0.069 A 
ATOM     26  C   UNL     1       1.547   4.461   0.012  0.00  0.00    +0.117 A 
ATOM     27  N   UNL     1       0.795   3.290   0.013  0.00  0.00    -0.300 N 
ATOM     28  C   UNL     1       1.011   1.929   0.003  0.00  0.00    +0.100 A 
ATOM     29  C   UNL     1      -0.013   1.076   0.008  0.00  0.00    +0.067 A 
ATOM     30  S   UNL     1      -1.415   2.182   0.019  0.00  0.00    -0.058 S 
ATOM     31  C   UNL     1      -0.509   3.711   0.027  0.00  0.00    +0.178 A 
ATOM     32  N   UNL     1      -0.560   5.012   0.035  0.00  0.00    -0.226 NA
ENDBRANCH  24  25
ENDBRANCH  21  24
ENDBRANCH  19  20
ENDBRANCH  18  19
ENDBRANCH  11  18
TORSDOF 6
