REMARK  Name = ZINC12525284
REMARK  7 active torsions:
REMARK  status: ('A' for Active; 'I' for Inactive)
REMARK    1  A    between atoms: C_1  and  C_2
REMARK    2  A    between atoms: C_5  and  N_8
REMARK    3  A    between atoms: C_10  and  C_16
REMARK    4  A    between atoms: N_13  and  C_14
REMARK    5  A    between atoms: N_13  and  C_15
REMARK    6  A    between atoms: C_17  and  C_18
REMARK    7  A    between atoms: C_17  and  C_20
REMARK                            x       y       z     vdW  Elec       q    Type
REMARK                         _______ _______ _______ _____ _____    ______ ____
ROOT
ATOM      1  N   UNL     1       2.396   0.811  -0.173  0.00  0.00    -0.271 N 
ATOM      2  C   UNL     1       1.831  -0.396   0.130  0.00  0.00    +0.142 A 
ATOM      3  C   UNL     1       0.507  -0.147   0.436  0.00  0.00    +0.104 A 
ATOM      4  N   UNL     1       0.304   1.195   0.311  0.00  0.00    -0.213 NA
ATOM      5  C   UNL     1       1.425   1.765  -0.050  0.00  0.00    +0.204 A 
ATOM      6  N   UNL     1       1.599   3.119  -0.273  0.00  0.00    -0.307 N 
ATOM      7  C   UNL     1       0.802   3.570  -1.422  0.00  0.00    +0.132 C 
ATOM      8  C   UNL     1       1.275   3.896   0.930  0.00  0.00    +0.132 C 
ATOM      9 CL   UNL     1       2.623  -1.941   0.131  0.00  0.00    -0.061 Cl
ENDROOT
BRANCH   1  14
ATOM     10  C   UNL     1       7.797   1.701  -1.672  0.00  0.00    +0.044 C 
ATOM     11  C   UNL     1       6.363   1.465  -1.274  0.00  0.00    -0.050 A 
ATOM     12  C   UNL     1       5.524   0.752  -2.110  0.00  0.00    +0.005 A 
ATOM     13  C   UNL     1       4.209   0.533  -1.748  0.00  0.00    +0.026 A 
ATOM     14  C   UNL     1       3.730   1.031  -0.543  0.00  0.00    +0.051 A 
ATOM     15  C   UNL     1       4.574   1.751   0.291  0.00  0.00    +0.026 A 
ATOM     16  C   UNL     1       5.889   1.962  -0.074  0.00  0.00    +0.005 A 
ENDBRANCH   1  14
BRANCH   3  17
ATOM     17  C   UNL     1      -0.462  -1.111   0.810  0.00  0.00    +0.053 C 
ATOM     18  C   UNL     1      -1.755  -0.717   1.089  0.00  0.00    +0.096 C 
BRANCH  18  19
ATOM     19  C   UNL     1      -2.762  -1.718   1.478  0.00  0.00    +0.150 A 
ATOM     20  N   UNL     1      -4.072  -1.445   1.777  0.00  0.00    -0.337 N 
ATOM     21  H   UNL     1      -4.507  -0.545   1.770  0.00  0.00    +0.167 HD
ATOM     22  C   UNL     1      -4.679  -2.648   2.090  0.00  0.00    +0.066 A 
ATOM     23  C   UNL     1      -5.965  -3.007   2.465  0.00  0.00    +0.028 A 
ATOM     24  C   UNL     1      -6.260  -4.332   2.713  0.00  0.00    +0.002 A 
ATOM     25  C   UNL     1      -5.280  -5.306   2.590  0.00  0.00    +0.002 A 
ATOM     26  C   UNL     1      -4.007  -4.971   2.221  0.00  0.00    +0.030 A 
ATOM     27  C   UNL     1      -3.685  -3.634   1.965  0.00  0.00    +0.089 A 
ATOM     28  N   UNL     1      -2.544  -3.009   1.586  0.00  0.00    -0.227 NA
ENDBRANCH  18  19
BRANCH  18  29
ATOM     29  C   UNL     1      -2.117   0.666   1.000  0.00  0.00    +0.103 C 
ATOM     30  N   UNL     1      -2.404   1.763   0.929  0.00  0.00    -0.191 NA
ENDBRANCH  18  29
ENDBRANCH   3  17
TORSDOF 4
