REMARK  Name = ZINC63530669
REMARK  8 active torsions:
REMARK  status: ('A' for Active; 'I' for Inactive)
REMARK    1  A    between atoms: C_1  and  C_2
REMARK    2  A    between atoms: C_2  and  C_3
REMARK    3  A    between atoms: C_3  and  C_4
REMARK    4  A    between atoms: C_4  and  N_5
REMARK    5  A    between atoms: C_6  and  C_8
REMARK    6  A    between atoms: C_10  and  S_19
REMARK    7  A    between atoms: C_14  and  C_18
REMARK    8  A    between atoms: S_19  and  C_20
REMARK                            x       y       z     vdW  Elec       q    Type
REMARK                         _______ _______ _______ _____ _____    ______ ____
ROOT
ATOM      1  C   UNL     1       2.142  -3.936   3.464  0.00  0.00    +0.204 C 
ATOM      2  C   UNL     1       1.417  -4.158   4.774  0.00  0.00    +0.030 C 
ATOM      3  C   UNL     1       1.506  -5.523   5.025  0.00  0.00    +0.010 A 
ATOM      4  C   UNL     1       1.029  -6.330   6.082  0.00  0.00    +0.011 A 
ATOM      5  C   UNL     1       1.268  -7.667   6.069  0.00  0.00    +0.004 A 
ATOM      6  C   UNL     1       1.978  -8.272   5.031  0.00  0.00    -0.048 A 
ATOM      7  C   UNL     1       2.464  -7.558   3.985  0.00  0.00    +0.029 A 
ATOM      8  C   UNL     1       2.254  -6.157   3.929  0.00  0.00    +0.044 A 
ATOM      9  N   UNL     1       2.619  -5.254   3.036  0.00  0.00    -0.369 N 
ATOM     10  C   UNL     1       2.212  -9.760   5.074  0.00  0.00    +0.044 C 
ATOM     11  H   UNL     1       3.123  -5.434   2.227  0.00  0.00    +0.161 HD
ENDROOT
BRANCH   1  13
ATOM     12  N   UNL     1       0.915  -2.050   2.437  0.00  0.00    -0.313 N 
ATOM     13  C   UNL     1       1.196  -3.368   2.438  0.00  0.00    +0.240 C 
ATOM     14  O   UNL     1       0.688  -4.097   1.613  0.00  0.00    -0.273 OA
ATOM     15  H   UNL     1       1.321  -1.467   3.097  0.00  0.00    +0.149 HD
BRANCH  12  16
ATOM     16  C   UNL     1      -0.004  -1.497   1.439  0.00  0.00    +0.104 C 
BRANCH  16  17
ATOM     17  C   UNL     1      -0.149   0.010   1.657  0.00  0.00    +0.018 C 
BRANCH  17  19
ATOM     18  C   UNL     1      -1.254   2.094   0.833  0.00  0.00    +0.004 C 
ATOM     19  C   UNL     1      -1.109   0.587   0.615  0.00  0.00    -0.002 C 
ENDBRANCH  17  19
ENDBRANCH  16  17
ENDBRANCH  12  16
ENDBRANCH   1  13
BRANCH   2  20
ATOM     20  S   UNL     1       0.672  -3.011   5.714  0.00  0.00    -0.091 S 
BRANCH  20  21
ATOM     21  C   UNL     1       2.002  -2.026   6.318  0.00  0.00    +0.013 A 
ATOM     22  C   UNL     1       3.316  -2.399   6.065  0.00  0.00    +0.016 A 
ATOM     23  C   UNL     1       4.356  -1.625   6.539  0.00  0.00    +0.021 A 
ATOM     24  C   UNL     1       4.091  -0.478   7.267  0.00  0.00    +0.041 A 
ATOM     25  C   UNL     1       2.783  -0.103   7.521  0.00  0.00    +0.021 A 
ATOM     26  C   UNL     1       1.738  -0.871   7.044  0.00  0.00    +0.016 A 
ATOM     27 CL   UNL     1       5.401   0.492   7.863  0.00  0.00    -0.084 Cl
ENDBRANCH  20  21
ENDBRANCH   2  20
TORSDOF 6
