REMARK  Name = ZINC02087702
REMARK  6 active torsions:
REMARK  status: ('A' for Active; 'I' for Inactive)
REMARK    1  A    between atoms: C_1  and  O_2
REMARK    2  A    between atoms: O_2  and  C_3
REMARK    3  A    between atoms: C_6  and  C_11
REMARK    4  A    between atoms: C_7  and  O_9
REMARK    5  A    between atoms: O_9  and  C_10
REMARK    6  A    between atoms: C_20  and  C_23
REMARK                            x       y       z     vdW  Elec       q    Type
REMARK                         _______ _______ _______ _____ _____    ______ ____
ROOT
ATOM      1  C   UNL     1       2.288   5.335   0.295  0.00  0.00    +0.240 C 
ATOM      2  N   UNL     1       2.350   3.895  -0.005  0.00  0.00    -0.315 N 
ATOM      3  C   UNL     1       1.151   3.171   0.009  0.00  0.00    +0.035 A 
ATOM      4  C   UNL     1       1.174   1.783   0.000  0.00  0.00    +0.025 A 
ATOM      5  C   UNL     1      -0.013   1.076   0.008  0.00  0.00    +0.022 A 
ATOM      6  C   UNL     1      -1.220   1.752   0.017  0.00  0.00    +0.041 A 
ATOM      7  C   UNL     1      -1.244   3.135   0.032  0.00  0.00    +0.028 A 
ATOM      8  C   UNL     1      -0.060   3.849   0.026  0.00  0.00    +0.008 A 
ATOM      9  C   UNL     1      -0.094   5.355   0.041  0.00  0.00    +0.183 C 
ATOM     10  O   UNL     1       1.159   5.880  -0.399  0.00  0.00    -0.342 OA
ATOM     11 CL   UNL     1      -2.710   0.861   0.018  0.00  0.00    -0.084 Cl
ATOM     12  H   UNL     1       3.194   3.462  -0.206  0.00  0.00    +0.149 HD
ENDROOT
BRANCH   1  16
ATOM     13  C   UNL     1       5.872   7.249  -1.040  0.00  0.00    +0.124 A 
ATOM     14  C   UNL     1       5.574   5.958  -1.455  0.00  0.00    +0.046 A 
ATOM     15  C   UNL     1       4.418   5.340  -1.018  0.00  0.00    +0.015 A 
ATOM     16  C   UNL     1       3.551   6.009  -0.176  0.00  0.00    +0.041 A 
ATOM     17  C   UNL     1       3.845   7.300   0.242  0.00  0.00    +0.131 A 
ATOM     18  C   UNL     1       5.007   7.920  -0.191  0.00  0.00    +0.091 A 
BRANCH  13  20
ATOM     19  C   UNL     1       7.858   7.103  -2.340  0.00  0.00    +0.277 C 
ATOM     20  O   UNL     1       7.012   7.854  -1.467  0.00  0.00    -0.495 OA
ENDBRANCH  13  20
BRANCH  17  21
ATOM     21  O   UNL     1       2.994   7.955   1.075  0.00  0.00    -0.495 OA
ATOM     22  C   UNL     1       3.359   9.280   1.464  0.00  0.00    +0.277 C 
ENDBRANCH  17  21
ENDBRANCH   1  16
BRANCH   9  23
ATOM     23  C   UNL     1      -1.185   5.839  -0.879  0.00  0.00    -0.014 A 
ATOM     24  C   UNL     1      -0.965   5.895  -2.243  0.00  0.00    +0.006 A 
ATOM     25  C   UNL     1      -1.968   6.335  -3.087  0.00  0.00    +0.000 A 
ATOM     26  C   UNL     1      -3.187   6.728  -2.566  0.00  0.00    +0.000 A 
ATOM     27  C   UNL     1      -3.405   6.676  -1.202  0.00  0.00    +0.000 A 
ATOM     28  C   UNL     1      -2.404   6.232  -0.358  0.00  0.00    +0.006 A 
ENDBRANCH   9  23
TORSDOF 4
