REMARK  Name = ZINC01407948
REMARK  13 active torsions:
REMARK  status: ('A' for Active; 'I' for Inactive)
REMARK    1  A    between atoms: C_1  and  C_2
REMARK    2  A    between atoms: C_4  and  C_43
REMARK    3  A    between atoms: C_6  and  S_8
REMARK    4  A    between atoms: S_8  and  C_9
REMARK    5  A    between atoms: C_9  and  C_10
REMARK    6  A    between atoms: N_12  and  C_13
REMARK    7  A    between atoms: N_12  and  C_22
REMARK    8  A    between atoms: C_13  and  C_14
REMARK    9  A    between atoms: C_17  and  O_20
REMARK   10  A    between atoms: O_20  and  C_21
REMARK   11  A    between atoms: C_22  and  C_24
REMARK   12  A    between atoms: C_22  and  C_31
REMARK   13  A    between atoms: N_33  and  C_34
REMARK                            x       y       z     vdW  Elec       q    Type
REMARK                         _______ _______ _______ _____ _____    ______ ____
ROOT
ATOM      1  C   UNL     1       6.785  -1.131   0.138  0.00  0.00    +0.227 C 
ATOM      2  O   UNL     1       7.263  -2.241   0.247  0.00  0.00    -0.275 OA
ATOM      3  N   UNL     1       7.592  -0.052   0.092  0.00  0.00    -0.285 N 
ENDROOT
BRANCH   1   4
ATOM      4  C   UNL     1       5.291  -0.959   0.053  0.00  0.00    +0.173 C 
BRANCH   4   5
ATOM      5  S   UNL     1       4.493  -2.583   0.080  0.00  0.00    -0.077 S 
BRANCH   5  11
ATOM      6  C   UNL     1      -0.482  -3.763  -0.127  0.00  0.00    +0.066 C 
ATOM      7  C   UNL     1       0.583  -2.697  -0.117  0.00  0.00    +0.043 A 
ATOM      8  C   UNL     1       0.236  -1.357  -0.192  0.00  0.00    +0.046 A 
ATOM      9  C   UNL     1       1.246  -0.408  -0.180  0.00  0.00    +0.043 A 
ATOM     10  N   UNL     1       2.505  -0.807  -0.098  0.00  0.00    -0.227 NA
ATOM     11  C   UNL     1       2.803  -2.096  -0.028  0.00  0.00    +0.189 A 
ATOM     12  N   UNL     1       1.861  -3.029  -0.037  0.00  0.00    -0.227 NA
ATOM     13  C   UNL     1       0.915   1.060  -0.259  0.00  0.00    +0.066 C 
ENDBRANCH   5  11
ENDBRANCH   4   5
ENDBRANCH   1   4
BRANCH   3  14
ATOM     14  C   UNL     1       7.014   1.292   0.027  0.00  0.00    +0.143 C 
BRANCH  14  15
ATOM     15  C   UNL     1       6.905   1.861   1.418  0.00  0.00    -0.030 A 
ATOM     16  C   UNL     1       5.753   1.664   2.156  0.00  0.00    +0.009 A 
ATOM     17  C   UNL     1       5.653   2.179   3.434  0.00  0.00    +0.046 A 
ATOM     18  C   UNL     1       6.706   2.904   3.972  0.00  0.00    +0.120 A 
ATOM     19  C   UNL     1       7.859   3.105   3.228  0.00  0.00    +0.046 A 
ATOM     20  C   UNL     1       7.957   2.583   1.952  0.00  0.00    +0.009 A 
BRANCH  18  21
ATOM     21  O   UNL     1       6.608   3.418   5.227  0.00  0.00    -0.495 OA
ATOM     22  C   UNL     1       5.392   3.172   5.935  0.00  0.00    +0.277 C 
ENDBRANCH  18  21
ENDBRANCH  14  15
ENDBRANCH   3  14
BRANCH   3  23
ATOM     23  C   UNL     1       9.047  -0.224   0.108  0.00  0.00    +0.166 C 
BRANCH  23  24
ATOM     24  C   UNL     1       9.448  -1.063   1.323  0.00  0.00    +0.023 C 
ATOM     25  C   UNL     1       8.933  -0.395   2.604  0.00  0.00    +0.010 C 
ATOM     26  C   UNL     1       9.195  -1.336   3.780  0.00  0.00    +0.027 C 
ATOM     27  C   UNL     1      10.616  -1.819   3.755  0.00  0.00    -0.031 C 
ATOM     28  C   UNL     1      11.388  -1.746   2.718  0.00  0.00    -0.031 C 
ATOM     29  C   UNL     1      10.973  -1.159   1.401  0.00  0.00    +0.032 C 
ENDBRANCH  23  24
BRANCH  23  30
ATOM     30  C   UNL     1       9.483  -0.925  -1.153  0.00  0.00    +0.238 C 
ATOM     31  O   UNL     1       8.662  -1.471  -1.859  0.00  0.00    -0.273 OA
ATOM     32  N   UNL     1      10.787  -0.945  -1.496  0.00  0.00    -0.284 N 
ATOM     33  H   UNL     1      11.454  -0.589  -0.888  0.00  0.00    +0.155 HD
BRANCH  32  34
ATOM     34  C   UNL     1      11.178  -1.481  -2.730  0.00  0.00    +0.037 A 
ATOM     35  C   UNL     1      10.353  -1.345  -3.838  0.00  0.00    +0.027 A 
ATOM     36  C   UNL     1      10.738  -1.873  -5.056  0.00  0.00    +0.051 A 
ATOM     37  C   UNL     1      11.947  -2.539  -5.175  0.00  0.00    +0.166 A 
ATOM     38  C   UNL     1      12.777  -2.676  -4.064  0.00  0.00    +0.168 A 
ATOM     39  C   UNL     1      12.393  -2.142  -2.845  0.00  0.00    +0.072 A 
ATOM     40  O   UNL     1      13.896  -3.363  -4.438  0.00  0.00    -0.453 OA
ATOM     41  C   UNL     1      13.559  -3.999  -5.685  0.00  0.00    +0.466 C 
ATOM     42  O   UNL     1      12.547  -3.140  -6.244  0.00  0.00    -0.453 OA
ENDBRANCH  32  34
ENDBRANCH  23  30
ENDBRANCH   3  23
TORSDOF 10
