REMARK  Name = ZINC14560477
REMARK  11 active torsions:
REMARK  status: ('A' for Active; 'I' for Inactive)
REMARK    1  A    between atoms: C_1  and  C_2
REMARK    2  A    between atoms: C_2  and  C_3
REMARK    3  A    between atoms: C_3  and  C_4
REMARK    4  A    between atoms: C_4  and  C_5
REMARK    5  A    between atoms: C_5  and  C_6
REMARK    6  A    between atoms: N_8  and  C_9
REMARK    7  A    between atoms: C_13  and  N_15
REMARK    8  A    between atoms: N_15  and  C_16
REMARK    9  A    between atoms: C_16  and  N_18
REMARK   10  A    between atoms: C_19  and  C_21
REMARK   11  A    between atoms: C_22  and  C_23
REMARK                            x       y       z     vdW  Elec       q    Type
REMARK                         _______ _______ _______ _____ _____    ______ ____
ROOT
ATOM      1  N   UNL     1       2.299  -2.718  -0.014  0.00  0.00    -0.297 N 
ATOM      2  H   UNL     1       2.853  -2.205  -0.624  0.00  0.00    +0.154 HD
ENDROOT
BRANCH   1   7
ATOM      3  C   UNL     1       3.832  -6.060   0.146  0.00  0.00    +0.035 A 
ATOM      4  C   UNL     1       2.700  -6.864   0.190  0.00  0.00    +0.023 A 
ATOM      5  C   UNL     1       1.443  -6.291   0.166  0.00  0.00    +0.004 A 
ATOM      6  C   UNL     1       1.308  -4.917   0.099  0.00  0.00    +0.023 A 
ATOM      7  C   UNL     1       2.437  -4.108   0.055  0.00  0.00    +0.034 A 
ATOM      8  C   UNL     1       3.700  -4.681   0.073  0.00  0.00    +0.046 A 
BRANCH   3  11
ATOM      9  C   UNL     1       5.323  -7.813  -0.460  0.00  0.00    +0.217 C 
ATOM     10  O   UNL     1       4.405  -8.389  -1.004  0.00  0.00    -0.275 OA
ATOM     11  N   UNL     1       5.105  -6.642   0.171  0.00  0.00    -0.285 N 
ATOM     12  H   UNL     1       5.830  -6.202   0.642  0.00  0.00    +0.155 HD
BRANCH   9  13
ATOM     13  C   UNL     1       6.708  -8.407  -0.488  0.00  0.00    +0.096 C 
BRANCH  13  14
ATOM     14  C   UNL     1       6.681  -9.727  -1.262  0.00  0.00    +0.009 C 
BRANCH  14  15
ATOM     15  C   UNL     1       8.086 -10.329  -1.291  0.00  0.00    +0.000 C 
BRANCH  15  17
ATOM     16  C   UNL     1       9.465 -12.252  -2.094  0.00  0.00    +0.004 C 
ATOM     17  C   UNL     1       8.059 -11.649  -2.064  0.00  0.00    -0.003 C 
ENDBRANCH  15  17
ENDBRANCH  14  15
ENDBRANCH  13  14
ENDBRANCH   9  13
ENDBRANCH   3  11
ENDBRANCH   1   7
BRANCH   1  18
ATOM     18  C   UNL     1       1.398  -2.091   0.767  0.00  0.00    +0.141 C 
ATOM     19  S   UNL     1       0.355  -3.002   1.773  0.00  0.00    -0.018 S 
BRANCH  18  20
ATOM     20  N   UNL     1       1.318  -0.745   0.756  0.00  0.00    -0.264 N 
ATOM     21  C   UNL     1       0.416  -0.118   1.538  0.00  0.00    +0.242 C 
ATOM     22  O   UNL     1      -0.325  -0.766   2.253  0.00  0.00    -0.270 OA
ATOM     23  H   UNL     1       1.908  -0.229   0.186  0.00  0.00    +0.157 HD
BRANCH  21  24
ATOM     24  C   UNL     1       0.329   1.342   1.526  0.00  0.00    +0.068 C 
ATOM     25  C   UNL     1      -0.577   1.970   2.304  0.00  0.00    +0.013 C 
BRANCH  25  26
ATOM     26  C   UNL     1      -0.665   3.439   2.292  0.00  0.00    -0.025 A 
ATOM     27  C   UNL     1       0.194   4.188   1.480  0.00  0.00    +0.009 A 
ATOM     28  C   UNL     1       0.102   5.563   1.470  0.00  0.00    +0.020 A 
ATOM     29  C   UNL     1      -0.830   6.205   2.270  0.00  0.00    +0.041 A 
ATOM     30  C   UNL     1      -1.679   5.470   3.081  0.00  0.00    +0.020 A 
ATOM     31  C   UNL     1      -1.603   4.093   3.097  0.00  0.00    +0.009 A 
ATOM     32 CL   UNL     1      -0.933   7.937   2.256  0.00  0.00    -0.084 Cl
ENDBRANCH  25  26
ENDBRANCH  21  24
ENDBRANCH  18  20
ENDBRANCH   1  18
TORSDOF 10
