REMARK  Name = ZINC59305206
REMARK  9 active torsions:
REMARK  status: ('A' for Active; 'I' for Inactive)
REMARK    1  A    between atoms: C_1  and  C_2
REMARK    2  A    between atoms: C_2  and  O_3
REMARK    3  A    between atoms: O_3  and  C_4
REMARK    4  A    between atoms: C_6  and  C_14
REMARK    5  A    between atoms: C_9  and  O_10
REMARK    6  A    between atoms: O_10  and  C_11
REMARK    7  A    between atoms: C_11  and  C_12
REMARK    8  A    between atoms: N_15  and  N_16
REMARK    9  A    between atoms: C_17  and  C_19
REMARK                            x       y       z     vdW  Elec       q    Type
REMARK                         _______ _______ _______ _____ _____    ______ ____
ROOT
ATOM      1  C   UNL     1      -0.211  -4.964   0.448  0.00  0.00    +0.139 C 
ATOM      2  N   UNL     1      -0.107  -6.248   0.288  0.00  0.00    -0.187 NA
ENDROOT
BRANCH   1   5
ATOM      3  C   UNL     1       0.777  -1.811  -1.336  0.00  0.00    +0.163 A 
ATOM      4  C   UNL     1       0.244  -2.665  -0.389  0.00  0.00    +0.060 A 
ATOM      5  C   UNL     1       0.355  -4.048  -0.559  0.00  0.00    +0.012 A 
ATOM      6  C   UNL     1       1.004  -4.560  -1.687  0.00  0.00    +0.030 A 
ATOM      7  C   UNL     1       1.532  -3.701  -2.627  0.00  0.00    +0.065 A 
ATOM      8  C   UNL     1       1.417  -2.329  -2.460  0.00  0.00    +0.163 A 
ATOM      9 BR   UNL     1       1.157  -6.430  -1.922  0.00  0.00    -0.050 Br
BRANCH   3  10
ATOM     10  O   UNL     1       0.671  -0.465  -1.174  0.00  0.00    -0.489 OA
BRANCH  10  12
ATOM     11  C   UNL     1      -0.019   1.526   0.010  0.00  0.00    +0.048 C 
ATOM     12  C   UNL     1       0.002  -0.004   0.002  0.00  0.00    +0.226 C 
ENDBRANCH  10  12
ENDBRANCH   3  10
BRANCH   8  13
ATOM     13  O   UNL     1       1.935  -1.486  -3.393  0.00  0.00    -0.489 OA
BRANCH  13  14
ATOM     14  C   UNL     1       2.578  -2.083  -4.521  0.00  0.00    +0.226 C 
ATOM     15  C   UNL     1       3.094  -0.986  -5.454  0.00  0.00    +0.048 C 
ENDBRANCH  13  14
ENDBRANCH   8  13
ENDBRANCH   1   5
BRANCH   2  16
ATOM     16  N   UNL     1      -0.645  -7.118   1.246  0.00  0.00    -0.200 N 
ATOM     17  C   UNL     1      -0.537  -8.451   1.080  0.00  0.00    +0.299 C 
ATOM     18  O   UNL     1       0.027  -8.899   0.099  0.00  0.00    -0.265 OA
ATOM     19  H   UNL     1      -1.095  -6.761   2.027  0.00  0.00    +0.178 HD
BRANCH  17  20
ATOM     20  C   UNL     1      -1.101  -9.364   2.084  0.00  0.00    +0.192 A 
ATOM     21  C   UNL     1      -1.048 -10.720   2.025  0.00  0.00    +0.063 A 
ATOM     22  C   UNL     1      -1.730 -11.205   3.224  0.00  0.00    +0.022 A 
ATOM     23  C   UNL     1      -2.009 -12.473   3.740  0.00  0.00    +0.027 A 
ATOM     24  C   UNL     1      -2.686 -12.589   4.922  0.00  0.00    +0.019 A 
ATOM     25  C   UNL     1      -3.099 -11.456   5.611  0.00  0.00    +0.019 A 
ATOM     26  C   UNL     1      -2.833 -10.197   5.118  0.00  0.00    +0.048 A 
ATOM     27  C   UNL     1      -2.145 -10.054   3.918  0.00  0.00    +0.136 A 
ATOM     28  O   UNL     1      -1.745  -8.982   3.206  0.00  0.00    -0.450 OA
ATOM     29 BR   UNL     1      -3.065 -14.304   5.623  0.00  0.00    -0.050 Br
ENDBRANCH  17  20
ENDBRANCH   2  16
TORSDOF 7
