REMARK  Name = ZINC65482957
REMARK  8 active torsions:
REMARK  status: ('A' for Active; 'I' for Inactive)
REMARK    1  A    between atoms: C_1  and  C_2
REMARK    2  A    between atoms: C_2  and  N_3
REMARK    3  A    between atoms: N_3  and  C_4
REMARK    4  A    between atoms: N_3  and  C_6
REMARK    5  A    between atoms: C_4  and  C_5
REMARK    6  A    between atoms: C_6  and  C_7
REMARK    7  A    between atoms: C_6  and  C_23
REMARK    8  A    between atoms: C_7  and  N_8
REMARK                            x       y       z     vdW  Elec       q    Type
REMARK                         _______ _______ _______ _____ _____    ______ ____
ROOT
ATOM      1  N   UNL     1       0.805  -1.843   3.566  0.00  0.00    -0.300 N 
ATOM      2  C   UNL     1       1.314  -2.045   4.798  0.00  0.00    +0.302 C 
ATOM      3  O   UNL     1       2.431  -2.506   4.926  0.00  0.00    -0.253 OA
ATOM      4  N   UNL     1       0.584  -1.736   5.888  0.00  0.00    -0.283 N 
ATOM      5  C   UNL     1      -0.808  -1.283   5.752  0.00  0.00    +0.128 C 
ATOM      6  C   UNL     1      -1.704  -2.194   6.600  0.00  0.00    +0.125 C 
ATOM      7  N   UNL     1      -1.123  -2.303   7.946  0.00  0.00    -0.314 N 
ATOM      8  C   UNL     1       0.268  -2.755   8.082  0.00  0.00    +0.125 C 
ATOM      9  C   UNL     1       1.163  -1.850   7.234  0.00  0.00    +0.128 C 
ATOM     10  C   UNL     1      -1.876  -1.984   9.070  0.00  0.00    +0.099 A 
ATOM     11  C   UNL     1      -3.230  -1.693   8.933  0.00  0.00    +0.042 A 
ATOM     12  C   UNL     1      -3.967  -1.377  10.059  0.00  0.00    +0.005 A 
ATOM     13  C   UNL     1      -3.324  -1.362  11.290  0.00  0.00    +0.018 A 
ATOM     14  C   UNL     1      -1.978  -1.660  11.353  0.00  0.00    +0.084 A 
ATOM     15  N   UNL     1      -1.300  -1.964  10.262  0.00  0.00    -0.350 N 
ATOM     16  H   UNL     1      -0.057  -1.410   3.462  0.00  0.00    +0.150 HD
ATOM     17  H   UNL     1      -0.356  -2.173  10.334  0.00  0.00    +0.166 HD
ENDROOT
BRANCH   1  18
ATOM     18  C   UNL     1       1.553  -2.279   2.384  0.00  0.00    +0.098 C 
BRANCH  18  19
ATOM     19  C   UNL     1       0.821  -1.822   1.121  0.00  0.00    +0.016 C 
BRANCH  19  20
ATOM     20  C   UNL     1       1.625  -2.210  -0.093  0.00  0.00    +0.093 A 
ATOM     21  C   UNL     1       1.298  -3.167  -0.980  0.00  0.00    +0.043 A 
ATOM     22  C   UNL     1       2.326  -3.194  -1.951  0.00  0.00    +0.041 A 
ATOM     23  C   UNL     1       3.219  -2.252  -1.599  0.00  0.00    +0.195 A 
ATOM     24  O   UNL     1       2.787  -1.655  -0.476  0.00  0.00    -0.469 OA
ENDBRANCH  19  20
BRANCH  19  25
ATOM     25  N   UNL     1       0.655  -0.363   1.152  0.00  0.00    +0.387 N 
ATOM     26  H   UNL     1       0.113  -0.104   1.963  0.00  0.00    -0.081 HD
BRANCH  25  28
ATOM     27  C   UNL     1       1.799   1.787   1.408  0.00  0.00    -0.017 C 
ATOM     28  C   UNL     1       1.974   0.279   1.219  0.00  0.00    -0.081 C 
ENDBRANCH  25  28
BRANCH  25  29
ATOM     29  C   UNL     1      -0.043   0.076  -0.064  0.00  0.00    -0.081 C 
ATOM     30  C   UNL     1      -1.467  -0.482  -0.065  0.00  0.00    -0.017 C 
ENDBRANCH  25  29
ENDBRANCH  19  25
ENDBRANCH  18  19
ENDBRANCH   1  18
TORSDOF 6
