REMARK  Name = ZINC39707269
REMARK  7 active torsions:
REMARK  status: ('A' for Active; 'I' for Inactive)
REMARK    1  A    between atoms: C_7  and  C_19
REMARK    2  A    between atoms: N_10  and  C_11
REMARK    3  A    between atoms: C_11  and  C_12
REMARK    4  A    between atoms: C_19  and  C_20
REMARK    5  A    between atoms: N_22  and  C_23
REMARK    6  A    between atoms: C_23  and  C_24
REMARK    7  A    between atoms: C_24  and  C_25
REMARK                            x       y       z     vdW  Elec       q    Type
REMARK                         _______ _______ _______ _____ _____    ______ ____
ROOT
ATOM      1  C   UNL     1       0.490   1.486   0.093  0.00  0.00    +0.000 A 
ATOM      2  C   UNL     1       1.715   2.094   0.299  0.00  0.00    +0.002 A 
ATOM      3  C   UNL     1       2.855   1.330   0.429  0.00  0.00    +0.023 A 
ATOM      4  C   UNL     1       2.782  -0.063   0.355  0.00  0.00    +0.034 A 
ATOM      5  C   UNL     1       1.549  -0.662   0.149  0.00  0.00    -0.021 A 
ATOM      6  C   UNL     1       0.409   0.108   0.019  0.00  0.00    +0.006 A 
ATOM      7  C   UNL     1       1.743  -2.161   0.110  0.00  0.00    +0.047 C 
ATOM      8  C   UNL     1       3.253  -2.360   0.320  0.00  0.00    +0.114 C 
ATOM      9  N   UNL     1       3.803  -1.009   0.460  0.00  0.00    -0.325 N 
ENDROOT
BRANCH   9  10
ATOM     10  C   UNL     1       5.217  -0.697   0.679  0.00  0.00    +0.140 C 
BRANCH  10  11
ATOM     11  C   UNL     1       5.499  -0.654   2.159  0.00  0.00    -0.030 A 
ATOM     12  C   UNL     1       5.363   0.534   2.853  0.00  0.00    +0.006 A 
ATOM     13  C   UNL     1       5.621   0.575   4.210  0.00  0.00    +0.020 A 
ATOM     14  C   UNL     1       6.016  -0.573   4.874  0.00  0.00    +0.041 A 
ATOM     15  C   UNL     1       6.153  -1.762   4.178  0.00  0.00    +0.020 A 
ATOM     16  C   UNL     1       5.888  -1.802   2.822  0.00  0.00    +0.006 A 
ATOM     17 CL   UNL     1       6.342  -0.523   6.578  0.00  0.00    -0.084 Cl
ENDBRANCH  10  11
ENDBRANCH   9  10
BRANCH   7  18
ATOM     18  C   UNL     1       0.952  -2.831   1.234  0.00  0.00    +0.105 C 
BRANCH  18  19
ATOM     19  C   UNL     1       1.046  -4.329   1.092  0.00  0.00    +0.214 C 
ATOM     20  O   UNL     1       1.596  -4.812   0.125  0.00  0.00    -0.276 OA
ATOM     21  N   UNL     1       0.520  -5.130   2.038  0.00  0.00    -0.315 N 
ATOM     22  H   UNL     1       0.080  -4.744   2.812  0.00  0.00    +0.149 HD
BRANCH  21  23
ATOM     23  C   UNL     1       0.612  -6.586   1.900  0.00  0.00    +0.109 C 
BRANCH  23  24
ATOM     24  C   UNL     1      -0.059  -7.256   3.100  0.00  0.00    +0.056 C 
BRANCH  24  25
ATOM     25  C   UNL     1       0.035  -8.753   2.958  0.00  0.00    -0.021 A 
ATOM     26  C   UNL     1       1.161  -9.598   3.363  0.00  0.00    +0.003 A 
ATOM     27  C   UNL     1       2.400  -9.345   3.955  0.00  0.00    +0.010 A 
ATOM     28  C   UNL     1       3.253 -10.381   4.213  0.00  0.00    +0.001 A 
ATOM     29  C   UNL     1       2.898 -11.684   3.890  0.00  0.00    +0.002 A 
ATOM     30  C   UNL     1       1.680 -11.956   3.305  0.00  0.00    +0.026 A 
ATOM     31  C   UNL     1       0.796 -10.916   3.034  0.00  0.00    +0.047 A 
ATOM     32  N   UNL     1      -0.460 -10.862   2.473  0.00  0.00    -0.360 N 
ATOM     33  C   UNL     1      -0.899  -9.567   2.441  0.00  0.00    +0.087 A 
ATOM     34  H   UNL     1      -0.960 -11.629   2.151  0.00  0.00    +0.165 HD
ENDBRANCH  24  25
ENDBRANCH  23  24
ENDBRANCH  21  23
ENDBRANCH  18  19
ENDBRANCH   7  18
TORSDOF 7
