REMARK  Name = ZINC05139107
REMARK  5 active torsions:
REMARK  status: ('A' for Active; 'I' for Inactive)
REMARK    1  A    between atoms: C_3  and  N_15
REMARK    2  A    between atoms: C_6  and  C_7
REMARK    3  A    between atoms: C_7  and  N_8
REMARK    4  A    between atoms: N_15  and  C_16
REMARK    5  A    between atoms: C_16  and  C_17
REMARK                            x       y       z     vdW  Elec       q    Type
REMARK                         _______ _______ _______ _____ _____    ______ ____
ROOT
ATOM      1  C   UNL     1       1.248  -5.854  -3.234  0.00  0.00    +0.007 A 
ATOM      2  C   UNL     1       1.232  -4.497  -2.978  0.00  0.00    +0.023 A 
ATOM      3  C   UNL     1       1.238  -4.039  -1.666  0.00  0.00    +0.027 A 
ATOM      4  C   UNL     1       1.265  -4.948  -0.617  0.00  0.00    +0.023 A 
ATOM      5  C   UNL     1       1.276  -6.304  -0.879  0.00  0.00    +0.007 A 
ATOM      6  C   UNL     1       1.270  -6.757  -2.186  0.00  0.00    -0.030 A 
ENDROOT
BRANCH   3   7
ATOM      7  N   UNL     1       1.222  -2.667  -1.404  0.00  0.00    -0.340 N 
ATOM      8  H   UNL     1       1.204  -1.948  -2.236  0.00  0.00    +0.146 HD
BRANCH   7   9
ATOM      9  C   UNL     1       1.228  -2.186  -0.020  0.00  0.00    +0.136 C 
BRANCH   9  10
ATOM     10  C   UNL     1       1.208  -0.679  -0.013  0.00  0.00    -0.030 A 
ATOM     11  C   UNL     1       0.002  -0.004   0.002  0.00  0.00    +0.006 A 
ATOM     12  C   UNL     1      -0.017   1.378   0.010  0.00  0.00    +0.015 A 
ATOM     13  C   UNL     1       1.172   2.086   0.002  0.00  0.00    +0.018 A 
ATOM     14  C   UNL     1       2.379   1.410  -0.013  0.00  0.00    +0.015 A 
ATOM     15  C   UNL     1       2.396   0.028  -0.021  0.00  0.00    +0.006 A 
ATOM     16 BR   UNL     1       1.147   3.976   0.013  0.00  0.00    -0.050 Br
ENDBRANCH   9  10
ENDBRANCH   7   9
ENDBRANCH   3   7
BRANCH   6  17
ATOM     17  C   UNL     1       1.288  -8.237  -2.469  0.00  0.00    +0.139 C 
BRANCH  17  18
ATOM     18  N   UNL     1       2.675  -8.697  -2.574  0.00  0.00    -0.310 N 
ATOM     19  C   UNL     1       2.944 -10.029  -2.831  0.00  0.00    +0.211 A 
ATOM     20  N   UNL     1       2.028 -11.005  -3.007  0.00  0.00    -0.247 N 
ATOM     21  H   UNL     1       0.955 -10.770  -2.949  0.00  0.00    +0.192 HD
ATOM     22  N   UNL     1       2.750 -12.187  -3.242  0.00  0.00    -0.160 NA
ATOM     23  C   UNL     1       4.017 -11.875  -3.198  0.00  0.00    +0.246 A 
ATOM     24  N   UNL     1       4.137 -10.569  -2.954  0.00  0.00    -0.202 NA
ATOM     25  H   UNL     1       3.502  -7.983  -2.447  0.00  0.00    +0.149 HD
ENDBRANCH  17  18
ENDBRANCH   6  17
TORSDOF 5
