REMARK  Name = ZINC22084258
REMARK  11 active torsions:
REMARK  status: ('A' for Active; 'I' for Inactive)
REMARK    1  A    between atoms: C_1  and  C_2
REMARK    2  A    between atoms: C_2  and  N_3
REMARK    3  A    between atoms: C_14  and  N_16
REMARK    4  A    between atoms: C_17  and  C_19
REMARK    5  A    between atoms: C_19  and  C_21
REMARK    6  A    between atoms: C_19  and  O_22
REMARK    7  A    between atoms: O_22  and  C_23
REMARK    8  A    between atoms: C_23  and  C_25
REMARK    9  A    between atoms: C_25  and  N_26
REMARK   10  A    between atoms: C_27  and  C_29
REMARK   11  A    between atoms: C_29  and  C_30
REMARK                            x       y       z     vdW  Elec       q    Type
REMARK                         _______ _______ _______ _____ _____    ______ ____
ROOT
ATOM      1  N   UNL     1      -0.711   8.840   0.056  0.00  0.00    -0.282 N 
ATOM      2  C   UNL     1      -0.124  10.049   0.158  0.00  0.00    +0.258 C 
ATOM      3  O   UNL     1       1.085  10.139   0.147  0.00  0.00    -0.271 OA
ATOM      4  H   UNL     1      -1.807   8.764  -0.010  0.00  0.00    +0.155 HD
ENDROOT
BRANCH   1  16
ATOM      5  N   UNL     1       2.573   4.375  -0.163  0.00  0.00    -0.340 N 
ATOM      6  C   UNL     1       3.659   4.870  -0.862  0.00  0.00    +0.050 A 
ATOM      7  C   UNL     1       4.854   4.287  -1.272  0.00  0.00    +0.026 A 
ATOM      8  C   UNL     1       5.781   5.030  -1.971  0.00  0.00    +0.002 A 
ATOM      9  C   UNL     1       5.538   6.363  -2.266  0.00  0.00    +0.001 A 
ATOM     10  C   UNL     1       4.358   6.957  -1.874  0.00  0.00    +0.010 A 
ATOM     11  C   UNL     1       3.413   6.217  -1.167  0.00  0.00    +0.008 A 
ATOM     12  C   UNL     1       2.087   6.537  -0.607  0.00  0.00    +0.009 A 
ATOM     13  C   UNL     1       1.617   5.364   0.001  0.00  0.00    +0.050 A 
ATOM     14  C   UNL     1       0.371   5.367   0.621  0.00  0.00    +0.028 A 
ATOM     15  C   UNL     1      -0.391   6.514   0.636  0.00  0.00    +0.025 A 
ATOM     16  C   UNL     1       0.074   7.679   0.034  0.00  0.00    +0.034 A 
ATOM     17  C   UNL     1       1.311   7.693  -0.588  0.00  0.00    +0.034 A 
BRANCH   5  19
ATOM     18  C   UNL     1       3.029   2.919   1.749  0.00  0.00    +0.027 C 
ATOM     19  C   UNL     1       2.452   3.002   0.334  0.00  0.00    +0.119 C 
ENDBRANCH   5  19
ENDBRANCH   1  16
BRANCH   2  20
ATOM     20  C   UNL     1      -0.971  11.289   0.287  0.00  0.00    +0.259 C 
ATOM     21  C   UNL     1      -1.783  11.488  -0.995  0.00  0.00    +0.062 C 
BRANCH  20  22
ATOM     22  O   UNL     1      -0.112  12.441   0.499  0.00  0.00    -0.451 OA
BRANCH  22  23
ATOM     23  C   UNL     1      -0.619  13.454   1.219  0.00  0.00    +0.325 C 
ATOM     24  O   UNL     1      -1.742  13.381   1.658  0.00  0.00    -0.249 OA
BRANCH  23  25
ATOM     25  C   UNL     1       0.214  14.683   1.481  0.00  0.00    +0.224 C 
BRANCH  25  26
ATOM     26  N   UNL     1      -0.559  15.634   2.283  0.00  0.00    -0.305 N 
ATOM     27  C   UNL     1      -0.013  16.813   2.641  0.00  0.00    +0.218 C 
ATOM     28  O   UNL     1       1.118  17.086   2.299  0.00  0.00    -0.275 OA
ATOM     29  H   UNL     1      -1.585  15.386   2.594  0.00  0.00    +0.149 HD
BRANCH  27  30
ATOM     30  C   UNL     1      -0.808  17.792   3.467  0.00  0.00    +0.130 C 
BRANCH  30  31
ATOM     31  C   UNL     1       0.025  19.021   3.728  0.00  0.00    -0.039 A 
ATOM     32  C   UNL     1       0.826  19.086   4.853  0.00  0.00    +0.004 A 
ATOM     33  C   UNL     1       1.593  20.211   5.090  0.00  0.00    +0.000 A 
ATOM     34  C   UNL     1       1.552  21.275   4.209  0.00  0.00    +0.000 A 
ATOM     35  C   UNL     1       0.746  21.212   3.087  0.00  0.00    +0.000 A 
ATOM     36  C   UNL     1      -0.017  20.085   2.847  0.00  0.00    +0.004 A 
ENDBRANCH  30  31
ENDBRANCH  27  30
ENDBRANCH  25  26
ENDBRANCH  23  25
ENDBRANCH  22  23
ENDBRANCH  20  22
ENDBRANCH   2  20
TORSDOF 9
