REMARK  Name = ZINC25383732
REMARK  9 active torsions:
REMARK  status: ('A' for Active; 'I' for Inactive)
REMARK    1  A    between atoms: C_2  and  C_3
REMARK    2  A    between atoms: C_3  and  N_4
REMARK    3  A    between atoms: C_17  and  S_18
REMARK    4  A    between atoms: S_18  and  C_19
REMARK    5  A    between atoms: C_19  and  C_20
REMARK    6  A    between atoms: N_22  and  C_23
REMARK    7  A    between atoms: C_23  and  C_24
REMARK    8  A    between atoms: C_24  and  C_26
REMARK    9  A    between atoms: C_24  and  N_31
REMARK                            x       y       z     vdW  Elec       q    Type
REMARK                         _______ _______ _______ _____ _____    ______ ____
ROOT
ATOM      1  S   UNL     1      -2.878   4.257   0.065  0.00  0.00    -0.076 S 
ENDROOT
BRANCH   1  15
ATOM      2  N   UNL     1      -3.997   9.294   0.404  0.00  0.00    -0.273 N 
ATOM      3  C   UNL     1      -5.337   9.205   0.283  0.00  0.00    +0.263 A 
ATOM      4  O   UNL     1      -6.029  10.206   0.312  0.00  0.00    -0.267 OA
ATOM      5  C   UNL     1      -5.950   7.874   0.126  0.00  0.00    +0.064 A 
ATOM      6  C   UNL     1      -7.331   7.723   0.006  0.00  0.00    +0.015 A 
ATOM      7  C   UNL     1      -7.868   6.461  -0.140  0.00  0.00    +0.001 A 
ATOM      8  C   UNL     1      -7.043   5.347  -0.168  0.00  0.00    +0.002 A 
ATOM      9  C   UNL     1      -5.673   5.484  -0.050  0.00  0.00    +0.027 A 
ATOM     10  C   UNL     1      -5.117   6.746   0.098  0.00  0.00    +0.064 A 
ATOM     11  N   UNL     1      -3.739   6.912   0.218  0.00  0.00    -0.256 N 
ATOM     12  C   UNL     1      -3.199   8.161   0.366  0.00  0.00    +0.240 A 
ATOM     13  N   UNL     1      -1.894   8.027   0.449  0.00  0.00    -0.109 NA
ATOM     14  N   UNL     1      -1.589   6.663   0.358  0.00  0.00    -0.120 NA
ATOM     15  C   UNL     1      -2.714   6.004   0.222  0.00  0.00    +0.198 A 
BRANCH   2  16
ATOM     16  C   UNL     1      -3.373  10.610   0.559  0.00  0.00    +0.155 C 
BRANCH  16  18
ATOM     17  C   UNL     1      -3.513  12.361  -1.137  0.00  0.00    +0.005 C 
ATOM     18  C   UNL     1      -3.058  11.180  -0.800  0.00  0.00    -0.013 C 
ENDBRANCH  16  18
ENDBRANCH   2  16
ENDBRANCH   1  15
BRANCH   1  19
ATOM     19  C   UNL     1      -1.171   3.648   0.138  0.00  0.00    +0.173 C 
BRANCH  19  20
ATOM     20  C   UNL     1      -1.168   2.146   0.014  0.00  0.00    +0.223 C 
ATOM     21  O   UNL     1      -2.214   1.546  -0.112  0.00  0.00    -0.275 OA
ATOM     22  N   UNL     1      -0.002   1.470   0.042  0.00  0.00    -0.316 N 
ATOM     23  H   UNL     1       0.947   2.014   0.155  0.00  0.00    +0.149 HD
BRANCH  22  24
ATOM     24  C   UNL     1       0.001   0.010  -0.079  0.00  0.00    +0.094 C 
BRANCH  24  25
ATOM     25  C   UNL     1       1.445  -0.494  -0.140  0.00  0.00    -0.013 C 
BRANCH  25  26
ATOM     26  N   UNL     1       1.448  -1.942  -0.388  0.00  0.00    +0.386 N 
ATOM     27  C   UNL     1       0.763  -2.264  -1.666  0.00  0.00    -0.078 C 
ATOM     28  C   UNL     1       1.307  -3.672  -2.014  0.00  0.00    -0.020 C 
ATOM     29  C   UNL     1       2.784  -3.593  -1.564  0.00  0.00    -0.020 C 
ATOM     30  C   UNL     1       2.829  -2.452  -0.531  0.00  0.00    -0.078 C 
ATOM     31  H   UNL     1       0.939  -2.394   0.475  0.00  0.00    -0.081 HD
ENDBRANCH  25  26
BRANCH  25  32
ATOM     32  C   UNL     1       2.132  -0.207   1.170  0.00  0.00    -0.022 A 
ATOM     33  C   UNL     1       2.982   0.801   1.485  0.00  0.00    +0.009 A 
ATOM     34  C   UNL     1       3.498   0.868   2.766  0.00  0.00    +0.008 A 
ATOM     35  C   UNL     1       3.139  -0.077   3.668  0.00  0.00    +0.045 A 
ATOM     36  S   UNL     1       2.034  -1.102   2.711  0.00  0.00    -0.103 S 
ENDBRANCH  25  32
ENDBRANCH  24  25
ENDBRANCH  22  24
ENDBRANCH  19  20
ENDBRANCH   1  19
TORSDOF 9
