REMARK  Name = ZINC13957656
REMARK  8 active torsions:
REMARK  status: ('A' for Active; 'I' for Inactive)
REMARK    1  A    between atoms: C_1  and  C_2
REMARK    2  A    between atoms: C_5  and  S_8
REMARK    3  A    between atoms: S_8  and  N_11
REMARK    4  A    between atoms: N_11  and  N_12
REMARK    5  A    between atoms: C_13  and  C_15
REMARK    6  A    between atoms: C_15  and  C_16
REMARK    7  A    between atoms: C_16  and  N_17
REMARK    8  A    between atoms: C_18  and  C_28
REMARK                            x       y       z     vdW  Elec       q    Type
REMARK                         _______ _______ _______ _____ _____    ______ ____
ROOT
ATOM      1  N   UNL     1      -5.260  -0.993   4.553  0.00  0.00    -0.286 N 
ATOM      2  C   UNL     1      -5.720  -2.341   4.200  0.00  0.00    +0.140 C 
ATOM      3  C   UNL     1      -7.166  -2.417   4.620  0.00  0.00    -0.010 A 
ATOM      4  C   UNL     1      -8.117  -3.408   4.550  0.00  0.00    +0.006 A 
ATOM      5  C   UNL     1      -9.395  -3.176   5.030  0.00  0.00    +0.000 A 
ATOM      6  C   UNL     1      -9.719  -1.949   5.581  0.00  0.00    +0.001 A 
ATOM      7  C   UNL     1      -8.773  -0.948   5.656  0.00  0.00    +0.013 A 
ATOM      8  C   UNL     1      -7.482  -1.174   5.174  0.00  0.00    +0.042 A 
ATOM      9  C   UNL     1      -6.278  -0.324   5.120  0.00  0.00    +0.248 C 
ATOM     10  O   UNL     1      -6.216   0.820   5.528  0.00  0.00    -0.270 OA
ENDROOT
BRANCH   2  11
ATOM     11  C   UNL     1      -4.910  -3.374   4.939  0.00  0.00    +0.002 A 
ATOM     12  C   UNL     1      -4.256  -3.197   6.098  0.00  0.00    +0.089 A 
ATOM     13  N   UNL     1      -3.634  -4.360   6.465  0.00  0.00    -0.360 N 
ATOM     14  H   UNL     1      -3.102  -4.477   7.267  0.00  0.00    +0.165 HD
ATOM     15  C   UNL     1      -3.872  -5.335   5.523  0.00  0.00    +0.047 A 
ATOM     16  C   UNL     1      -4.681  -4.761   4.526  0.00  0.00    +0.005 A 
ATOM     17  C   UNL     1      -5.086  -5.527   3.431  0.00  0.00    +0.010 A 
ATOM     18  C   UNL     1      -4.693  -6.832   3.333  0.00  0.00    +0.001 A 
ATOM     19  C   UNL     1      -3.895  -7.403   4.315  0.00  0.00    +0.002 A 
ATOM     20  C   UNL     1      -3.484  -6.666   5.404  0.00  0.00    +0.026 A 
ENDBRANCH   2  11
BRANCH   1  21
ATOM     21  C   UNL     1      -3.911  -0.466   4.329  0.00  0.00    +0.118 C 
BRANCH  21  22
ATOM     22  C   UNL     1      -3.844   0.196   2.951  0.00  0.00    +0.116 C 
BRANCH  22  24
ATOM     23  N   UNL     1      -2.162   1.367   1.567  0.00  0.00    -0.232 N 
ATOM     24  C   UNL     1      -2.457   0.738   2.722  0.00  0.00    +0.229 C 
ATOM     25  O   UNL     1      -1.606   0.608   3.576  0.00  0.00    -0.274 OA
ATOM     26  H   UNL     1      -2.842   1.470   0.883  0.00  0.00    +0.171 HD
BRANCH  23  27
ATOM     27  N   UNL     1      -0.872   1.871   1.353  0.00  0.00    -0.108 NA
ATOM     28  H   UNL     1      -0.480   2.486   1.993  0.00  0.00    +0.172 HD
BRANCH  27  29
ATOM     29  S   UNL     1      -0.017   1.417   0.010  0.00  0.00    +0.074 S 
ATOM     30  O   UNL     1       0.002  -0.004   0.002  0.00  0.00    -0.152 OA
ATOM     31  O   UNL     1       1.172   2.195   0.003  0.00  0.00    -0.152 OA
BRANCH  29  36
ATOM     32  C   UNL     1      -3.223   3.124  -4.808  0.00  0.00    +0.044 C 
ATOM     33  C   UNL     1      -2.423   2.698  -3.604  0.00  0.00    -0.050 A 
ATOM     34  C   UNL     1      -1.494   3.559  -3.052  0.00  0.00    +0.005 A 
ATOM     35  C   UNL     1      -0.759   3.168  -1.948  0.00  0.00    +0.029 A 
ATOM     36  C   UNL     1      -0.954   1.915  -1.397  0.00  0.00    +0.107 A 
ATOM     37  C   UNL     1      -1.879   1.052  -1.952  0.00  0.00    +0.029 A 
ATOM     38  C   UNL     1      -2.618   1.445  -3.053  0.00  0.00    +0.005 A 
ENDBRANCH  29  36
ENDBRANCH  27  29
ENDBRANCH  23  27
ENDBRANCH  22  24
ENDBRANCH  21  22
ENDBRANCH   1  21
TORSDOF 7
