REMARK  Name = ZINC21246050
REMARK  7 active torsions:
REMARK  status: ('A' for Active; 'I' for Inactive)
REMARK    1  A    between atoms: C_1  and  C_2
REMARK    2  A    between atoms: C_2  and  C_3
REMARK    3  A    between atoms: C_2  and  C_4
REMARK    4  A    between atoms: C_4  and  O_5
REMARK    5  A    between atoms: O_5  and  C_6
REMARK    6  A    between atoms: C_9  and  C_12
REMARK    7  A    between atoms: C_17  and  C_22
REMARK                            x       y       z     vdW  Elec       q    Type
REMARK                         _______ _______ _______ _____ _____    ______ ____
ROOT
ATOM      1  C   UNL     1       1.264  -6.038  -1.751  0.00  0.00    +0.136 C 
ATOM      2  C   UNL     1       2.412  -6.518  -0.896  0.00  0.00    +0.036 C 
ATOM      3  C   UNL     1       2.308  -7.260   0.220  0.00  0.00    +0.017 C 
ATOM      4  C   UNL     1       3.551  -7.682   0.985  0.00  0.00    +0.060 C 
ATOM      5  C   UNL     1       4.637  -6.617   0.847  0.00  0.00    +0.039 C 
ATOM      6  C   UNL     1       4.952  -6.463  -0.646  0.00  0.00    +0.088 C 
ATOM      7  C   UNL     1       3.684  -6.113  -1.366  0.00  0.00    +0.163 C 
ATOM      8  O   UNL     1       3.751  -5.460  -2.389  0.00  0.00    -0.292 OA
ATOM      9  N   UNL     1       1.138  -7.701   0.748  0.00  0.00    -0.316 N 
ATOM     10  C   UNL     1       0.002  -6.921   0.930  0.00  0.00    +0.052 A 
ATOM     11  C   UNL     1      -0.503  -6.629   2.185  0.00  0.00    +0.025 A 
ATOM     12  C   UNL     1      -1.667  -5.886   2.292  0.00  0.00    +0.002 A 
ATOM     13  C   UNL     1      -2.319  -5.443   1.155  0.00  0.00    +0.002 A 
ATOM     14  C   UNL     1      -1.804  -5.719  -0.100  0.00  0.00    +0.025 A 
ATOM     15  C   UNL     1      -0.628  -6.443  -0.209  0.00  0.00    +0.049 A 
ATOM     16  N   UNL     1      -0.012  -6.649  -1.443  0.00  0.00    -0.331 N 
ATOM     17  H   UNL     1       1.040  -8.749   1.069  0.00  0.00    +0.152 HD
ATOM     18  H   UNL     1      -0.510  -7.288  -2.188  0.00  0.00    +0.147 HD
ENDROOT
BRANCH   1  22
ATOM     19  C   UNL     1       0.890  -1.809  -1.266  0.00  0.00    +0.121 A 
ATOM     20  C   UNL     1       1.202  -2.341  -2.508  0.00  0.00    +0.046 A 
ATOM     21  C   UNL     1       1.329  -3.708  -2.661  0.00  0.00    +0.009 A 
ATOM     22  C   UNL     1       1.132  -4.547  -1.580  0.00  0.00    -0.023 A 
ATOM     23  C   UNL     1       0.815  -4.019  -0.342  0.00  0.00    +0.009 A 
ATOM     24  C   UNL     1       0.693  -2.653  -0.182  0.00  0.00    +0.046 A 
BRANCH  19  25
ATOM     25  O   UNL     1       0.771  -0.464  -1.111  0.00  0.00    -0.492 OA
BRANCH  25  26
ATOM     26  C   UNL     1       0.987   0.344  -2.270  0.00  0.00    +0.232 C 
BRANCH  26  28
ATOM     27  C   UNL     1       1.902   2.232  -0.914  0.00  0.00    +0.010 C 
ATOM     28  C   UNL     1       0.811   1.819  -1.904  0.00  0.00    +0.020 C 
ATOM     29  C   UNL     1       0.919   2.674  -3.168  0.00  0.00    +0.010 C 
ENDBRANCH  26  28
ENDBRANCH  25  26
ENDBRANCH  19  25
ENDBRANCH   1  22
BRANCH   5  30
ATOM     30  C   UNL     1       5.875  -7.051   1.588  0.00  0.00    -0.006 A 
ATOM     31  C   UNL     1       6.512  -6.441   2.618  0.00  0.00    +0.011 A 
ATOM     32  C   UNL     1       7.645  -7.029   3.148  0.00  0.00    +0.008 A 
ATOM     33  C   UNL     1       8.086  -8.199   2.623  0.00  0.00    +0.045 A 
ATOM     34  S   UNL     1       6.880  -8.506   1.342  0.00  0.00    -0.101 S 
ENDBRANCH   5  30
TORSDOF 5
