REMARK  Name = ZINC04982304
REMARK  9 active torsions:
REMARK  status: ('A' for Active; 'I' for Inactive)
REMARK    1  A    between atoms: C_1  and  C_2
REMARK    2  A    between atoms: C_5  and  N_8
REMARK    3  A    between atoms: N_8  and  C_9
REMARK    4  A    between atoms: C_9  and  C_10
REMARK    5  A    between atoms: N_12  and  N_13
REMARK    6  A    between atoms: C_14  and  C_15
REMARK    7  A    between atoms: C_14  and  C_16
REMARK    8  A    between atoms: C_17  and  C_18
REMARK    9  A    between atoms: C_19  and  C_20
REMARK                            x       y       z     vdW  Elec       q    Type
REMARK                         _______ _______ _______ _____ _____    ______ ____
ROOT
ATOM      1  C   UNL     1      -1.224   6.223   0.560  0.00  0.00    +0.249 C 
ATOM      2  O   UNL     1      -1.238   7.432   0.658  0.00  0.00    -0.272 OA
ATOM      3  N   UNL     1      -0.061   5.578   0.343  0.00  0.00    -0.205 N 
ATOM      4  H   UNL     1      -0.050   4.611   0.265  0.00  0.00    +0.177 HD
ENDROOT
BRANCH   3   5
ATOM      5  N   UNL     1       1.132   6.303   0.230  0.00  0.00    -0.185 NA
ATOM      6  C   UNL     1       2.269   5.674   0.117  0.00  0.00    +0.056 C 
ATOM      7  C   UNL     1       3.562   6.449   0.124  0.00  0.00    +0.067 C 
BRANCH   6   8
ATOM      8  C   UNL     1       2.289   4.266  -0.012  0.00  0.00    +0.024 C 
ATOM      9  C   UNL     1       3.472   3.604  -0.032  0.00  0.00    +0.002 C 
BRANCH   9  10
ATOM     10  C   UNL     1       3.490   2.191  -0.046  0.00  0.00    +0.001 C 
ATOM     11  C   UNL     1       4.669   1.530  -0.065  0.00  0.00    +0.008 C 
BRANCH  11  12
ATOM     12  C   UNL     1       4.688   0.060  -0.080  0.00  0.00    -0.025 A 
ATOM     13  C   UNL     1       3.488  -0.659  -0.067  0.00  0.00    +0.008 A 
ATOM     14  C   UNL     1       3.514  -2.038  -0.086  0.00  0.00    +0.001 A 
ATOM     15  C   UNL     1       4.724  -2.710  -0.105  0.00  0.00    +0.000 A 
ATOM     16  C   UNL     1       5.916  -2.006  -0.113  0.00  0.00    +0.001 A 
ATOM     17  C   UNL     1       5.907  -0.628  -0.100  0.00  0.00    +0.008 A 
ENDBRANCH  11  12
ENDBRANCH   9  10
ENDBRANCH   6   8
ENDBRANCH   3   5
BRANCH   1  18
ATOM     18  C   UNL     1      -2.508   5.443   0.682  0.00  0.00    +0.199 C 
BRANCH  18  19
ATOM     19  N   UNL     1      -3.621   6.367   0.914  0.00  0.00    -0.335 N 
ATOM     20  H   UNL     1      -3.456   7.321   0.966  0.00  0.00    +0.147 HD
BRANCH  19  25
ATOM     21  C   UNL     1      -8.892   4.363   1.507  0.00  0.00    +0.044 C 
ATOM     22  C   UNL     1      -7.491   4.896   1.349  0.00  0.00    -0.050 A 
ATOM     23  C   UNL     1      -7.258   6.257   1.424  0.00  0.00    +0.005 A 
ATOM     24  C   UNL     1      -5.976   6.748   1.280  0.00  0.00    +0.023 A 
ATOM     25  C   UNL     1      -4.919   5.873   1.060  0.00  0.00    +0.028 A 
ATOM     26  C   UNL     1      -5.158   4.507   0.980  0.00  0.00    +0.023 A 
ATOM     27  C   UNL     1      -6.442   4.022   1.130  0.00  0.00    +0.005 A 
ENDBRANCH  19  25
ENDBRANCH  18  19
ENDBRANCH   1  18
TORSDOF 7
