REMARK  Name = ZINC36371478
REMARK  14 active torsions:
REMARK  status: ('A' for Active; 'I' for Inactive)
REMARK    1  A    between atoms: C_1  and  C_2
REMARK    2  A    between atoms: C_2  and  C_4
REMARK    3  A    between atoms: C_2  and  C_10
REMARK    4  A    between atoms: C_4  and  C_5
REMARK    5  A    between atoms: C_5  and  C_6
REMARK    6  A    between atoms: C_6  and  C_7
REMARK    7  A    between atoms: C_7  and  C_8
REMARK    8  A    between atoms: C_7  and  C_9
REMARK    9  A    between atoms: C_16  and  C_44
REMARK   10  A    between atoms: C_23  and  N_38
REMARK   11  A    between atoms: C_27  and  C_37
REMARK   12  A    between atoms: C_30  and  O_33
REMARK   13  A    between atoms: O_33  and  C_34
REMARK   14  A    between atoms: C_34  and  C_36
REMARK                            x       y       z     vdW  Elec       q    Type
REMARK                         _______ _______ _______ _____ _____    ______ ____
ROOT
ATOM      1  C   UNL     1       1.773  -1.064   0.884  0.00  0.00    -0.002 C 
ATOM      2  C   UNL     1       1.488  -2.508   0.394  0.00  0.00    +0.004 C 
ATOM      3  C   UNL     1       0.341  -3.056   1.293  0.00  0.00    +0.004 C 
ATOM      4  C   UNL     1      -0.259  -1.776   1.895  0.00  0.00    -0.003 C 
ATOM      5  C   UNL     1       1.023  -0.983   2.229  0.00  0.00    -0.026 C 
ATOM      6  C   UNL     1       0.687   0.393   2.725  0.00  0.00    +0.007 C 
ATOM      7  C   UNL     1      -0.385   0.355   3.820  0.00  0.00    +0.005 C 
ATOM      8  C   UNL     1      -0.775  -1.052   4.244  0.00  0.00    +0.001 C 
ATOM      9  C   UNL     1      -1.200  -1.913   3.054  0.00  0.00    -0.013 C 
ATOM     10  C   UNL     1      -1.372  -3.358   3.528  0.00  0.00    -0.041 C 
ATOM     11  C   UNL     1      -2.272  -3.381   4.735  0.00  0.00    -0.042 C 
ATOM     12  C   UNL     1      -2.523  -2.355   5.478  0.00  0.00    -0.065 C 
ATOM     13  C   UNL     1      -1.899  -0.998   5.276  0.00  0.00    -0.008 C 
ATOM     14  C   UNL     1      -3.002  -0.018   4.901  0.00  0.00    +0.015 C 
ATOM     15  C   UNL     1      -4.372  -0.660   5.127  0.00  0.00    +0.046 C 
ATOM     16  C   UNL     1      -4.495  -1.312   6.499  0.00  0.00    +0.180 C 
ATOM     17  C   UNL     1      -3.503  -2.476   6.633  0.00  0.00    +0.075 C 
ATOM     18  C   UNL     1      -1.276  -0.551   6.604  0.00  0.00    +0.016 C 
ATOM     19  C   UNL     1       1.917  -1.719   3.238  0.00  0.00    +0.012 C 
ENDROOT
BRANCH  10  20
ATOM     20  N   UNL     1      -2.042  -4.146   2.484  0.00  0.00    +0.384 N 
ATOM     21  C   UNL     1      -3.416  -3.658   2.311  0.00  0.00    -0.078 C 
ATOM     22  C   UNL     1      -4.092  -4.420   1.170  0.00  0.00    -0.019 C 
ATOM     23  C   UNL     1      -4.118  -5.914   1.507  0.00  0.00    -0.004 C 
ATOM     24  C   UNL     1      -2.687  -6.396   1.758  0.00  0.00    -0.019 C 
ATOM     25  C   UNL     1      -2.062  -5.560   2.877  0.00  0.00    -0.078 C 
ATOM     26  H   UNL     1      -1.540  -4.046   1.615  0.00  0.00    -0.081 HD
ENDBRANCH  10  20
BRANCH   1  28
ATOM     27  C   UNL     1       2.050  -0.181  -1.430  0.00  0.00    +0.008 C 
ATOM     28  C   UNL     1       1.258  -0.050  -0.128  0.00  0.00    -0.010 C 
BRANCH  28  29
ATOM     29  C   UNL     1      -0.224  -0.312  -0.403  0.00  0.00    +0.003 C 
BRANCH  29  30
ATOM     30  C   UNL     1      -0.653   0.454  -1.656  0.00  0.00    +0.001 C 
BRANCH  30  31
ATOM     31  C   UNL     1      -2.135   0.192  -1.931  0.00  0.00    +0.003 C 
BRANCH  31  32
ATOM     32  C   UNL     1      -2.564   0.957  -3.185  0.00  0.00    -0.017 C 
ATOM     33  C   UNL     1      -1.822   0.401  -4.401  0.00  0.00    +0.007 C 
ATOM     34  C   UNL     1      -4.072   0.796  -3.389  0.00  0.00    +0.007 C 
ENDBRANCH  31  32
ENDBRANCH  30  31
ENDBRANCH  29  30
ENDBRANCH  28  29
ENDBRANCH   1  28
BRANCH  16  35
ATOM     35  O   UNL     1      -4.255  -0.347   7.523  0.00  0.00    -0.461 OA
BRANCH  35  36
ATOM     36  C   UNL     1      -5.319   0.331   7.983  0.00  0.00    +0.304 C 
ATOM     37  O   UNL     1      -6.417   0.112   7.529  0.00  0.00    -0.251 OA
ATOM     38  C   UNL     1      -5.143   1.366   9.064  0.00  0.00    +0.136 C 
ENDBRANCH  35  36
ENDBRANCH  16  35
TORSDOF 8
