REMARK  Name = ZINC51751275
REMARK  7 active torsions:
REMARK  status: ('A' for Active; 'I' for Inactive)
REMARK    1  A    between atoms: C_1  and  C_2
REMARK    2  A    between atoms: N_6  and  S_11
REMARK    3  A    between atoms: C_7  and  C_10
REMARK    4  A    between atoms: S_11  and  C_14
REMARK    5  A    between atoms: C_17  and  C_20
REMARK    6  A    between atoms: C_21  and  C_22
REMARK    7  A    between atoms: C_22  and  N_23
REMARK                            x       y       z     vdW  Elec       q    Type
REMARK                         _______ _______ _______ _____ _____    ______ ____
ROOT
ATOM      1  C   UNL     1      -0.483  -5.537   0.908  0.00  0.00    +0.106 A 
ATOM      2  C   UNL     1      -1.273  -6.125  -0.065  0.00  0.00    +0.030 A 
ATOM      3  C   UNL     1      -0.835  -7.255  -0.723  0.00  0.00    +0.019 A 
ATOM      4  C   UNL     1       0.407  -7.806  -0.406  0.00  0.00    +0.025 A 
ATOM      5  C   UNL     1       1.199  -7.209   0.576  0.00  0.00    +0.019 A 
ATOM      6  C   UNL     1       0.751  -6.076   1.223  0.00  0.00    +0.030 A 
ENDROOT
BRANCH   1   7
ATOM      7  S   UNL     1      -1.050  -4.093   1.744  0.00  0.00    +0.061 S 
ATOM      8  O   UNL     1      -0.364  -4.049   2.988  0.00  0.00    -0.153 OA
ATOM      9  O   UNL     1      -2.468  -4.103   1.655  0.00  0.00    -0.153 OA
BRANCH   7  14
ATOM     10  C   UNL     1      -0.144   1.438   0.536  0.00  0.00    +0.007 C 
ATOM     11  C   UNL     1      -0.072  -0.064   0.254  0.00  0.00    -0.011 C 
ATOM     12  C   UNL     1      -1.489  -0.642   0.209  0.00  0.00    +0.020 C 
ATOM     13  C   UNL     1      -1.415  -2.139  -0.108  0.00  0.00    +0.110 C 
ATOM     14  N   UNL     1      -0.530  -2.786   0.870  0.00  0.00    -0.174 NA
ATOM     15  C   UNL     1       0.826  -2.252   1.058  0.00  0.00    +0.077 C 
ATOM     16  C   UNL     1       0.727  -0.753   1.362  0.00  0.00    +0.023 C 
ATOM     17  C   UNL     1       1.504  -2.971   2.226  0.00  0.00    +0.026 C 
ENDBRANCH   7  14
ENDBRANCH   1   7
BRANCH   4  18
ATOM     18  C   UNL     1       0.868  -8.980  -1.085  0.00  0.00    -0.068 C 
ATOM     19  C   UNL     1       1.245  -9.942  -1.642  0.00  0.00    -0.117 C 
BRANCH  19  20
ATOM     20  C   UNL     1       1.718 -11.149  -2.340  0.00  0.00    +0.005 C 
BRANCH  20  21
ATOM     21  N   UNL     1       3.043 -11.524  -1.827  0.00  0.00    +0.385 N 
ATOM     22  H   UNL     1       3.691 -10.767  -1.986  0.00  0.00    -0.089 HD
ATOM     23  H   UNL     1       2.979 -11.711  -0.838  0.00  0.00    -0.089 HD
ATOM     24  H   UNL     1       3.367 -12.351  -2.305  0.00  0.00    -0.089 HD
ENDBRANCH  20  21
ENDBRANCH  19  20
ENDBRANCH   4  18
TORSDOF 5
