REMARK  Name = ZINC20917400
REMARK  11 active torsions:
REMARK  status: ('A' for Active; 'I' for Inactive)
REMARK    1  A    between atoms: C_1  and  C_2
REMARK    2  A    between atoms: C_5  and  C_8
REMARK    3  A    between atoms: N_9  and  N_10
REMARK    4  A    between atoms: C_14  and  S_17
REMARK    5  A    between atoms: N_15  and  N_16
REMARK    6  A    between atoms: S_17  and  C_18
REMARK    7  A    between atoms: C_18  and  C_19
REMARK    8  A    between atoms: C_26  and  O_33
REMARK    9  A    between atoms: C_27  and  O_31
REMARK   10  A    between atoms: O_31  and  C_32
REMARK   11  A    between atoms: O_33  and  C_34
REMARK                            x       y       z     vdW  Elec       q    Type
REMARK                         _______ _______ _______ _____ _____    ______ ____
ROOT
ATOM      1  N   UNL     1       0.002  -0.004   0.002  0.00  0.00    -0.204 N 
ATOM      2  C   UNL     1      -0.017   1.383   0.010  0.00  0.00    +0.254 A 
ATOM      3  N   UNL     1      -1.088   2.139   0.018  0.00  0.00    -0.109 NA
ATOM      4  N   UNL     1      -0.673   3.478   0.026  0.00  0.00    -0.119 NA
ATOM      5  C   UNL     1       0.639   3.495   0.014  0.00  0.00    +0.210 A 
ATOM      6  N   UNL     1       1.078   2.202   0.004  0.00  0.00    -0.211 N 
ATOM      7  H   UNL     1       0.962  -0.541  -0.010  0.00  0.00    +0.177 HD
ENDROOT
BRANCH   6   8
ATOM      8  N   UNL     1       2.383   1.797  -0.010  0.00  0.00    -0.294 N 
ATOM      9  H   UNL     1       3.190   2.544  -0.014  0.00  0.00    +0.163 HD
ATOM     10  H   UNL     1       2.626   0.725  -0.017  0.00  0.00    +0.163 HD
ENDBRANCH   6   8
BRANCH   1  12
ATOM     11  C   UNL     1      -1.184  -2.019   0.003  0.00  0.00    +0.138 C 
ATOM     12  N   UNL     1      -1.202  -0.721   0.010  0.00  0.00    -0.188 NA
BRANCH  11  17
ATOM     13  C   UNL     1      -6.125  -4.963   0.037  0.00  0.00    +0.044 C 
ATOM     14  C   UNL     1      -4.830  -4.191   0.027  0.00  0.00    -0.050 A 
ATOM     15  C   UNL     1      -3.624  -4.870   0.011  0.00  0.00    +0.004 A 
ATOM     16  C   UNL     1      -2.436  -4.171   0.003  0.00  0.00    +0.010 A 
ATOM     17  C   UNL     1      -2.451  -2.774   0.011  0.00  0.00    -0.005 A 
ATOM     18  C   UNL     1      -3.672  -2.095   0.032  0.00  0.00    +0.010 A 
ATOM     19  C   UNL     1      -4.853  -2.808   0.035  0.00  0.00    +0.004 A 
ENDBRANCH  11  17
ENDBRANCH   1  12
BRANCH   5  20
ATOM     20  S   UNL     1       1.655   4.934   0.012  0.00  0.00    -0.075 S 
BRANCH  20  21
ATOM     21  C   UNL     1       0.471   6.308   0.029  0.00  0.00    +0.173 C 
BRANCH  21  22
ATOM     22  C   UNL     1       1.219   7.616   0.029  0.00  0.00    +0.226 C 
ATOM     23  O   UNL     1       2.432   7.622   0.018  0.00  0.00    -0.275 OA
ATOM     24  N   UNL     1       0.540   8.781   0.041  0.00  0.00    -0.296 N 
ATOM     25  C   UNL     1       1.240  10.076   0.040  0.00  0.00    +0.113 C 
ATOM     26  C   UNL     1       0.898  10.794  -1.264  0.00  0.00    +0.054 C 
ATOM     27  C   UNL     1      -0.585  10.754  -1.525  0.00  0.00    -0.038 A 
ATOM     28  C   UNL     1      -1.106  11.689  -2.412  0.00  0.00    +0.053 A 
ATOM     29  C   UNL     1      -2.457  11.705  -2.705  0.00  0.00    +0.162 A 
ATOM     30  C   UNL     1      -3.302  10.774  -2.107  0.00  0.00    +0.162 A 
ATOM     31  C   UNL     1      -2.781   9.848  -1.224  0.00  0.00    +0.054 A 
ATOM     32  C   UNL     1      -1.424   9.839  -0.929  0.00  0.00    -0.023 A 
ATOM     33  C   UNL     1      -0.926   8.809   0.048  0.00  0.00    +0.143 C 
BRANCH  30  34
ATOM     34  O   UNL     1      -4.633  10.777  -2.391  0.00  0.00    -0.491 OA
ATOM     35  C   UNL     1      -5.437   9.793  -1.738  0.00  0.00    +0.277 C 
ENDBRANCH  30  34
BRANCH  29  36
ATOM     36  O   UNL     1      -2.957  12.624  -3.574  0.00  0.00    -0.491 OA
ATOM     37  C   UNL     1      -2.029  13.547  -4.147  0.00  0.00    +0.277 C 
ENDBRANCH  29  36
ENDBRANCH  21  22
ENDBRANCH  20  21
ENDBRANCH   5  20
TORSDOF 8
