REMARK  Name = ZINC39710450
REMARK  10 active torsions:
REMARK  status: ('A' for Active; 'I' for Inactive)
REMARK    1  A    between atoms: C_1  and  C_2
REMARK    2  A    between atoms: C_2  and  C_3
REMARK    3  A    between atoms: C_10  and  C_15
REMARK    4  A    between atoms: C_15  and  C_17
REMARK    5  A    between atoms: C_15  and  N_27
REMARK    6  A    between atoms: N_22  and  C_23
REMARK    7  A    between atoms: C_23  and  C_24
REMARK    8  A    between atoms: C_23  and  C_25
REMARK    9  A    between atoms: C_23  and  C_26
REMARK   10  A    between atoms: N_30  and  C_33
REMARK                            x       y       z     vdW  Elec       q    Type
REMARK                         _______ _______ _______ _____ _____    ______ ____
ROOT
ATOM      1  C   UNL     1       5.424  -3.119  -3.417  0.00  0.00    -0.009 C 
ENDROOT
BRANCH   1   9
ATOM      2  C   UNL     1       6.359   2.612  -2.849  0.00  0.00    -0.047 A 
ATOM      3  C   UNL     1       5.684   2.651  -1.629  0.00  0.00    +0.005 A 
ATOM      4  C   UNL     1       4.923   1.618  -1.180  0.00  0.00    +0.024 A 
ATOM      5  C   UNL     1       4.785   0.446  -1.946  0.00  0.00    +0.040 A 
ATOM      6  N   UNL     1       4.036  -0.560  -1.496  0.00  0.00    -0.285 N 
ATOM      7  C   UNL     1       3.865  -1.688  -2.164  0.00  0.00    +0.223 C 
ATOM      8  O   UNL     1       3.169  -2.572  -1.701  0.00  0.00    -0.275 OA
ATOM      9  C   UNL     1       4.538  -1.875  -3.505  0.00  0.00    +0.088 C 
ATOM     10  C   UNL     1       5.391  -0.733  -4.022  0.00  0.00    -0.006 C 
ATOM     11  C   UNL     1       5.488   0.378  -3.239  0.00  0.00    -0.007 A 
ATOM     12  C   UNL     1       6.287   1.529  -3.664  0.00  0.00    +0.013 A 
ATOM     13  H   UNL     1       3.596  -0.460  -0.637  0.00  0.00    +0.155 HD
BRANCH   2  15
ATOM     14  C   UNL     1       6.305   4.771  -4.069  0.00  0.00    +0.009 C 
ATOM     15  C   UNL     1       7.182   3.801  -3.274  0.00  0.00    +0.032 C 
ENDBRANCH   2  15
ENDBRANCH   1   9
BRANCH   1  16
ATOM     16  N   UNL     1       6.085  -3.343  -4.709  0.00  0.00    +0.387 N 
ATOM     17  C   UNL     1       5.080  -3.326  -5.780  0.00  0.00    -0.059 C 
ATOM     18  C   UNL     1       5.780  -3.445  -7.138  0.00  0.00    +0.086 C 
ATOM     19  N   UNL     1       6.630  -4.645  -7.121  0.00  0.00    -0.331 N 
ATOM     20  C   UNL     1       7.556  -4.823  -5.992  0.00  0.00    +0.086 C 
ATOM     21  C   UNL     1       6.772  -4.640  -4.688  0.00  0.00    -0.059 C 
ATOM     22  H   UNL     1       6.758  -2.609  -4.872  0.00  0.00    -0.081 HD
BRANCH  19  23
ATOM     23  C   UNL     1       6.561  -5.590  -8.150  0.00  0.00    +0.065 A 
ATOM     24  C   UNL     1       7.381  -5.468  -9.263  0.00  0.00    +0.026 A 
ATOM     25  C   UNL     1       7.311  -6.404 -10.277  0.00  0.00    +0.002 A 
ATOM     26  C   UNL     1       6.423  -7.460 -10.186  0.00  0.00    +0.003 A 
ATOM     27  C   UNL     1       5.603  -7.585  -9.079  0.00  0.00    +0.040 A 
ATOM     28  C   UNL     1       5.673  -6.657  -8.057  0.00  0.00    +0.144 A 
ATOM     29  F   UNL     1       4.876  -6.782  -6.973  0.00  0.00    -0.204 F 
ENDBRANCH  19  23
ENDBRANCH   1  16
BRANCH   1  30
ATOM     30  C   UNL     1       6.482  -2.915  -2.331  0.00  0.00    +0.205 C 
ATOM     31  N   UNL     1       7.493  -1.946  -2.776  0.00  0.00    -0.152 NA
ATOM     32  N   UNL     1       8.593  -2.502  -2.806  0.00  0.00    -0.070 NA
ATOM     33  N   UNL     1       8.535  -3.840  -2.420  0.00  0.00    -0.179 N 
ATOM     34  N   UNL     1       7.238  -4.165  -2.106  0.00  0.00    -0.183 NA
ATOM     35  H   UNL     1       9.291  -4.446  -2.378  0.00  0.00    +0.191 HD
BRANCH  34  36
ATOM     36  C   UNL     1       7.127  -4.604  -0.708  0.00  0.00    +0.035 C 
ATOM     37  C   UNL     1       5.656  -4.857  -0.369  0.00  0.00    +0.029 C 
ATOM     38  C   UNL     1       7.925  -5.894  -0.513  0.00  0.00    +0.029 C 
ATOM     39  C   UNL     1       7.683  -3.516   0.213  0.00  0.00    +0.029 C 
ENDBRANCH  34  36
ENDBRANCH   1  30
TORSDOF 6
