REMARK  Name = ZINC08001157
REMARK  4 active torsions:
REMARK  status: ('A' for Active; 'I' for Inactive)
REMARK    1  A    between atoms: C_4  and  N_7
REMARK    2  A    between atoms: C_11  and  C_13
REMARK    3  A    between atoms: C_13  and  N_46
REMARK    4  A    between atoms: C_21  and  C_23
REMARK                            x       y       z     vdW  Elec       q    Type
REMARK                         _______ _______ _______ _____ _____    ______ ____
ROOT
ATOM      1  C   UNL     1       2.014   3.271  -2.116  0.00  0.00    +0.020 C 
ENDROOT
BRANCH   1  10
ATOM      2  C   UNL     1       2.579   5.050  -0.573  0.00  0.00    -0.072 C 
ATOM      3  C   UNL     1       3.194   5.281   0.818  0.00  0.00    +0.024 C 
ATOM      4  C   UNL     1       2.326   4.592   1.820  0.00  0.00    -0.010 A 
ATOM      5  C   UNL     1       1.355   3.672   1.559  0.00  0.00    -0.046 A 
ATOM      6  C   UNL     1       0.668   3.164   2.659  0.00  0.00    +0.010 A 
ATOM      7  C   UNL     1       0.980   3.586   3.906  0.00  0.00    +0.045 A 
ATOM      8  S   UNL     1       2.294   4.754   3.582  0.00  0.00    -0.101 S 
ATOM      9  C   UNL     1       1.077   3.259   0.117  0.00  0.00    +0.002 C 
ATOM     10  N   UNL     1       2.264   3.607  -0.701  0.00  0.00    +0.393 N 
ATOM     11  H   UNL     1       3.067   3.062  -0.366  0.00  0.00    -0.080 HD
BRANCH   9  12
ATOM     12  C   UNL     1       0.863   1.768   0.050  0.00  0.00    -0.019 A 
ATOM     13  C   UNL     1      -0.300   1.075  -0.013  0.00  0.00    +0.010 A 
ATOM     14  C   UNL     1      -0.255  -0.305  -0.067  0.00  0.00    +0.008 A 
ATOM     15  C   UNL     1       0.950  -0.925  -0.056  0.00  0.00    +0.045 A 
ATOM     16  S   UNL     1       2.075   0.458   0.034  0.00  0.00    -0.103 S 
ENDBRANCH   9  12
ENDBRANCH   1  10
BRANCH   1  21
ATOM     17  N   UNL     1      -0.927   4.486  -5.719  0.00  0.00    -0.269 N 
ATOM     18  C   UNL     1      -0.542   4.646  -4.438  0.00  0.00    +0.310 C 
ATOM     19  O   UNL     1      -1.118   5.445  -3.725  0.00  0.00    -0.252 OA
ATOM     20  N   UNL     1       0.483   3.921  -3.946  0.00  0.00    -0.241 N 
ATOM     21  C   UNL     1       0.868   4.082  -2.665  0.00  0.00    +0.204 C 
ATOM     22  O   UNL     1       0.294   4.878  -1.954  0.00  0.00    -0.277 OA
ATOM     23  H   UNL     1      -0.518   3.798  -6.266  0.00  0.00    +0.156 HD
ATOM     24  H   UNL     1       0.942   3.284  -4.515  0.00  0.00    +0.159 HD
BRANCH  17  28
ATOM     25  C   UNL     1      -3.877   6.948  -7.330  0.00  0.00    +0.000 A 
ATOM     26  C   UNL     1      -3.007   7.446  -6.379  0.00  0.00    +0.002 A 
ATOM     27  C   UNL     1      -2.028   6.633  -5.842  0.00  0.00    +0.023 A 
ATOM     28  C   UNL     1      -1.918   5.313  -6.260  0.00  0.00    +0.035 A 
ATOM     29  C   UNL     1      -2.791   4.817  -7.220  0.00  0.00    +0.023 A 
ATOM     30  C   UNL     1      -3.771   5.634  -7.748  0.00  0.00    +0.002 A 
ENDBRANCH  17  28
ENDBRANCH   1  21
TORSDOF 4
