REMARK  Name = ZINC20703739
REMARK  8 active torsions:
REMARK  status: ('A' for Active; 'I' for Inactive)
REMARK    1  A    between atoms: C_4  and  C_7
REMARK    2  A    between atoms: C_7  and  O_8
REMARK    3  A    between atoms: O_8  and  C_9
REMARK    4  A    between atoms: C_12  and  C_15
REMARK    5  A    between atoms: C_26  and  S_31
REMARK    6  A    between atoms: S_31  and  N_34
REMARK    7  A    between atoms: N_34  and  C_35
REMARK    8  A    between atoms: C_35  and  C_36
REMARK                            x       y       z     vdW  Elec       q    Type
REMARK                         _______ _______ _______ _____ _____    ______ ____
ROOT
ATOM      1  C   UNL     1      -0.013   1.086   0.008  0.00  0.00    +0.105 C 
ATOM      2  C   UNL     1      -0.734   1.582   1.264  0.00  0.00    +0.029 C 
ATOM      3  C   UNL     1      -0.181   0.771   2.470  0.00  0.00    +0.033 C 
ATOM      4  C   UNL     1      -0.972  -0.522   2.418  0.00  0.00    -0.030 C 
ATOM      5  C   UNL     1      -2.088  -0.350   1.752  0.00  0.00    -0.023 C 
ATOM      6  C   UNL     1      -2.192   1.075   1.264  0.00  0.00    +0.049 C 
ATOM      7  C   UNL     1      -2.836   1.146  -0.084  0.00  0.00    -0.018 A 
ATOM      8  C   UNL     1      -4.210   0.965  -0.177  0.00  0.00    +0.034 A 
ATOM      9  C   UNL     1      -4.844   1.026  -1.400  0.00  0.00    +0.106 A 
ATOM     10  C   UNL     1      -4.118   1.271  -2.551  0.00  0.00    +0.030 A 
ATOM     11  C   UNL     1      -2.752   1.453  -2.472  0.00  0.00    +0.025 A 
ATOM     12  C   UNL     1      -2.112   1.390  -1.240  0.00  0.00    +0.031 A 
ATOM     13  N   UNL     1      -0.727   1.574  -1.177  0.00  0.00    -0.336 N 
ATOM     14  H   UNL     1      -0.173   2.071  -1.987  0.00  0.00    +0.147 HD
ENDROOT
BRANCH   1  18
ATOM     15  C   UNL     1       3.994   2.572  -0.022  0.00  0.00    +0.121 A 
ATOM     16  C   UNL     1       3.739   1.270   0.384  0.00  0.00    +0.046 A 
ATOM     17  C   UNL     1       2.443   0.792   0.393  0.00  0.00    +0.009 A 
ATOM     18  C   UNL     1       1.400   1.610  -0.003  0.00  0.00    -0.027 A 
ATOM     19  C   UNL     1       1.653   2.906  -0.413  0.00  0.00    +0.009 A 
ATOM     20  C   UNL     1       2.946   3.390  -0.419  0.00  0.00    +0.046 A 
BRANCH  15  21
ATOM     21  O   UNL     1       5.268   3.044  -0.032  0.00  0.00    -0.487 OA
BRANCH  21  22
ATOM     22  C   UNL     1       5.456   4.394  -0.462  0.00  0.00    +0.264 C 
BRANCH  22  26
ATOM     23  C   UNL     1       9.611   5.373  -0.303  0.00  0.00    +0.000 A 
ATOM     24  C   UNL     1       9.071   4.837  -1.457  0.00  0.00    +0.000 A 
ATOM     25  C   UNL     1       7.726   4.520  -1.508  0.00  0.00    +0.007 A 
ATOM     26  C   UNL     1       6.922   4.739  -0.406  0.00  0.00    -0.010 A 
ATOM     27  C   UNL     1       7.461   5.281   0.746  0.00  0.00    +0.007 A 
ATOM     28  C   UNL     1       8.807   5.594   0.799  0.00  0.00    +0.000 A 
ENDBRANCH  22  26
ENDBRANCH  21  22
ENDBRANCH  15  21
ENDBRANCH   1  18
BRANCH   9  29
ATOM     29  S   UNL     1      -6.588   0.792  -1.497  0.00  0.00    +0.058 S 
ATOM     30  O   UNL     1      -7.113   1.121  -0.218  0.00  0.00    -0.153 OA
ATOM     31  O   UNL     1      -7.019   1.439  -2.686  0.00  0.00    -0.153 OA
BRANCH  29  32
ATOM     32  N   UNL     1      -6.854  -0.828  -1.716  0.00  0.00    -0.187 NA
ATOM     33  H   UNL     1      -7.151  -1.194  -2.710  0.00  0.00    +0.148 HD
BRANCH  32  34
ATOM     34  C   UNL     1      -6.485  -1.779  -0.665  0.00  0.00    +0.137 C 
BRANCH  34  35
ATOM     35  C   UNL     1      -7.157  -3.126  -0.938  0.00  0.00    +0.134 C 
ATOM     36  C   UNL     1      -6.782  -4.133   0.167  0.00  0.00    +0.035 C 
ATOM     37  C   UNL     1      -8.143  -4.559   0.769  0.00  0.00    +0.031 C 
ATOM     38  C   UNL     1      -9.130  -4.198  -0.370  0.00  0.00    +0.160 C 
ATOM     39  O   UNL     1      -8.586  -2.974  -0.914  0.00  0.00    -0.375 OA
ENDBRANCH  34  35
ENDBRANCH  32  34
ENDBRANCH  29  32
ENDBRANCH   9  29
TORSDOF 8
