REMARK  Name = ZINC63227190
REMARK  6 active torsions:
REMARK  status: ('A' for Active; 'I' for Inactive)
REMARK    1  A    between atoms: C_7  and  C_10
REMARK    2  A    between atoms: C_10  and  C_11
REMARK    3  A    between atoms: C_11  and  N_12
REMARK    4  A    between atoms: C_13  and  C_15
REMARK    5  A    between atoms: N_20  and  C_22
REMARK    6  A    between atoms: C_22  and  C_23
REMARK                            x       y       z     vdW  Elec       q    Type
REMARK                         _______ _______ _______ _____ _____    ______ ____
ROOT
ATOM      1  N   UNL     1      -0.458  -4.798  -1.460  0.00  0.00    -0.315 N 
ATOM      2  C   UNL     1      -0.811  -5.380  -2.623  0.00  0.00    +0.218 C 
ATOM      3  O   UNL     1      -0.371  -4.957  -3.671  0.00  0.00    -0.275 OA
ATOM      4  H   UNL     1      -0.810  -5.136  -0.622  0.00  0.00    +0.149 HD
ENDROOT
BRANCH   2   5
ATOM      5  C   UNL     1      -1.752  -6.557  -2.622  0.00  0.00    +0.101 C 
ATOM      6  C   UNL     1      -3.149  -6.148  -2.100  0.00  0.00    +0.110 C 
ATOM      7  C   UNL     1      -4.111  -6.949  -2.949  0.00  0.00    +0.217 C 
ATOM      8  O   UNL     1      -5.280  -7.135  -2.686  0.00  0.00    -0.276 OA
ATOM      9  N   UNL     1      -3.482  -7.423  -4.038  0.00  0.00    -0.296 N 
ATOM     10  C   UNL     1      -2.073  -7.010  -4.063  0.00  0.00    +0.121 C 
BRANCH   9  11
ATOM     11  C   UNL     1      -4.120  -8.247  -5.068  0.00  0.00    +0.142 C 
BRANCH  11  12
ATOM     12  C   UNL     1      -4.695  -7.357  -6.139  0.00  0.00    -0.030 A 
ATOM     13  C   UNL     1      -5.992  -6.892  -6.027  0.00  0.00    +0.006 A 
ATOM     14  C   UNL     1      -6.521  -6.076  -7.009  0.00  0.00    +0.020 A 
ATOM     15  C   UNL     1      -5.752  -5.723  -8.104  0.00  0.00    +0.041 A 
ATOM     16  C   UNL     1      -4.453  -6.189  -8.215  0.00  0.00    +0.020 A 
ATOM     17  C   UNL     1      -3.924  -7.001  -7.229  0.00  0.00    +0.006 A 
ATOM     18 CL   UNL     1      -6.415  -4.698  -9.338  0.00  0.00    -0.084 Cl
ENDBRANCH  11  12
ENDBRANCH   9  11
ENDBRANCH   2   5
BRANCH   1  19
ATOM     19  C   UNL     1       0.457  -3.653  -1.462  0.00  0.00    +0.108 C 
BRANCH  19  20
ATOM     20  C   UNL     1       0.691  -3.186  -0.024  0.00  0.00    +0.052 C 
BRANCH  20  27
ATOM     21  C   UNL     1      -0.016   1.348   0.009  0.00  0.00    +0.001 A 
ATOM     22  C   UNL     1       1.166   2.101   0.002  0.00  0.00    +0.002 A 
ATOM     23  C   UNL     1       2.391   1.535  -0.013  0.00  0.00    +0.026 A 
ATOM     24  C   UNL     1       2.529   0.120  -0.022  0.00  0.00    +0.043 A 
ATOM     25  N   UNL     1       3.587  -0.654  -0.037  0.00  0.00    -0.380 N 
ATOM     26  C   UNL     1       3.143  -2.053  -0.041  0.00  0.00    +0.144 C 
ATOM     27  C   UNL     1       1.631  -2.008  -0.025  0.00  0.00    -0.040 C 
ATOM     28  C   UNL     1       1.295  -0.698  -0.014  0.00  0.00    -0.001 A 
ATOM     29  C   UNL     1       0.002  -0.004   0.002  0.00  0.00    +0.010 A 
ATOM     30  H   UNL     1       4.509  -0.353  -0.045  0.00  0.00    +0.160 HD
ENDBRANCH  20  27
ENDBRANCH  19  20
ENDBRANCH   1  19
TORSDOF 6
