REMARK  Name = ZINC45307507
REMARK  8 active torsions:
REMARK  status: ('A' for Active; 'I' for Inactive)
REMARK    1  A    between atoms: C_1  and  C_2
REMARK    2  A    between atoms: C_5  and  C_29
REMARK    3  A    between atoms: N_12  and  C_13
REMARK    4  A    between atoms: C_13  and  C_15
REMARK    5  A    between atoms: C_13  and  C_23
REMARK    6  A    between atoms: C_20  and  O_21
REMARK    7  A    between atoms: O_21  and  C_22
REMARK    8  A    between atoms: N_27  and  C_28
REMARK                            x       y       z     vdW  Elec       q    Type
REMARK                         _______ _______ _______ _____ _____    ______ ____
ROOT
ATOM      1  C   UNL     1       4.168  -3.002   1.366  0.00  0.00    +0.174 C 
ENDROOT
BRANCH   1  11
ATOM      2  C   UNL     1      -0.018   1.525   0.006  0.00  0.00    +0.009 C 
ATOM      3  C   UNL     1       0.003  -0.005  -0.001  0.00  0.00    +0.004 C 
ATOM      4  C   UNL     1      -1.432  -0.536   0.010  0.00  0.00    +0.009 C 
ATOM      5  C   UNL     1      -1.413  -2.065  -0.030  0.00  0.00    +0.004 C 
ATOM      6  C   UNL     1      -0.691  -2.596   1.212  0.00  0.00    +0.112 C 
ATOM      7  N   UNL     1       0.639  -1.978   1.287  0.00  0.00    -0.285 N 
ATOM      8  C   UNL     1       0.741  -0.512   1.241  0.00  0.00    +0.112 C 
ATOM      9  C   UNL     1       1.746  -2.740   1.395  0.00  0.00    +0.303 C 
ATOM     10  O   UNL     1       1.644  -3.944   1.524  0.00  0.00    -0.253 OA
ATOM     11  N   UNL     1       2.965  -2.166   1.360  0.00  0.00    -0.285 N 
ATOM     12  C   UNL     1      -0.677  -2.534  -1.288  0.00  0.00    +0.009 C 
ATOM     13  H   UNL     1       3.046  -1.200   1.331  0.00  0.00    +0.151 HD
ENDBRANCH   1  11
BRANCH   1  14
ATOM     14  C   UNL     1       5.306  -2.249   0.726  0.00  0.00    +0.022 A 
ATOM     15  C   UNL     1       5.305  -0.867   0.722  0.00  0.00    +0.009 A 
ATOM     16  C   UNL     1       6.348  -0.176   0.135  0.00  0.00    +0.001 A 
ATOM     17  C   UNL     1       7.395  -0.865  -0.449  0.00  0.00    +0.004 A 
ATOM     18  C   UNL     1       7.402  -2.246  -0.447  0.00  0.00    +0.046 A 
ATOM     19  C   UNL     1       6.358  -2.942   0.146  0.00  0.00    +0.125 A 
BRANCH  19  20
ATOM     20  O   UNL     1       6.364  -4.301   0.154  0.00  0.00    -0.495 OA
ATOM     21  C   UNL     1       7.480  -4.948  -0.461  0.00  0.00    +0.277 C 
ENDBRANCH  19  20
ENDBRANCH   1  14
BRANCH   1  22
ATOM     22  C   UNL     1       4.531  -3.350   2.786  0.00  0.00    +0.135 A 
ATOM     23  N   UNL     1       4.547  -2.520   3.792  0.00  0.00    -0.238 NA
ATOM     24  C   UNL     1       4.917  -3.176   4.902  0.00  0.00    +0.130 A 
ATOM     25  C   UNL     1       5.138  -4.463   4.571  0.00  0.00    +0.106 A 
ATOM     26  N   UNL     1       4.889  -4.575   3.230  0.00  0.00    -0.336 N 
ATOM     27  C   UNL     1       4.993  -5.794   2.425  0.00  0.00    +0.150 C 
ENDBRANCH   1  22
TORSDOF 4
