REMARK  Name = ZINC28939199
REMARK  10 active torsions:
REMARK  status: ('A' for Active; 'I' for Inactive)
REMARK    1  A    between atoms: C_1  and  N_2
REMARK    2  A    between atoms: N_2  and  C_3
REMARK    3  A    between atoms: N_2  and  C_4
REMARK    4  A    between atoms: C_7  and  C_10
REMARK    5  A    between atoms: C_10  and  C_12
REMARK    6  A    between atoms: C_10  and  C_26
REMARK    7  A    between atoms: C_12  and  N_13
REMARK    8  A    between atoms: C_14  and  C_16
REMARK    9  A    between atoms: C_16  and  C_17
REMARK   10  A    between atoms: C_17  and  C_18
REMARK                            x       y       z     vdW  Elec       q    Type
REMARK                         _______ _______ _______ _____ _____    ______ ____
ROOT
ATOM      1  C   UNL     1      -2.531  -0.809   0.021  0.00  0.00    +0.068 C 
ENDROOT
BRANCH   1   2
ATOM      2  C   UNL     1      -1.039  -1.022   0.012  0.00  0.00    -0.013 A 
ATOM      3  C   UNL     1      -0.401  -2.203   0.009  0.00  0.00    +0.088 A 
ATOM      4  N   UNL     1       0.953  -2.002   0.001  0.00  0.00    -0.360 N 
ATOM      5  H   UNL     1       1.637  -2.863  -0.003  0.00  0.00    +0.165 HD
ATOM      6  C   UNL     1       1.225  -0.652  -0.000  0.00  0.00    +0.047 A 
ATOM      7  C   UNL     1      -0.010   0.021   0.006  0.00  0.00    +0.003 A 
ATOM      8  C   UNL     1      -0.043   1.416   0.007  0.00  0.00    +0.010 A 
ATOM      9  C   UNL     1       1.127   2.123   0.001  0.00  0.00    +0.001 A 
ATOM     10  C   UNL     1       2.348   1.464  -0.006  0.00  0.00    +0.002 A 
ATOM     11  C   UNL     1       2.404   0.087  -0.007  0.00  0.00    +0.026 A 
ENDBRANCH   1   2
BRANCH   1  15
ATOM     12  C   UNL     1      -4.206  -2.604   3.519  0.00  0.00    +0.029 A 
ATOM     13  C   UNL     1      -4.351  -1.240   3.299  0.00  0.00    +0.023 A 
ATOM     14  C   UNL     1      -3.808  -0.664   2.168  0.00  0.00    +0.006 A 
ATOM     15  C   UNL     1      -3.122  -1.442   1.254  0.00  0.00    -0.038 A 
ATOM     16  C   UNL     1      -2.980  -2.801   1.468  0.00  0.00    +0.006 A 
ATOM     17  C   UNL     1      -3.515  -3.383   2.600  0.00  0.00    +0.023 A 
BRANCH  12  19
ATOM     18  C   UNL     1      -5.372  -2.352   5.692  0.00  0.00    +0.129 C 
ATOM     19  N   UNL     1      -4.753  -3.191   4.663  0.00  0.00    -0.336 N 
ATOM     20  C   UNL     1      -4.709  -4.645   4.832  0.00  0.00    +0.129 C 
ENDBRANCH  12  19
ENDBRANCH   1  15
BRANCH   1  21
ATOM     21  C   UNL     1      -3.145  -1.451  -1.225  0.00  0.00    +0.117 C 
BRANCH  21  22
ATOM     22  N   UNL     1      -2.661  -0.756  -2.421  0.00  0.00    -0.314 N 
ATOM     23  C   UNL     1      -3.072  -1.152  -3.642  0.00  0.00    +0.213 C 
ATOM     24  O   UNL     1      -3.841  -2.083  -3.752  0.00  0.00    -0.276 OA
ATOM     25  H   UNL     1      -1.963   0.088  -2.322  0.00  0.00    +0.149 HD
BRANCH  23  26
ATOM     26  C   UNL     1      -2.574  -0.437  -4.872  0.00  0.00    +0.100 C 
BRANCH  26  27
ATOM     27  C   UNL     1      -3.188  -1.079  -6.118  0.00  0.00    +0.044 C 
BRANCH  27  28
ATOM     28  C   UNL     1      -2.691  -0.364  -7.348  0.00  0.00    -0.044 A 
ATOM     29  C   UNL     1      -3.391   0.718  -7.849  0.00  0.00    +0.006 A 
ATOM     30  C   UNL     1      -2.934   1.378  -8.974  0.00  0.00    +0.041 A 
ATOM     31  C   UNL     1      -1.779   0.950  -9.606  0.00  0.00    +0.158 A 
ATOM     32  C   UNL     1      -1.080  -0.138  -9.107  0.00  0.00    +0.159 A 
ATOM     33  C   UNL     1      -1.537  -0.794  -7.978  0.00  0.00    +0.045 A 
ATOM     34  F   UNL     1       0.047  -0.557  -9.723  0.00  0.00    -0.202 F 
ATOM     35  F   UNL     1      -1.335   1.592 -10.709  0.00  0.00    -0.202 F 
ENDBRANCH  27  28
ENDBRANCH  26  27
ENDBRANCH  23  26
ENDBRANCH  21  22
ENDBRANCH   1  21
TORSDOF 8
