REMARK  Name = ZINC38675807
REMARK  8 active torsions:
REMARK  status: ('A' for Active; 'I' for Inactive)
REMARK    1  A    between atoms: C_1  and  C_2
REMARK    2  A    between atoms: C_2  and  C_3
REMARK    3  A    between atoms: C_6  and  C_9
REMARK    4  A    between atoms: C_15  and  C_17
REMARK    5  A    between atoms: C_17  and  C_19
REMARK    6  A    between atoms: C_17  and  O_20
REMARK    7  A    between atoms: O_20  and  C_21
REMARK    8  A    between atoms: C_21  and  C_23
REMARK                            x       y       z     vdW  Elec       q    Type
REMARK                         _______ _______ _______ _____ _____    ______ ____
ROOT
ATOM      1  C   UNL     1      -5.356  -2.087   0.045  0.00  0.00    +0.080 A 
ATOM      2  C   UNL     1      -6.003  -2.345  -1.131  0.00  0.00    +0.076 A 
ATOM      3  S   UNL     1      -7.587  -2.909  -0.522  0.00  0.00    -0.060 S 
ATOM      4  C   UNL     1      -7.226  -2.745   1.221  0.00  0.00    +0.165 A 
ATOM      5  N   UNL     1      -5.984  -2.300   1.192  0.00  0.00    -0.225 NA
ATOM      6  N   UNL     1      -8.037  -3.019   2.316  0.00  0.00    -0.262 N 
ATOM      7  C   UNL     1      -9.290  -3.479   2.129  0.00  0.00    +0.259 C 
ATOM      8  O   UNL     1      -9.710  -3.654   1.005  0.00  0.00    -0.271 OA
ATOM      9  H   UNL     1      -7.700  -2.880   3.215  0.00  0.00    +0.157 HD
ENDROOT
BRANCH   1  13
ATOM     10  C   UNL     1      -1.360  -0.635   0.024  0.00  0.00    -0.048 A 
ATOM     11  C   UNL     1      -2.007  -0.853   1.226  0.00  0.00    +0.004 A 
ATOM     12  C   UNL     1      -3.305  -1.324   1.240  0.00  0.00    +0.010 A 
ATOM     13  C   UNL     1      -3.962  -1.580   0.038  0.00  0.00    +0.001 A 
ATOM     14  C   UNL     1      -3.305  -1.359  -1.171  0.00  0.00    +0.010 A 
ATOM     15  C   UNL     1      -2.010  -0.883  -1.172  0.00  0.00    +0.004 A 
BRANCH  10  17
ATOM     16  C   UNL     1       0.043   1.409   0.000  0.00  0.00    +0.009 C 
ATOM     17  C   UNL     1       0.057  -0.121   0.016  0.00  0.00    +0.032 C 
ENDBRANCH  10  17
ENDBRANCH   1  13
BRANCH   7  18
ATOM     18  C   UNL     1     -10.168  -3.776   3.316  0.00  0.00    +0.259 C 
ATOM     19  C   UNL     1     -10.464  -2.478   4.070  0.00  0.00    +0.062 C 
BRANCH  18  20
ATOM     20  O   UNL     1     -11.395  -4.356   2.868  0.00  0.00    -0.449 OA
BRANCH  20  21
ATOM     21  C   UNL     1     -12.005  -5.221   3.704  0.00  0.00    +0.337 C 
ATOM     22  O   UNL     1     -11.509  -5.474   4.782  0.00  0.00    -0.245 OA
BRANCH  21  23
ATOM     23  C   UNL     1     -13.275  -5.859   3.307  0.00  0.00    +0.054 C 
ATOM     24  C   UNL     1     -13.928  -5.502   2.146  0.00  0.00    +0.007 A 
ATOM     25  C   UNL     1     -13.383  -4.474   1.259  0.00  0.00    +0.010 A 
ATOM     26  C   UNL     1     -14.062  -4.158   0.129  0.00  0.00    +0.001 A 
ATOM     27  C   UNL     1     -15.266  -4.793  -0.203  0.00  0.00    +0.002 A 
ATOM     28  C   UNL     1     -15.826  -5.753   0.572  0.00  0.00    +0.024 A 
ATOM     29  C   UNL     1     -15.200  -6.157   1.772  0.00  0.00    +0.041 A 
ATOM     30  N   UNL     1     -15.754  -7.096   2.526  0.00  0.00    -0.285 N 
ATOM     31  C   UNL     1     -15.223  -7.524   3.666  0.00  0.00    +0.222 C 
ATOM     32  O   UNL     1     -15.783  -8.388   4.311  0.00  0.00    -0.275 OA
ATOM     33  C   UNL     1     -13.917  -6.940   4.156  0.00  0.00    +0.139 C 
ATOM     34  H   UNL     1     -16.590  -7.490   2.231  0.00  0.00    +0.155 HD
ENDBRANCH  21  23
ENDBRANCH  20  21
ENDBRANCH  18  20
ENDBRANCH   7  18
TORSDOF 6
