REMARK  Name = ZINC12707030
REMARK  6 active torsions:
REMARK  status: ('A' for Active; 'I' for Inactive)
REMARK    1  A    between atoms: C_1  and  C_2
REMARK    2  A    between atoms: C_5  and  C_8
REMARK    3  A    between atoms: C_8  and  C_9
REMARK    4  A    between atoms: C_9  and  C_10
REMARK    5  A    between atoms: N_12  and  C_13
REMARK    6  A    between atoms: C_23  and  C_25
REMARK                            x       y       z     vdW  Elec       q    Type
REMARK                         _______ _______ _______ _____ _____    ______ ____
ROOT
ATOM      1  C   UNL     1       1.350  -6.258  -2.704  0.00  0.00    +0.034 A 
ATOM      2  C   UNL     1       1.371  -7.011  -1.537  0.00  0.00    +0.023 A 
ATOM      3  C   UNL     1       1.476  -8.383  -1.610  0.00  0.00    +0.006 A 
ATOM      4  C   UNL     1       1.575  -9.023  -2.841  0.00  0.00    -0.041 A 
ATOM      5  C   UNL     1       1.553  -8.277  -3.999  0.00  0.00    -0.025 A 
ATOM      6  C   UNL     1       1.442  -6.896  -3.931  0.00  0.00    +0.028 A 
ATOM      7  C   UNL     1       1.637  -8.908  -5.366  0.00  0.00    +0.143 C 
ATOM      8  N   UNL     1       2.009 -10.321  -5.237  0.00  0.00    -0.293 N 
ATOM      9  C   UNL     1       1.325 -11.107  -4.196  0.00  0.00    +0.113 C 
ATOM     10  C   UNL     1       1.711 -10.523  -2.837  0.00  0.00    +0.054 C 
ATOM     11  C   UNL     1       2.938 -10.878  -6.038  0.00  0.00    +0.243 C 
ATOM     12  O   UNL     1       3.163 -12.071  -5.971  0.00  0.00    -0.270 OA
ENDROOT
BRANCH  11  13
ATOM     13  C   UNL     1       3.680 -10.042  -6.995  0.00  0.00    +0.011 C 
ATOM     14  C   UNL     1       3.091  -9.723  -8.127  0.00  0.00    -0.018 C 
ATOM     15  C   UNL     1       3.730  -8.882  -9.193  0.00  0.00    +0.027 C 
ATOM     16  C   UNL     1       4.934  -8.131  -8.621  0.00  0.00    +0.004 C 
ATOM     17  C   UNL     1       5.821  -9.132  -7.870  0.00  0.00    +0.005 C 
ATOM     18  C   UNL     1       5.069  -9.607  -6.625  0.00  0.00    +0.040 C 
ENDBRANCH  11  13
BRANCH   1  21
ATOM     19  C   UNL     1       1.827  -4.188  -1.633  0.00  0.00    +0.218 C 
ATOM     20  O   UNL     1       2.376  -4.792  -0.736  0.00  0.00    -0.275 OA
ATOM     21  N   UNL     1       1.242  -4.865  -2.641  0.00  0.00    -0.285 N 
ATOM     22  H   UNL     1       0.745  -4.386  -3.322  0.00  0.00    +0.155 HD
BRANCH  19  23
ATOM     23  C   UNL     1       1.800  -2.682  -1.621  0.00  0.00    +0.101 C 
BRANCH  23  24
ATOM     24  C   UNL     1       2.530  -2.168  -0.378  0.00  0.00    +0.044 C 
BRANCH  24  29
ATOM     25  C   UNL     1       2.427   3.609  -0.329  0.00  0.00    +0.044 C 
ATOM     26  C   UNL     1       2.454   2.102  -0.342  0.00  0.00    -0.050 A 
ATOM     27  C   UNL     1       1.438   1.388   0.265  0.00  0.00    +0.003 A 
ATOM     28  C   UNL     1       1.463   0.006   0.253  0.00  0.00    +0.004 A 
ATOM     29  C   UNL     1       2.503  -0.662  -0.366  0.00  0.00    -0.047 A 
ATOM     30  C   UNL     1       3.519   0.053  -0.973  0.00  0.00    +0.004 A 
ATOM     31  C   UNL     1       3.494   1.435  -0.962  0.00  0.00    +0.003 A 
ENDBRANCH  24  29
ENDBRANCH  23  24
ENDBRANCH  19  23
ENDBRANCH   1  21
TORSDOF 5
