REMARK  Name = ZINC19534965
REMARK  7 active torsions:
REMARK  status: ('A' for Active; 'I' for Inactive)
REMARK    1  A    between atoms: C_1  and  C_2
REMARK    2  A    between atoms: C_2  and  C_20
REMARK    3  A    between atoms: N_3  and  N_4
REMARK    4  A    between atoms: C_5  and  C_7
REMARK    5  A    between atoms: C_7  and  C_19
REMARK    6  A    between atoms: C_15  and  C_17
REMARK    7  A    between atoms: C_15  and  C_18
REMARK                            x       y       z     vdW  Elec       q    Type
REMARK                         _______ _______ _______ _____ _____    ______ ____
ROOT
ATOM      1  C   UNL     1       0.006   0.175   4.733  0.00  0.00    +0.121 C 
ATOM      2  C   UNL     1       0.539  -0.723   5.818  0.00  0.00    -0.016 A 
ATOM      3  C   UNL     1      -0.293  -1.710   6.326  0.00  0.00    +0.006 A 
ATOM      4  C   UNL     1       0.155  -2.558   7.319  0.00  0.00    +0.000 A 
ATOM      5  C   UNL     1       1.441  -2.423   7.810  0.00  0.00    +0.000 A 
ATOM      6  C   UNL     1       2.269  -1.440   7.307  0.00  0.00    +0.004 A 
ATOM      7  C   UNL     1       1.819  -0.586   6.312  0.00  0.00    -0.040 A 
ATOM      8  C   UNL     1       2.754   0.479   5.801  0.00  0.00    +0.057 C 
ATOM      9  C   UNL     1       2.246   1.024   4.466  0.00  0.00    +0.019 C 
ATOM     10  N   UNL     1       0.827   1.385   4.617  0.00  0.00    -0.294 NA
ATOM     11  C   UNL     1       2.391  -0.049   3.385  0.00  0.00    +0.028 C 
ATOM     12  C   UNL     1       3.053   2.264   4.076  0.00  0.00    +0.028 C 
ATOM     13  C   UNL     1      -1.433   0.572   5.071  0.00  0.00    +0.043 C 
ATOM     14  H   UNL     1       0.517   1.961   3.850  0.00  0.00    +0.124 HD
ENDROOT
BRANCH   1  16
ATOM     15  N   UNL     1       0.065   0.120   2.261  0.00  0.00    -0.205 N 
ATOM     16  C   UNL     1       0.022  -0.565   3.421  0.00  0.00    +0.257 C 
ATOM     17  O   UNL     1      -0.002  -1.778   3.408  0.00  0.00    -0.272 OA
ATOM     18  H   UNL     1       0.084   1.090   2.270  0.00  0.00    +0.177 HD
BRANCH  15  21
ATOM     19  C   UNL     1       0.151   1.597  -0.061  0.00  0.00    +0.068 C 
ATOM     20  C   UNL     1       0.121   0.091  -0.076  0.00  0.00    +0.063 C 
ATOM     21  N   UNL     1       0.080  -0.569   1.041  0.00  0.00    -0.185 NA
BRANCH  20  22
ATOM     22  C   UNL     1       0.137  -0.634  -1.361  0.00  0.00    -0.003 A 
ATOM     23  C   UNL     1       0.186   0.072  -2.564  0.00  0.00    +0.010 A 
ATOM     24  C   UNL     1       0.201  -0.612  -3.762  0.00  0.00    +0.001 A 
ATOM     25  C   UNL     1       0.167  -1.995  -3.772  0.00  0.00    +0.000 A 
ATOM     26  C   UNL     1       0.118  -2.702  -2.583  0.00  0.00    +0.001 A 
ATOM     27  C   UNL     1       0.109  -2.031  -1.378  0.00  0.00    +0.010 A 
ENDBRANCH  20  22
ENDBRANCH  15  21
ENDBRANCH   1  16
TORSDOF 3
