REMARK  Name = ZINC39657687
REMARK  11 active torsions:
REMARK  status: ('A' for Active; 'I' for Inactive)
REMARK    1  A    between atoms: C_1  and  C_2
REMARK    2  A    between atoms: C_2  and  C_3
REMARK    3  A    between atoms: C_3  and  C_4
REMARK    4  A    between atoms: C_4  and  C_5
REMARK    5  A    between atoms: C_9  and  C_18
REMARK    6  A    between atoms: N_20  and  C_21
REMARK    7  A    between atoms: C_21  and  C_22
REMARK    8  A    between atoms: C_27  and  S_28
REMARK    9  A    between atoms: S_28  and  C_29
REMARK   10  A    between atoms: C_34  and  C_35
REMARK   11  A    between atoms: C_35  and  O_36
REMARK                            x       y       z     vdW  Elec       q    Type
REMARK                         _______ _______ _______ _____ _____    ______ ____
ROOT
ATOM      1  C   UNL     1      -2.001  -5.672   2.813  0.00  0.00    +0.218 C 
ATOM      2  O   UNL     1      -1.871  -4.584   3.334  0.00  0.00    -0.275 OA
ATOM      3  N   UNL     1      -1.879  -6.792   3.553  0.00  0.00    -0.311 N 
ATOM      4  H   UNL     1      -1.913  -7.662   3.125  0.00  0.00    +0.149 HD
ENDROOT
BRANCH   1   9
ATOM      5  C   UNL     1      -2.484  -2.237   0.568  0.00  0.00    +0.216 C 
ATOM      6  O   UNL     1      -3.451  -1.506   0.538  0.00  0.00    -0.276 OA
ATOM      7  N   UNL     1      -2.643  -3.571   0.455  0.00  0.00    -0.300 N 
ATOM      8  C   UNL     1      -1.606  -4.623   0.572  0.00  0.00    +0.121 C 
ATOM      9  C   UNL     1      -2.299  -5.771   1.339  0.00  0.00    +0.100 C 
ATOM     10  C   UNL     1      -3.801  -5.566   1.079  0.00  0.00    -0.004 C 
ATOM     11  C   UNL     1      -3.897  -4.317   0.191  0.00  0.00    +0.115 C 
ATOM     12  C   UNL     1      -4.537  -5.327   2.394  0.00  0.00    -0.010 C 
ATOM     13  C   UNL     1      -6.036  -5.183   2.115  0.00  0.00    -0.082 C 
ATOM     14  N   UNL     1      -6.534  -6.402   1.466  0.00  0.00    +0.379 N 
ATOM     15  C   UNL     1      -5.888  -6.574   0.160  0.00  0.00    -0.082 C 
ATOM     16  C   UNL     1      -4.383  -6.776   0.356  0.00  0.00    -0.010 C 
ATOM     17  H   UNL     1      -6.329  -7.199   2.049  0.00  0.00    -0.086 HD
ATOM     18  H   UNL     1      -7.533  -6.329   1.339  0.00  0.00    -0.086 HD
BRANCH   5  19
ATOM     19  C   UNL     1      -1.104  -1.654   0.732  0.00  0.00    +0.096 C 
BRANCH  19  20
ATOM     20  C   UNL     1      -1.190  -0.127   0.707  0.00  0.00    +0.009 C 
BRANCH  20  22
ATOM     21  C   UNL     1       0.134   1.988   0.850  0.00  0.00    +0.004 C 
ATOM     22  C   UNL     1       0.221   0.463   0.751  0.00  0.00    -0.003 C 
ENDBRANCH  20  22
ENDBRANCH  19  20
ENDBRANCH   5  19
ENDBRANCH   1   9
BRANCH   3  23
ATOM     23  C   UNL     1      -1.697  -6.696   5.003  0.00  0.00    +0.140 C 
BRANCH  23  24
ATOM     24  C   UNL     1      -1.467  -8.072   5.573  0.00  0.00    -0.017 A 
ATOM     25  C   UNL     1      -2.493  -8.734   6.219  0.00  0.00    +0.006 A 
ATOM     26  C   UNL     1      -2.282  -9.996   6.742  0.00  0.00    +0.000 A 
ATOM     27  C   UNL     1      -1.044 -10.601   6.620  0.00  0.00    +0.001 A 
ATOM     28  C   UNL     1      -0.014  -9.946   5.976  0.00  0.00    +0.015 A 
ATOM     29  C   UNL     1      -0.224  -8.679   5.444  0.00  0.00    +0.017 A 
BRANCH  29  30
ATOM     30  S   UNL     1       1.086  -7.842   4.614  0.00  0.00    -0.089 S 
BRANCH  30  31
ATOM     31  C   UNL     1       1.641  -6.651   5.787  0.00  0.00    +0.018 A 
ATOM     32  C   UNL     1       1.117  -6.644   7.074  0.00  0.00    +0.015 A 
ATOM     33  C   UNL     1       1.554  -5.709   7.991  0.00  0.00    +0.001 A 
ATOM     34  C   UNL     1       2.513  -4.779   7.629  0.00  0.00    +0.000 A 
ATOM     35  C   UNL     1       3.037  -4.783   6.349  0.00  0.00    +0.007 A 
ATOM     36  C   UNL     1       2.608  -5.719   5.429  0.00  0.00    -0.008 A 
BRANCH  36  37
ATOM     37  C   UNL     1       3.185  -5.727   4.037  0.00  0.00    +0.192 C 
BRANCH  37  38
ATOM     38  O   UNL     1       4.062  -4.611   3.878  0.00  0.00    -0.390 OA
ATOM     39  H   UNL     1       4.411  -4.508   2.982  0.00  0.00    +0.210 HD
ENDBRANCH  37  38
ENDBRANCH  36  37
ENDBRANCH  30  31
ENDBRANCH  29  30
ENDBRANCH  23  24
ENDBRANCH   3  23
TORSDOF 10
