REMARK  Name = ZINC39199986
REMARK  9 active torsions:
REMARK  status: ('A' for Active; 'I' for Inactive)
REMARK    1  A    between atoms: C_1  and  C_2
REMARK    2  A    between atoms: C_2  and  C_3
REMARK    3  A    between atoms: C_2  and  C_4
REMARK    4  A    between atoms: C_2  and  S_5
REMARK    5  A    between atoms: S_5  and  C_6
REMARK    6  A    between atoms: C_11  and  C_12
REMARK    7  A    between atoms: C_12  and  N_13
REMARK    8  A    between atoms: N_16  and  C_19
REMARK    9  A    between atoms: C_19  and  C_20
REMARK                            x       y       z     vdW  Elec       q    Type
REMARK                         _______ _______ _______ _____ _____    ______ ____
ROOT
ATOM      1  N   UNL     1       2.384   0.752  -4.511  0.00  0.00    +0.384 N 
ATOM      2  C   UNL     1       3.088   1.983  -4.894  0.00  0.00    -0.063 C 
ATOM      3  C   UNL     1       2.202   2.808  -5.829  0.00  0.00    +0.066 C 
ATOM      4  N   UNL     1       1.882   2.015  -7.024  0.00  0.00    -0.301 NA
ATOM      5  C   UNL     1       1.198   0.767  -6.654  0.00  0.00    +0.066 C 
ATOM      6  C   UNL     1       2.093  -0.042  -5.712  0.00  0.00    -0.063 C 
ATOM      7  H   UNL     1       1.519   0.990  -4.048  0.00  0.00    -0.081 HD
ENDROOT
BRANCH   1   8
ATOM      8  C   UNL     1       3.228  -0.032  -3.599  0.00  0.00    -0.042 C 
BRANCH   8  14
ATOM      9  C   UNL     1       2.431   0.729  -1.344  0.00  0.00    +0.010 A 
ATOM     10  C   UNL     1       2.620   1.430  -0.159  0.00  0.00    +0.015 A 
ATOM     11  C   UNL     1       3.791   2.133   0.046  0.00  0.00    +0.001 A 
ATOM     12  C   UNL     1       4.775   2.140  -0.925  0.00  0.00    +0.000 A 
ATOM     13  C   UNL     1       4.590   1.443  -2.106  0.00  0.00    +0.003 A 
ATOM     14  C   UNL     1       3.425   0.733  -2.316  0.00  0.00    -0.051 A 
BRANCH   9  15
ATOM     15  S   UNL     1       0.939  -0.170  -1.610  0.00  0.00    -0.119 S 
BRANCH  15  17
ATOM     16  C   UNL     1      -0.305   1.448   0.211  0.00  0.00    +0.022 C 
ATOM     17  C   UNL     1       0.050  -0.019  -0.036  0.00  0.00    +0.013 C 
ATOM     18  C   UNL     1       0.937  -0.529   1.101  0.00  0.00    +0.022 C 
ATOM     19  C   UNL     1      -1.233  -0.851  -0.094  0.00  0.00    +0.022 C 
ENDBRANCH  15  17
ENDBRANCH   9  15
ENDBRANCH   8  14
ENDBRANCH   1   8
BRANCH   4  20
ATOM     20  C   UNL     1       1.078   2.794  -7.974  0.00  0.00    +0.126 C 
BRANCH  20  21
ATOM     21  C   UNL     1       0.977   2.047  -9.279  0.00  0.00    +0.005 A 
ATOM     22  C   UNL     1       0.045   1.147  -9.677  0.00  0.00    +0.014 A 
ATOM     23  C   UNL     1       0.154   0.580 -10.933  0.00  0.00    +0.028 A 
ATOM     24  C   UNL     1       1.190   0.942 -11.730  0.00  0.00    +0.078 A 
ATOM     25  S   UNL     1       2.049   2.123 -10.704  0.00  0.00    -0.080 S 
ATOM     26 CL   UNL     1       1.576   0.403 -13.335  0.00  0.00    -0.076 Cl
ENDBRANCH  20  21
ENDBRANCH   4  20
TORSDOF 6
