REMARK  Name = ZINC40947250
REMARK  8 active torsions:
REMARK  status: ('A' for Active; 'I' for Inactive)
REMARK    1  A    between atoms: C_3  and  C_8
REMARK    2  A    between atoms: C_8  and  O_9
REMARK    3  A    between atoms: O_9  and  C_10
REMARK    4  A    between atoms: C_13  and  C_16
REMARK    5  A    between atoms: N_17  and  N_18
REMARK    6  A    between atoms: C_19  and  C_21
REMARK    7  A    between atoms: C_21  and  S_22
REMARK    8  A    between atoms: S_22  and  C_23
REMARK                            x       y       z     vdW  Elec       q    Type
REMARK                         _______ _______ _______ _____ _____    ______ ____
ROOT
ATOM      1  C   UNL     1       8.886   5.236   2.025  0.00  0.00    +0.138 C 
ATOM      2  N   UNL     1       9.588   5.593   0.993  0.00  0.00    -0.188 NA
ENDROOT
BRANCH   1   6
ATOM      3  C   UNL     1       6.152   2.003   1.715  0.00  0.00    +0.121 A 
ATOM      4  C   UNL     1       7.114   2.193   0.731  0.00  0.00    +0.046 A 
ATOM      5  C   UNL     1       8.004   3.241   0.828  0.00  0.00    +0.013 A 
ATOM      6  C   UNL     1       7.936   4.114   1.917  0.00  0.00    -0.005 A 
ATOM      7  C   UNL     1       6.967   3.919   2.904  0.00  0.00    +0.013 A 
ATOM      8  C   UNL     1       6.078   2.871   2.797  0.00  0.00    +0.046 A 
BRANCH   3   9
ATOM      9  O   UNL     1       5.277   0.968   1.616  0.00  0.00    -0.487 OA
BRANCH   9  10
ATOM     10  C   UNL     1       5.409   0.114   0.478  0.00  0.00    +0.264 C 
BRANCH  10  13
ATOM     11  C   UNL     1       2.165  -1.758   0.008  0.00  0.00    +0.001 A 
ATOM     12  C   UNL     1       3.126  -0.766  -0.047  0.00  0.00    +0.007 A 
ATOM     13  C   UNL     1       4.362  -0.968   0.538  0.00  0.00    -0.009 A 
ATOM     14  C   UNL     1       4.638  -2.162   1.177  0.00  0.00    +0.022 A 
ATOM     15  C   UNL     1       3.676  -3.155   1.232  0.00  0.00    +0.018 A 
ATOM     16  C   UNL     1       2.439  -2.952   0.647  0.00  0.00    +0.015 A 
ATOM     17 BR   UNL     1       4.053  -4.789   2.105  0.00  0.00    -0.050 Br
ENDBRANCH  10  13
ENDBRANCH   9  10
ENDBRANCH   3   9
ENDBRANCH   1   6
BRANCH   2  18
ATOM     18  N   UNL     1       9.117   5.333  -0.300  0.00  0.00    -0.206 N 
ATOM     19  C   UNL     1       9.901   5.583  -1.367  0.00  0.00    +0.242 C 
ATOM     20  O   UNL     1      11.016   6.034  -1.207  0.00  0.00    -0.273 OA
ATOM     21  H   UNL     1       8.225   4.972  -0.427  0.00  0.00    +0.177 HD
BRANCH  19  22
ATOM     22  C   UNL     1       9.394   5.302  -2.757  0.00  0.00    +0.173 C 
BRANCH  22  23
ATOM     23  S   UNL     1      10.673   5.740  -3.967  0.00  0.00    -0.088 S 
BRANCH  23  24
ATOM     24  C   UNL     1       9.936   5.359  -5.522  0.00  0.00    +0.160 A 
ATOM     25  N   UNL     1       8.737   4.876  -5.784  0.00  0.00    -0.133 NA
ATOM     26  N   UNL     1       8.359   4.651  -7.087  0.00  0.00    -0.125 NA
ATOM     27  C   UNL     1       9.197   4.919  -8.069  0.00  0.00    +0.180 A 
ATOM     28  S   UNL     1      10.611   5.533  -7.167  0.00  0.00    -0.025 S 
ATOM     29  N   UNL     1       9.024   4.770  -9.440  0.00  0.00    -0.336 N 
ATOM     30  H   UNL     1       8.187   4.423  -9.789  0.00  0.00    +0.144 HD
ATOM     31  H   UNL     1       9.739   5.013 -10.049  0.00  0.00    +0.144 HD
ENDBRANCH  23  24
ENDBRANCH  22  23
ENDBRANCH  19  22
ENDBRANCH   2  18
TORSDOF 8
