REMARK  Name = ZINC63626181
REMARK  7 active torsions:
REMARK  status: ('A' for Active; 'I' for Inactive)
REMARK    1  A    between atoms: C_1  and  O_2
REMARK    2  A    between atoms: O_2  and  C_3
REMARK    3  A    between atoms: C_9  and  C_12
REMARK    4  A    between atoms: C_12  and  C_13
REMARK    5  A    between atoms: C_13  and  N_14
REMARK    6  A    between atoms: N_14  and  C_15
REMARK    7  A    between atoms: N_20  and  C_23
REMARK                            x       y       z     vdW  Elec       q    Type
REMARK                         _______ _______ _______ _____ _____    ______ ____
ROOT
ATOM      1  N   UNL     1      -0.574  -7.039   1.206  0.00  0.00    -0.305 NA
ATOM      2  H   UNL     1      -0.963  -7.844   0.738  0.00  0.00    +0.123 HD
ENDROOT
BRANCH   1   3
ATOM      3  C   UNL     1      -0.440  -7.282   2.649  0.00  0.00    +0.150 C 
ATOM      4  C   UNL     1      -0.119  -8.766   2.922  0.00  0.00    +0.125 C 
ATOM      5  C   UNL     1       1.232  -8.717   3.601  0.00  0.00    +0.228 C 
ATOM      6  O   UNL     1       1.858  -9.681   3.989  0.00  0.00    -0.275 OA
ATOM      7  N   UNL     1       1.627  -7.442   3.706  0.00  0.00    -0.209 N 
ATOM      8  C   UNL     1       0.761  -6.548   3.204  0.00  0.00    +0.244 C 
ATOM      9  O   UNL     1       0.915  -5.346   3.194  0.00  0.00    -0.273 OA
BRANCH   7  10
ATOM     10  C   UNL     1       2.845  -7.071   4.294  0.00  0.00    +0.045 A 
ATOM     11  C   UNL     1       2.853  -6.371   5.493  0.00  0.00    +0.027 A 
ATOM     12  C   UNL     1       4.053  -6.006   6.071  0.00  0.00    +0.041 A 
ATOM     13  C   UNL     1       5.248  -6.338   5.456  0.00  0.00    +0.142 A 
ATOM     14  C   UNL     1       5.243  -7.036   4.260  0.00  0.00    +0.078 A 
ATOM     15  C   UNL     1       4.043  -7.407   3.681  0.00  0.00    +0.046 A 
ATOM     16 CL   UNL     1       6.743  -7.450   3.490  0.00  0.00    -0.081 Cl
ATOM     17  F   UNL     1       6.421  -5.979   6.024  0.00  0.00    -0.204 F 
ENDBRANCH   7  10
ENDBRANCH   1   3
BRANCH   1  18
ATOM     18  C   UNL     1      -1.380  -5.839   0.947  0.00  0.00    +0.086 C 
BRANCH  18  19
ATOM     19  C   UNL     1      -1.497  -5.619  -0.562  0.00  0.00    +0.048 C 
BRANCH  19  26
ATOM     20  C   UNL     1      -0.366  -1.236  -1.340  0.00  0.00    +0.121 A 
ATOM     21  C   UNL     1      -1.461  -0.379  -1.547  0.00  0.00    +0.047 A 
ATOM     22  C   UNL     1      -2.739  -0.813  -1.519  0.00  0.00    +0.029 A 
ATOM     23  C   UNL     1      -3.021  -2.229  -1.264  0.00  0.00    +0.043 A 
ATOM     24  N   UNL     1      -4.144  -2.898  -1.184  0.00  0.00    -0.380 N 
ATOM     25  C   UNL     1      -3.832  -4.305  -0.906  0.00  0.00    +0.144 C 
ATOM     26  C   UNL     1      -2.324  -4.388  -0.828  0.00  0.00    -0.040 C 
ATOM     27  C   UNL     1      -1.868  -3.133  -1.046  0.00  0.00    +0.002 A 
ATOM     28  C   UNL     1      -0.519  -2.561  -1.103  0.00  0.00    +0.055 A 
ATOM     29  H   UNL     1      -5.034  -2.526  -1.290  0.00  0.00    +0.160 HD
BRANCH  20  31
ATOM     30  C   UNL     1       1.005   0.684  -1.639  0.00  0.00    +0.277 C 
ATOM     31  O   UNL     1       0.890  -0.718  -1.386  0.00  0.00    -0.495 OA
ENDBRANCH  20  31
ENDBRANCH  19  26
ENDBRANCH  18  19
ENDBRANCH   1  18
TORSDOF 6
