REMARK  Name = ZINC12429250
REMARK  13 active torsions:
REMARK  status: ('A' for Active; 'I' for Inactive)
REMARK    1  A    between atoms: C_1  and  C_2
REMARK    2  A    between atoms: C_2  and  N_59
REMARK    3  A    between atoms: C_3  and  C_22
REMARK    4  A    between atoms: C_5  and  C_12
REMARK    5  A    between atoms: C_8  and  C_9
REMARK    6  A    between atoms: C_8  and  C_10
REMARK    7  A    between atoms: C_10  and  O_11
REMARK    8  A    between atoms: C_12  and  N_61
REMARK    9  A    between atoms: C_13  and  C_14
REMARK   10  A    between atoms: C_13  and  N_61
REMARK   11  A    between atoms: N_17  and  C_19
REMARK   12  A    between atoms: C_19  and  C_20
REMARK   13  A    between atoms: C_19  and  C_21
REMARK                            x       y       z     vdW  Elec       q    Type
REMARK                         _______ _______ _______ _____ _____    ______ ____
ROOT
ATOM      1  C   UNL     1       3.341   1.526   1.478  0.00  0.00    -0.035 C 
ATOM      2  C   UNL     1       2.072   0.786   1.005  0.00  0.00    -0.039 C 
ATOM      3  C   UNL     1       2.550  -0.628   0.618  0.00  0.00    -0.010 C 
ATOM      4  C   UNL     1       4.073  -0.622   0.889  0.00  0.00    -0.044 C 
ATOM      5  C   UNL     1       4.370  -1.185   2.280  0.00  0.00    -0.007 C 
ATOM      6  N   UNL     1       4.429   0.793   0.821  0.00  0.00    +0.389 N 
ATOM      7  H   UNL     1       4.510   1.088  -0.159  0.00  0.00    -0.080 HD
ENDROOT
BRANCH   1   8
ATOM      8  C   UNL     1       3.305   2.967   1.037  0.00  0.00    -0.061 A 
ATOM      9  C   UNL     1       3.654   3.302  -0.258  0.00  0.00    +0.003 A 
ATOM     10  C   UNL     1       3.616   4.623  -0.664  0.00  0.00    +0.020 A 
ATOM     11  C   UNL     1       3.238   5.610   0.228  0.00  0.00    +0.041 A 
ATOM     12  C   UNL     1       2.894   5.275   1.525  0.00  0.00    +0.020 A 
ATOM     13  C   UNL     1       2.927   3.953   1.929  0.00  0.00    +0.003 A 
ATOM     14 CL   UNL     1       3.197   7.270  -0.280  0.00  0.00    -0.084 Cl
ENDBRANCH   1   8
BRANCH   6  16
ATOM     15  C   UNL     1       6.118   2.522   1.384  0.00  0.00    -0.017 C 
ATOM     16  C   UNL     1       5.728   1.048   1.519  0.00  0.00    -0.081 C 
ENDBRANCH   6  16
BRANCH   4  17
ATOM     17  C   UNL     1       4.809  -1.430  -0.182  0.00  0.00    +0.143 C 
BRANCH  17  18
ATOM     18  O   UNL     1       4.421  -2.803  -0.093  0.00  0.00    -0.396 OA
ATOM     19  H   UNL     1       4.849  -3.376  -0.744  0.00  0.00    +0.209 HD
ENDBRANCH  17  18
ENDBRANCH   4  17
BRANCH   2  20
ATOM     20  C   UNL     1       1.466   1.493  -0.209  0.00  0.00    -0.080 C 
BRANCH  20  21
ATOM     21  N   UNL     1       0.210   0.816  -0.586  0.00  0.00    +0.382 N 
ATOM     22  H   UNL     1      -0.445   0.856   0.203  0.00  0.00    -0.085 HD
ATOM     23  H   UNL     1       0.410  -0.164  -0.817  0.00  0.00    -0.085 HD
BRANCH  21  24
ATOM     24  C   UNL     1      -0.397   1.478  -1.756  0.00  0.00    -0.044 C 
BRANCH  24  25
ATOM     25  C   UNL     1      -1.675   0.767  -2.118  0.00  0.00    -0.027 A 
ATOM     26  C   UNL     1      -2.950   1.066  -1.627  0.00  0.00    +0.136 A 
ATOM     27  N   UNL     1      -3.803   0.235  -2.170  0.00  0.00    -0.179 NA
ATOM     28  N   UNL     1      -3.095  -0.621  -3.024  0.00  0.00    -0.269 N 
ATOM     29  C   UNL     1      -1.793  -0.271  -2.978  0.00  0.00    +0.110 A 
BRANCH  28  30
ATOM     30  C   UNL     1      -3.669  -1.702  -3.829  0.00  0.00    +0.101 C 
ATOM     31  C   UNL     1      -3.958  -1.189  -5.241  0.00  0.00    +0.032 C 
ATOM     32  C   UNL     1      -2.678  -2.865  -3.902  0.00  0.00    +0.032 C 
ENDBRANCH  28  30
ENDBRANCH  24  25
ENDBRANCH  21  24
ENDBRANCH  20  21
ENDBRANCH   2  20
TORSDOF 9
