REMARK  Name = ZINC13914861
REMARK  12 active torsions:
REMARK  status: ('A' for Active; 'I' for Inactive)
REMARK    1  A    between atoms: C_1  and  C_2
REMARK    2  A    between atoms: C_2  and  O_3
REMARK    3  A    between atoms: O_3  and  C_4
REMARK    4  A    between atoms: C_6  and  C_20
REMARK    5  A    between atoms: C_9  and  O_10
REMARK    6  A    between atoms: O_10  and  C_11
REMARK    7  A    between atoms: C_11  and  C_12
REMARK    8  A    between atoms: C_22  and  C_29
REMARK    9  A    between atoms: C_23  and  C_28
REMARK   10  A    between atoms: C_29  and  O_31
REMARK   11  A    between atoms: O_31  and  C_32
REMARK   12  A    between atoms: C_32  and  C_33
REMARK                            x       y       z     vdW  Elec       q    Type
REMARK                         _______ _______ _______ _____ _____    ______ ____
ROOT
ATOM      1  C   UNL     1       0.467  -1.191  -0.776  0.00  0.00    +0.162 A 
ATOM      2  C   UNL     1       0.074  -2.257   0.018  0.00  0.00    +0.055 A 
ATOM      3  C   UNL     1       0.452  -3.544  -0.317  0.00  0.00    -0.019 A 
ATOM      4  C   UNL     1       1.222  -3.771  -1.442  0.00  0.00    +0.009 A 
ATOM      5  C   UNL     1       1.617  -2.712  -2.239  0.00  0.00    +0.050 A 
ATOM      6  C   UNL     1       1.237  -1.421  -1.913  0.00  0.00    +0.162 A 
ENDROOT
BRANCH   3   7
ATOM      7  C   UNL     1       0.024  -4.702   0.548  0.00  0.00    +0.141 C 
ATOM      8  C   UNL     1       0.836  -4.655   1.826  0.00  0.00    +0.078 C 
ATOM      9  C   UNL     1       0.164  -4.569   2.995  0.00  0.00    +0.019 C 
ATOM     10  N   UNL     1      -1.199  -4.525   3.022  0.00  0.00    -0.300 N 
ATOM     11  C   UNL     1      -1.966  -4.562   1.925  0.00  0.00    +0.135 C 
ATOM     12  S   UNL     1      -3.667  -4.498   2.100  0.00  0.00    -0.019 S 
ATOM     13  N   UNL     1      -1.441  -4.647   0.687  0.00  0.00    -0.315 N 
ATOM     14  C   UNL     1       0.933  -4.520   4.290  0.00  0.00    +0.061 C 
ATOM     15  H   UNL     1      -1.638  -4.463   3.885  0.00  0.00    +0.154 HD
ATOM     16  H   UNL     1      -2.015  -4.672  -0.095  0.00  0.00    +0.149 HD
BRANCH   8  17
ATOM     17  C   UNL     1       2.249  -4.702   1.797  0.00  0.00    +0.339 C 
ATOM     18  O   UNL     1       2.885  -4.529   2.820  0.00  0.00    -0.245 OA
BRANCH  17  19
ATOM     19  O   UNL     1       2.893  -4.939   0.635  0.00  0.00    -0.462 OA
BRANCH  19  20
ATOM     20  C   UNL     1       4.313  -5.085   0.697  0.00  0.00    +0.229 C 
ATOM     21  C   UNL     1       4.874  -5.226  -0.719  0.00  0.00    +0.048 C 
ENDBRANCH  19  20
ENDBRANCH  17  19
ENDBRANCH   8  17
ENDBRANCH   3   7
BRANCH   1  22
ATOM     22  O   UNL     1       0.096   0.076  -0.449  0.00  0.00    -0.489 OA
BRANCH  22  24
ATOM     23  C   UNL     1      -0.823   1.741   1.042  0.00  0.00    +0.048 C 
ATOM     24  C   UNL     1      -0.597   0.249   0.789  0.00  0.00    +0.226 C 
ENDBRANCH  22  24
ENDBRANCH   1  22
BRANCH   6  25
ATOM     25  O   UNL     1       1.620  -0.379  -2.698  0.00  0.00    -0.484 OA
BRANCH  25  26
ATOM     26  C   UNL     1       2.409  -0.689  -3.848  0.00  0.00    +0.266 C 
BRANCH  26  27
ATOM     27  C   UNL     1       2.735   0.581  -4.591  0.00  0.00    +0.008 A 
ATOM     28  C   UNL     1       2.276   1.796  -4.118  0.00  0.00    +0.010 A 
ATOM     29  C   UNL     1       2.575   2.961  -4.798  0.00  0.00    +0.020 A 
ATOM     30  C   UNL     1       3.336   2.912  -5.953  0.00  0.00    +0.042 A 
ATOM     31  C   UNL     1       3.796   1.697  -6.427  0.00  0.00    +0.040 A 
ATOM     32  C   UNL     1       3.500   0.531  -5.743  0.00  0.00    +0.049 A 
ATOM     33 CL   UNL     1       4.083  -0.994  -6.333  0.00  0.00    -0.083 Cl
ATOM     34 CL   UNL     1       3.711   4.376  -6.808  0.00  0.00    -0.083 Cl
ENDBRANCH  26  27
ENDBRANCH  25  26
ENDBRANCH   6  25
TORSDOF 9
