REMARK  Name = ZINC36159919
REMARK  8 active torsions:
REMARK  status: ('A' for Active; 'I' for Inactive)
REMARK    1  A    between atoms: C_1  and  C_2
REMARK    2  A    between atoms: C_2  and  C_3
REMARK    3  A    between atoms: C_3  and  C_4
REMARK    4  A    between atoms: C_3  and  C_5
REMARK    5  A    between atoms: C_3  and  C_6
REMARK    6  A    between atoms: C_10  and  C_23
REMARK    7  A    between atoms: C_12  and  N_15
REMARK    8  A    between atoms: C_23  and  N_24
REMARK                            x       y       z     vdW  Elec       q    Type
REMARK                         _______ _______ _______ _____ _____    ______ ____
ROOT
ATOM      1  C   UNL     1       0.851  -2.069  -1.413  0.00  0.00    -0.004 C 
ATOM      2  C   UNL     1       1.392  -2.616  -0.091  0.00  0.00    +0.004 C 
ATOM      3  C   UNL     1       1.291  -4.143  -0.092  0.00  0.00    +0.003 C 
ATOM      4  C   UNL     1       2.113  -4.708  -1.252  0.00  0.00    -0.011 C 
ATOM      5  C   UNL     1       1.572  -4.160  -2.574  0.00  0.00    +0.058 C 
ATOM      6  C   UNL     1       1.673  -2.634  -2.574  0.00  0.00    +0.023 C 
ENDROOT
BRANCH   5   7
ATOM      7  N   UNL     1       2.361  -4.703  -3.688  0.00  0.00    -0.296 NA
ATOM      8  C   UNL     1       1.930  -4.129  -4.965  0.00  0.00    +0.107 C 
ATOM      9  C   UNL     1       3.011  -4.352  -6.028  0.00  0.00    +0.181 C 
ATOM     10  S   UNL     1       3.231  -6.143  -6.262  0.00  0.00    -0.029 S 
ATOM     11  O   UNL     1       4.434  -6.360  -6.986  0.00  0.00    -0.174 OA
ATOM     12  O   UNL     1       2.016  -6.687  -6.758  0.00  0.00    -0.174 OA
ATOM     13  C   UNL     1       3.472  -6.712  -4.552  0.00  0.00    +0.181 C 
ATOM     14  C   UNL     1       2.328  -6.167  -3.691  0.00  0.00    +0.107 C 
ENDBRANCH   5   7
BRANCH   1  15
ATOM     15  C   UNL     1       0.951  -0.542  -1.413  0.00  0.00    -0.032 C 
ATOM     16  C   UNL     1       0.410   0.005  -2.735  0.00  0.00    +0.011 C 
ATOM     17  C   UNL     1       2.415  -0.128  -1.250  0.00  0.00    +0.011 C 
BRANCH  15  19
ATOM     18  C   UNL     1       0.230   1.550  -0.252  0.00  0.00    +0.004 C 
ATOM     19  C   UNL     1       0.129   0.023  -0.253  0.00  0.00    +0.003 C 
ENDBRANCH  15  19
ENDBRANCH   1  15
BRANCH   4  20
ATOM     20  C   UNL     1       3.577  -4.293  -1.089  0.00  0.00    -0.081 C 
BRANCH  20  21
ATOM     21  N   UNL     1       4.134  -4.925   0.114  0.00  0.00    +0.378 N 
ATOM     22  H   UNL     1       5.099  -4.652   0.221  0.00  0.00    -0.090 HD
ATOM     23  H   UNL     1       3.609  -4.630   0.923  0.00  0.00    -0.090 HD
ATOM     24  H   UNL     1       4.077  -5.929   0.024  0.00  0.00    -0.090 HD
ENDBRANCH  20  21
ENDBRANCH   4  20
TORSDOF 5
