REMARK  Name = ZINC39541623
REMARK  4 active torsions:
REMARK  status: ('A' for Active; 'I' for Inactive)
REMARK    1  A    between atoms: C_4  and  N_7
REMARK    2  A    between atoms: C_20  and  C_30
REMARK    3  A    between atoms: C_21  and  O_29
REMARK    4  A    between atoms: C_35  and  O_36
REMARK                            x       y       z     vdW  Elec       q    Type
REMARK                         _______ _______ _______ _____ _____    ______ ____
ROOT
ATOM      1  N   UNL     1       3.622  -0.651  -0.036  0.00  0.00    -0.306 N 
ATOM      2  C   UNL     1       4.543  -0.621  -1.050  0.00  0.00    +0.055 A 
ATOM      3  C   UNL     1       4.546   0.043  -2.274  0.00  0.00    +0.027 A 
ATOM      4  C   UNL     1       5.651  -0.141  -3.087  0.00  0.00    +0.002 A 
ATOM      5  C   UNL     1       6.715  -0.947  -2.713  0.00  0.00    +0.001 A 
ATOM      6  C   UNL     1       6.741  -1.613  -1.516  0.00  0.00    +0.010 A 
ATOM      7  C   UNL     1       5.636  -1.447  -0.666  0.00  0.00    +0.004 A 
ATOM      8  C   UNL     1       5.332  -1.957   0.592  0.00  0.00    -0.009 A 
ATOM      9  C   UNL     1       4.103  -1.457   0.963  0.00  0.00    +0.094 A 
ATOM     10  C   UNL     1       3.518  -1.826   2.265  0.00  0.00    +0.161 A 
ATOM     11  N   UNL     1       2.240  -1.657   2.487  0.00  0.00    -0.227 NA
ATOM     12  C   UNL     1       1.664  -2.016   3.652  0.00  0.00    +0.079 A 
ATOM     13  C   UNL     1       0.302  -1.816   3.881  0.00  0.00    +0.040 A 
ATOM     14  C   UNL     1      -0.257  -2.208   5.089  0.00  0.00    +0.029 A 
ATOM     15  C   UNL     1       0.538  -2.806   6.080  0.00  0.00    +0.126 A 
ATOM     16  C   UNL     1       1.887  -3.004   5.868  0.00  0.00    +0.061 A 
ATOM     17  C   UNL     1       2.461  -2.609   4.659  0.00  0.00    +0.068 A 
ATOM     18  C   UNL     1       3.896  -2.786   4.396  0.00  0.00    +0.262 A 
ATOM     19  O   UNL     1       4.626  -3.308   5.217  0.00  0.00    -0.267 OA
ATOM     20  N   UNL     1       4.378  -2.349   3.210  0.00  0.00    -0.291 N 
ATOM     21  C   UNL     1       5.821  -2.405   2.955  0.00  0.00    +0.131 C 
ATOM     22  C   UNL     1       6.092  -2.881   1.514  0.00  0.00    +0.059 C 
ENDROOT
BRANCH   1  26
ATOM     23  C   UNL     1      -0.017   1.379   0.010  0.00  0.00    +0.000 A 
ATOM     24  C   UNL     1       1.170   2.089   0.002  0.00  0.00    +0.002 A 
ATOM     25  C   UNL     1       2.377   1.420  -0.013  0.00  0.00    +0.026 A 
ATOM     26  C   UNL     1       2.400   0.031  -0.021  0.00  0.00    +0.047 A 
ATOM     27  C   UNL     1       1.206  -0.680  -0.013  0.00  0.00    +0.026 A 
ATOM     28  C   UNL     1       0.002  -0.004   0.002  0.00  0.00    +0.002 A 
ENDBRANCH   1  26
BRANCH  14  29
ATOM     29  C   UNL     1      -1.703  -1.994   5.335  0.00  0.00    +0.027 A 
ATOM     30  C   UNL     1      -2.651  -2.674   4.572  0.00  0.00    +0.012 A 
ATOM     31  C   UNL     1      -3.995  -2.471   4.805  0.00  0.00    +0.001 A 
ATOM     32  C   UNL     1      -4.407  -1.594   5.793  0.00  0.00    +0.004 A 
ATOM     33  C   UNL     1      -3.476  -0.915   6.555  0.00  0.00    +0.046 A 
ATOM     34  C   UNL     1      -2.122  -1.113   6.337  0.00  0.00    +0.125 A 
BRANCH  34  35
ATOM     35  O   UNL     1      -1.206  -0.450   7.089  0.00  0.00    -0.506 OA
ATOM     36  H   UNL     1      -0.941   0.405   6.724  0.00  0.00    +0.292 HD
ENDBRANCH  34  35
ENDBRANCH  14  29
BRANCH  15  37
ATOM     37  O   UNL     1      -0.025  -3.192   7.256  0.00  0.00    -0.506 OA
ATOM     38  H   UNL     1      -0.359  -4.099   7.253  0.00  0.00    +0.292 HD
ENDBRANCH  15  37
TORSDOF 4
