REMARK  Name = ZINC63686311
REMARK  4 active torsions:
REMARK  status: ('A' for Active; 'I' for Inactive)
REMARK    1  A    between atoms: C_4  and  N_7
REMARK    2  A    between atoms: C_10  and  C_32
REMARK    3  A    between atoms: C_12  and  N_15
REMARK    4  A    between atoms: C_16  and  C_18
REMARK                            x       y       z     vdW  Elec       q    Type
REMARK                         _______ _______ _______ _____ _____    ______ ____
ROOT
ATOM      1  N   UNL     1       3.600  -0.631  -0.036  0.00  0.00    -0.226 NA
ATOM      2  C   UNL     1       3.792  -1.658   0.761  0.00  0.00    +0.157 C 
ATOM      3  N   UNL     1       2.917  -2.217   1.672  0.00  0.00    -0.310 N 
ATOM      4  C   UNL     1       3.021  -3.648   1.899  0.00  0.00    +0.189 C 
ATOM      5  C   UNL     1       4.426  -4.202   1.564  0.00  0.00    +0.168 C 
ATOM      6  S   UNL     1       5.247  -2.684   0.931  0.00  0.00    -0.066 S 
ATOM      7  H   UNL     1       2.262  -1.676   2.141  0.00  0.00    +0.149 HD
ENDROOT
BRANCH   1  11
ATOM      8  C   UNL     1      -0.017   1.379   0.010  0.00  0.00    +0.000 A 
ATOM      9  C   UNL     1       1.168   2.094   0.002  0.00  0.00    +0.002 A 
ATOM     10  C   UNL     1       2.377   1.430  -0.013  0.00  0.00    +0.028 A 
ATOM     11  C   UNL     1       2.404   0.034  -0.021  0.00  0.00    +0.066 A 
ATOM     12  C   UNL     1       1.204  -0.681  -0.013  0.00  0.00    +0.028 A 
ATOM     13  C   UNL     1       0.002  -0.004   0.002  0.00  0.00    +0.002 A 
ENDBRANCH   1  11
BRANCH   4  14
ATOM     14  C   UNL     1       2.005  -4.353   1.038  0.00  0.00    +0.233 C 
ATOM     15  O   UNL     1       1.515  -3.782   0.086  0.00  0.00    -0.274 OA
ATOM     16  N   UNL     1       1.639  -5.618   1.325  0.00  0.00    -0.328 N 
ATOM     17  H   UNL     1       2.030  -6.075   2.087  0.00  0.00    +0.145 HD
ATOM     18  H   UNL     1       0.985  -6.072   0.771  0.00  0.00    +0.145 HD
ENDBRANCH   4  14
BRANCH   5  19
ATOM     19  N   UNL     1       4.356  -5.233   0.526  0.00  0.00    -0.299 N 
ATOM     20  C   UNL     1       5.232  -5.220  -0.498  0.00  0.00    +0.245 C 
ATOM     21  O   UNL     1       6.080  -4.355  -0.559  0.00  0.00    -0.273 OA
ATOM     22  H   UNL     1       3.678  -5.925   0.575  0.00  0.00    +0.150 HD
BRANCH  20  23
ATOM     23  C   UNL     1       5.160  -6.281  -1.566  0.00  0.00    +0.241 C 
ATOM     24  C   UNL     1       5.861  -7.531  -1.122  0.00  0.00    -0.007 C 
ATOM     25  C   UNL     1       6.859  -7.703  -2.024  0.00  0.00    +0.095 C 
ATOM     26  C   UNL     1       7.765  -8.873  -1.899  0.00  0.00    +0.005 A 
ATOM     27  C   UNL     1       8.954  -8.953  -2.610  0.00  0.00    +0.010 A 
ATOM     28  C   UNL     1       9.780 -10.047  -2.436  0.00  0.00    +0.001 A 
ATOM     29  C   UNL     1       9.418 -11.050  -1.555  0.00  0.00    +0.000 A 
ATOM     30  C   UNL     1       8.228 -10.978  -0.856  0.00  0.00    +0.004 A 
ATOM     31  C   UNL     1       7.383  -9.899  -1.032  0.00  0.00    -0.038 A 
ATOM     32  C   UNL     1       6.052  -9.869  -0.331  0.00  0.00    +0.040 C 
ATOM     33  C   UNL     1       5.624  -8.448   0.038  0.00  0.00    +0.040 C 
ATOM     34  N   UNL     1       6.836  -6.705  -2.932  0.00  0.00    -0.153 NA
ATOM     35  N   UNL     1       5.928  -5.875  -2.760  0.00  0.00    -0.170 NA
ENDBRANCH  20  23
ENDBRANCH   5  19
TORSDOF 4
