REMARK  Name = ZINC21264086
REMARK  15 active torsions:
REMARK  status: ('A' for Active; 'I' for Inactive)
REMARK    1  A    between atoms: C_1  and  C_2
REMARK    2  A    between atoms: C_5  and  C_7
REMARK    3  A    between atoms: C_7  and  N_8
REMARK    4  A    between atoms: N_8  and  C_9
REMARK    5  A    between atoms: N_8  and  C_20
REMARK    6  A    between atoms: C_9  and  C_11
REMARK    7  A    between atoms: C_9  and  C_12
REMARK    8  A    between atoms: C_15  and  O_18
REMARK    9  A    between atoms: O_18  and  C_19
REMARK   10  A    between atoms: C_20  and  N_22
REMARK   11  A    between atoms: N_22  and  C_23
REMARK   12  A    between atoms: C_25  and  C_31
REMARK   13  A    between atoms: C_25  and  C_32
REMARK   14  A    between atoms: C_27  and  C_29
REMARK   15  A    between atoms: C_27  and  C_30
REMARK                            x       y       z     vdW  Elec       q    Type
REMARK                         _______ _______ _______ _____ _____    ______ ____
ROOT
ATOM      1  N   UNL     1      -3.003   1.212   1.417  0.00  0.00    -0.299 N 
ENDROOT
BRANCH   1   2
ATOM      2  C   UNL     1      -3.519   2.377   2.139  0.00  0.00    +0.103 C 
ATOM      3  C   UNL     1      -2.482   3.501   2.100  0.00  0.00    +0.033 C 
BRANCH   2   4
ATOM      4  C   UNL     1      -4.794   2.847   1.487  0.00  0.00    -0.027 A 
ATOM      5  C   UNL     1      -5.052   4.201   1.371  0.00  0.00    +0.009 A 
ATOM      6  C   UNL     1      -6.217   4.634   0.769  0.00  0.00    +0.046 A 
ATOM      7  C   UNL     1      -7.135   3.710   0.291  0.00  0.00    +0.120 A 
ATOM      8  C   UNL     1      -6.876   2.353   0.413  0.00  0.00    +0.046 A 
ATOM      9  C   UNL     1      -5.707   1.924   1.010  0.00  0.00    +0.009 A 
BRANCH   7  10
ATOM     10  O   UNL     1      -8.285   4.134  -0.296  0.00  0.00    -0.495 OA
ATOM     11  C   UNL     1      -8.484   5.546  -0.388  0.00  0.00    +0.277 C 
ENDBRANCH   7  10
ENDBRANCH   2   4
ENDBRANCH   1   2
BRANCH   1  12
ATOM     12  C   UNL     1      -2.947   0.011   2.027  0.00  0.00    +0.134 C 
ATOM     13  S   UNL     1      -3.479  -0.151   3.646  0.00  0.00    -0.019 S 
BRANCH  12  14
ATOM     14  N   UNL     1      -2.472  -1.061   1.363  0.00  0.00    -0.324 N 
ATOM     15  H   UNL     1      -2.130  -0.957   0.323  0.00  0.00    +0.148 HD
BRANCH  14  16
ATOM     16  C   UNL     1      -2.411  -2.369   2.028  0.00  0.00    +0.069 C 
ATOM     17  C   UNL     1      -1.095  -2.481   2.798  0.00  0.00    +0.009 C 
ATOM     18  C   UNL     1      -0.996  -3.841   3.484  0.00  0.00    -0.072 C 
ATOM     19  N   UNL     1      -1.286  -4.946   2.593  0.00  0.00    +0.386 N 
ATOM     20  C   UNL     1      -2.366  -4.846   1.635  0.00  0.00    -0.072 C 
ATOM     21  C   UNL     1      -2.452  -3.473   0.972  0.00  0.00    +0.009 C 
ATOM     22  C   UNL     1      -3.714  -5.187   2.282  0.00  0.00    -0.010 C 
ATOM     23  C   UNL     1      -2.120  -5.886   0.519  0.00  0.00    -0.010 C 
ATOM     24  C   UNL     1      -1.913  -3.865   4.712  0.00  0.00    -0.010 C 
ATOM     25  C   UNL     1       0.454  -4.001   3.993  0.00  0.00    -0.010 C 
ATOM     26  H   UNL     1      -0.403  -5.157   1.972  0.00  0.00    -0.084 HD
ATOM     27  H   UNL     1      -1.540  -5.837   3.184  0.00  0.00    -0.084 HD
ENDBRANCH  14  16
ENDBRANCH  12  14
ENDBRANCH   1  12
BRANCH   1  28
ATOM     28  C   UNL     1      -2.547   1.351   0.032  0.00  0.00    +0.181 C 
BRANCH  28  33
ATOM     29  C   UNL     1       1.961   3.612   0.052  0.00  0.00    +0.086 C 
ATOM     30  C   UNL     1       0.906   2.537   0.021  0.00  0.00    +0.102 A 
ATOM     31  C   UNL     1       1.135   1.213  -0.057  0.00  0.00    +0.045 A 
ATOM     32  C   UNL     1      -0.129   0.579  -0.059  0.00  0.00    +0.046 A 
ATOM     33  C   UNL     1      -1.054   1.553   0.012  0.00  0.00    +0.122 A 
ATOM     34  O   UNL     1      -0.421   2.736   0.065  0.00  0.00    -0.463 OA
ENDBRANCH  28  33
ENDBRANCH   1  28
TORSDOF 8
