REMARK  Name = ZINC66120499
REMARK  11 active torsions:
REMARK  status: ('A' for Active; 'I' for Inactive)
REMARK    1  A    between atoms: C_1  and  C_2
REMARK    2  A    between atoms: C_2  and  N_3
REMARK    3  A    between atoms: N_3  and  C_4
REMARK    4  A    between atoms: N_3  and  C_6
REMARK    5  A    between atoms: C_4  and  C_5
REMARK    6  A    between atoms: C_6  and  C_8
REMARK    7  A    between atoms: C_6  and  C_24
REMARK    8  A    between atoms: C_8  and  N_9
REMARK    9  A    between atoms: C_16  and  C_19
REMARK   10  A    between atoms: C_19  and  C_20
REMARK   11  A    between atoms: C_20  and  C_21
REMARK                            x       y       z     vdW  Elec       q    Type
REMARK                         _______ _______ _______ _____ _____    ______ ____
ROOT
ATOM      1  N   UNL     1       2.401  -2.439  -2.890  0.00  0.00    -0.300 N 
ATOM      2  C   UNL     1       2.986  -2.702  -4.075  0.00  0.00    +0.302 C 
ATOM      3  O   UNL     1       2.321  -3.128  -5.000  0.00  0.00    -0.253 OA
ATOM      4  N   UNL     1       4.308  -2.493  -4.236  0.00  0.00    -0.285 N 
ATOM      5  C   UNL     1       5.146  -2.093  -3.097  0.00  0.00    +0.109 C 
ATOM      6  C   UNL     1       6.324  -3.065  -2.986  0.00  0.00    +0.019 C 
ATOM      7  C   UNL     1       7.065  -3.117  -4.324  0.00  0.00    +0.006 C 
ATOM      8  C   UNL     1       6.119  -3.627  -5.414  0.00  0.00    +0.007 C 
ATOM      9  C   UNL     1       4.939  -2.667  -5.551  0.00  0.00    +0.112 C 
ATOM     10  H   UNL     1       2.914  -2.030  -2.176  0.00  0.00    +0.150 HD
ENDROOT
BRANCH   1  11
ATOM     11  C   UNL     1       0.990  -2.770  -2.680  0.00  0.00    +0.095 C 
BRANCH  11  12
ATOM     12  C   UNL     1       0.533  -2.223  -1.326  0.00  0.00    -0.020 C 
BRANCH  12  13
ATOM     13  C   UNL     1      -0.849  -2.738  -1.016  0.00  0.00    -0.052 A 
ATOM     14  C   UNL     1      -1.023  -3.804  -0.154  0.00  0.00    +0.009 A 
ATOM     15  C   UNL     1      -2.280  -4.243   0.103  0.00  0.00    +0.045 A 
ATOM     16  S   UNL     1      -3.268  -3.135  -0.888  0.00  0.00    -0.105 S 
ATOM     17  C   UNL     1      -1.940  -2.159  -1.574  0.00  0.00    +0.047 A 
ENDBRANCH  12  13
BRANCH  12  18
ATOM     18  N   UNL     1       0.509  -0.755  -1.373  0.00  0.00    +0.385 N 
ATOM     19  H   UNL     1      -0.046  -0.453  -2.160  0.00  0.00    -0.081 HD
BRANCH  18  21
ATOM     20  C   UNL     1      -0.229   1.284  -0.237  0.00  0.00    -0.017 C 
ATOM     21  C   UNL     1      -0.076  -0.234  -0.131  0.00  0.00    -0.081 C 
ENDBRANCH  18  21
BRANCH  18  22
ATOM     22  C   UNL     1       1.881  -0.248  -1.519  0.00  0.00    -0.081 C 
ATOM     23  C   UNL     1       2.749  -0.793  -0.383  0.00  0.00    -0.017 C 
ENDBRANCH  18  22
ENDBRANCH  12  18
ENDBRANCH  11  12
ENDBRANCH   1  11
BRANCH   8  24
ATOM     24  C   UNL     1       6.869  -3.711  -6.744  0.00  0.00    +0.014 C 
BRANCH  24  25
ATOM     25  C   UNL     1       5.961  -4.338  -7.804  0.00  0.00    +0.096 C 
BRANCH  25  26
ATOM     26  C   UNL     1       6.700  -4.420  -9.114  0.00  0.00    +0.210 C 
ATOM     27  O   UNL     1       7.842  -4.017  -9.193  0.00  0.00    -0.276 OA
ATOM     28  N   UNL     1       6.093  -4.941 -10.199  0.00  0.00    -0.329 N 
ATOM     29  H   UNL     1       5.181  -5.263 -10.136  0.00  0.00    +0.145 HD
ATOM     30  H   UNL     1       6.569  -4.994 -11.043  0.00  0.00    +0.145 HD
ENDBRANCH  25  26
ENDBRANCH  24  25
ENDBRANCH   8  24
TORSDOF 9
