REMARK  Name = ZINC15769694
REMARK  4 active torsions:
REMARK  status: ('A' for Active; 'I' for Inactive)
REMARK    1  A    between atoms: C_4  and  C_7
REMARK    2  A    between atoms: C_9  and  C_31
REMARK    3  A    between atoms: C_22  and  C_24
REMARK    4  A    between atoms: C_24  and  C_26
REMARK                            x       y       z     vdW  Elec       q    Type
REMARK                         _______ _______ _______ _____ _____    ______ ____
ROOT
ATOM      1  C   UNL     1      -0.070   5.347   0.032  0.00  0.00    +0.066 C 
ATOM      2  C   UNL     1      -0.929   5.884   1.210  0.00  0.00    +0.185 C 
ATOM      3  N   UNL     1      -1.307   7.232   0.774  0.00  0.00    -0.312 N 
ATOM      4  C   UNL     1      -1.476   8.373   1.539  0.00  0.00    +0.072 C 
ATOM      5  C   UNL     1      -1.060   9.529   0.984  0.00  0.00    +0.023 C 
ATOM      6  C   UNL     1      -0.444   9.506  -0.358  0.00  0.00    -0.019 A 
ATOM      7  C   UNL     1       0.310  10.594  -0.803  0.00  0.00    +0.008 A 
ATOM      8  C   UNL     1       0.874  10.569  -2.062  0.00  0.00    +0.001 A 
ATOM      9  C   UNL     1       0.696   9.472  -2.886  0.00  0.00    +0.000 A 
ATOM     10  C   UNL     1      -0.048   8.387  -2.452  0.00  0.00    +0.006 A 
ATOM     11  C   UNL     1      -0.614   8.399  -1.199  0.00  0.00    -0.019 A 
ATOM     12  C   UNL     1      -1.424   7.231  -0.699  0.00  0.00    +0.116 C 
ATOM     13  C   UNL     1      -0.839   5.899  -1.198  0.00  0.00    +0.096 C 
ENDROOT
BRANCH   1  17
ATOM     14  C   UNL     1      -0.013   1.076   0.005  0.00  0.00    +0.000 A 
ATOM     15  C   UNL     1       1.137   1.784  -0.290  0.00  0.00    +0.000 A 
ATOM     16  C   UNL     1       1.117   3.167  -0.286  0.00  0.00    +0.004 A 
ATOM     17  C   UNL     1      -0.050   3.840   0.023  0.00  0.00    -0.041 A 
ATOM     18  C   UNL     1      -1.198   3.132   0.323  0.00  0.00    +0.004 A 
ATOM     19  C   UNL     1      -1.180   1.749   0.314  0.00  0.00    +0.000 A 
ENDBRANCH   1  17
BRANCH  13  20
ATOM     20  C   UNL     1      -1.942   4.954  -1.600  0.00  0.00    +0.175 C 
ATOM     21  O   UNL     1      -3.067   5.116  -1.171  0.00  0.00    -0.291 OA
BRANCH  20  22
ATOM     22  C   UNL     1      -1.668   3.881  -2.477  0.00  0.00    +0.055 A 
ATOM     23  C   UNL     1      -2.532   2.907  -2.967  0.00  0.00    +0.019 A 
ATOM     24  C   UNL     1      -1.998   1.971  -3.813  0.00  0.00    +0.008 A 
ATOM     25  C   UNL     1      -0.676   2.036  -4.129  0.00  0.00    +0.046 A 
ATOM     26  S   UNL     1      -0.126   3.426  -3.250  0.00  0.00    -0.094 S 
ENDBRANCH  20  22
ENDBRANCH  13  20
BRANCH   2  27
ATOM     27  C   UNL     1      -0.132   5.944   2.446  0.00  0.00    +0.086 C 
ATOM     28  N   UNL     1       0.483   5.991   3.400  0.00  0.00    -0.195 NA
ENDBRANCH   2  27
TORSDOF 4
