REMARK  Name = ZINC02338882
REMARK  9 active torsions:
REMARK  status: ('A' for Active; 'I' for Inactive)
REMARK    1  A    between atoms: C_1  and  C_2
REMARK    2  A    between atoms: C_2  and  O_3
REMARK    3  A    between atoms: O_3  and  C_4
REMARK    4  A    between atoms: C_4  and  C_6
REMARK    5  A    between atoms: C_7  and  C_31
REMARK    6  A    between atoms: N_11  and  C_12
REMARK    7  A    between atoms: C_12  and  C_14
REMARK    8  A    between atoms: C_14  and  S_15
REMARK    9  A    between atoms: S_15  and  C_16
REMARK                            x       y       z     vdW  Elec       q    Type
REMARK                         _______ _______ _______ _____ _____    ______ ____
ROOT
ATOM      1  S   UNL     1       4.410   0.019  -8.605  0.00  0.00    -0.077 S 
ENDROOT
BRANCH   1   2
ATOM      2  C   UNL     1       5.471  -0.175  -9.998  0.00  0.00    +0.191 A 
ATOM      3  N   UNL     1       5.735  -1.395 -10.451  0.00  0.00    -0.207 NA
ATOM      4  C   UNL     1       6.524  -1.603 -11.492  0.00  0.00    +0.129 A 
ATOM      5  C   UNL     1       7.113  -0.488 -12.152  0.00  0.00    +0.051 A 
ATOM      6  C   UNL     1       8.010  -0.479 -13.309  0.00  0.00    -0.025 A 
ATOM      7  C   UNL     1       8.433   0.724 -13.746  0.00  0.00    -0.004 A 
ATOM      8  S   UNL     1       7.675   1.903 -12.660  0.00  0.00    -0.073 S 
ATOM      9  C   UNL     1       6.790   0.775 -11.617  0.00  0.00    +0.115 A 
ATOM     10  N   UNL     1       5.988   0.900 -10.576  0.00  0.00    -0.214 NA
ATOM     11  C   UNL     1       9.348   1.001 -14.900  0.00  0.00    +0.043 C 
ATOM     12  C   UNL     1      10.040  -0.312 -15.296  0.00  0.00    +0.005 C 
ATOM     13  C   UNL     1       8.980  -1.413 -15.398  0.00  0.00    +0.005 C 
ATOM     14  C   UNL     1       8.458  -1.762 -14.004  0.00  0.00    +0.037 C 
ATOM     15  N   UNL     1       6.773  -2.889 -11.934  0.00  0.00    -0.343 N 
ATOM     16  H   UNL     1       6.203  -3.620 -11.649  0.00  0.00    +0.144 HD
ATOM     17  H   UNL     1       7.519  -3.061 -12.530  0.00  0.00    +0.144 HD
ENDBRANCH   1   2
BRANCH   1  18
ATOM     18  C   UNL     1       3.955  -1.680  -8.160  0.00  0.00    +0.175 C 
BRANCH  18  19
ATOM     19  C   UNL     1       3.036  -1.658  -6.966  0.00  0.00    +0.249 C 
ATOM     20  O   UNL     1       2.717  -0.597  -6.463  0.00  0.00    -0.273 OA
BRANCH  19  26
ATOM     21  C   UNL     1       0.199  -2.302  -3.346  0.00  0.00    +0.118 A 
ATOM     22  C   UNL     1       0.390  -3.601  -3.703  0.00  0.00    +0.036 A 
ATOM     23  N   UNL     1       1.190  -3.832  -4.759  0.00  0.00    -0.339 N 
ATOM     24  H   UNL     1       1.360  -4.740  -5.056  0.00  0.00    +0.167 HD
ATOM     25  C   UNL     1       1.760  -2.776  -5.407  0.00  0.00    +0.164 A 
ATOM     26  N   UNL     1       2.573  -2.796  -6.463  0.00  0.00    -0.156 NA
ATOM     27  S   UNL     1       1.183  -1.443  -4.560  0.00  0.00    -0.046 S 
ATOM     28  C   UNL     1      -0.265  -4.729  -2.949  0.00  0.00    +0.065 C 
BRANCH  21  29
ATOM     29  C   UNL     1      -0.609  -1.753  -2.254  0.00  0.00    +0.348 C 
ATOM     30  O   UNL     1      -1.222  -2.500  -1.515  0.00  0.00    -0.244 OA
BRANCH  29  31
ATOM     31  O   UNL     1      -0.674  -0.419  -2.068  0.00  0.00    -0.461 OA
BRANCH  31  33
ATOM     32  C   UNL     1      -1.431   1.575  -0.931  0.00  0.00    +0.048 C 
ATOM     33  C   UNL     1      -1.480   0.047  -0.984  0.00  0.00    +0.229 C 
ENDBRANCH  31  33
ENDBRANCH  29  31
ENDBRANCH  21  29
ENDBRANCH  19  26
ENDBRANCH  18  19
ENDBRANCH   1  18
TORSDOF 7
