REMARK  Name = ZINC09858374
REMARK  3 active torsions:
REMARK  status: ('A' for Active; 'I' for Inactive)
REMARK    1  A    between atoms: N_11  and  C_12
REMARK    2  A    between atoms: C_12  and  C_14
REMARK    3  A    between atoms: C_26  and  C_29
REMARK                            x       y       z     vdW  Elec       q    Type
REMARK                         _______ _______ _______ _____ _____    ______ ____
ROOT
ATOM      1  C   UNL     1       5.692  -4.533  -0.296  0.00  0.00    +0.080 C 
ATOM      2  C   UNL     1       5.440  -5.388   0.947  0.00  0.00    +0.032 C 
ATOM      3  C   UNL     1       6.185  -6.719   0.806  0.00  0.00    +0.107 C 
ATOM      4  N   UNL     1       7.604  -6.442   0.542  0.00  0.00    -0.314 N 
ATOM      5  C   UNL     1       7.954  -5.556  -0.577  0.00  0.00    +0.107 C 
ATOM      6  C   UNL     1       7.189  -4.238  -0.420  0.00  0.00    +0.032 C 
ATOM      7  C   UNL     1       8.596  -7.006   1.336  0.00  0.00    +0.142 A 
ATOM      8  C   UNL     1       8.245  -7.949   2.322  0.00  0.00    +0.049 A 
ATOM      9  C   UNL     1       9.207  -8.507   3.104  0.00  0.00    +0.053 A 
ATOM     10  C   UNL     1      10.550  -8.130   2.913  0.00  0.00    +0.178 A 
ATOM     11  N   UNL     1      11.689  -8.477   3.491  0.00  0.00    -0.128 NA
ATOM     12  N   UNL     1      12.658  -7.832   2.940  0.00  0.00    -0.123 NA
ATOM     13  C   UNL     1      12.199  -7.050   1.994  0.00  0.00    +0.258 A 
ATOM     14  N   UNL     1      10.859  -7.209   1.944  0.00  0.00    -0.187 N 
ATOM     15  N   UNL     1       9.848  -6.658   1.153  0.00  0.00    -0.148 NA
ENDROOT
BRANCH  13  16
ATOM     16  C   UNL     1      13.019  -6.136   1.120  0.00  0.00    +0.454 C 
ATOM     17  F   UNL     1      14.370  -6.483   1.221  0.00  0.00    -0.163 F 
ATOM     18  F   UNL     1      12.603  -6.265  -0.209  0.00  0.00    -0.163 F 
ATOM     19  F   UNL     1      12.845  -4.812   1.537  0.00  0.00    -0.163 F 
ENDBRANCH  13  16
BRANCH   1  20
ATOM     20  C   UNL     1       4.934  -3.236  -0.176  0.00  0.00    +0.242 C 
ATOM     21  O   UNL     1       5.532  -2.178  -0.188  0.00  0.00    -0.273 OA
BRANCH  20  32
ATOM     22  C   UNL     1       0.031   1.421  -0.037  0.00  0.00    +0.002 A 
ATOM     23  C   UNL     1       1.222   2.128  -0.049  0.00  0.00    +0.002 A 
ATOM     24  C   UNL     1       2.429   1.458  -0.058  0.00  0.00    +0.028 A 
ATOM     25  C   UNL     1       2.450   0.071  -0.055  0.00  0.00    +0.065 A 
ATOM     26  C   UNL     1       1.250  -0.642  -0.043  0.00  0.00    +0.065 A 
ATOM     27  C   UNL     1       0.041   0.041  -0.034  0.00  0.00    +0.028 A 
ATOM     28  N   UNL     1       1.576  -1.994  -0.043  0.00  0.00    -0.326 N 
ATOM     29  H   UNL     1       0.945  -2.731  -0.036  0.00  0.00    +0.169 HD
ATOM     30  C   UNL     1       2.930  -2.106  -0.054  0.00  0.00    +0.198 A 
ATOM     31  N   UNL     1       3.481  -0.863  -0.062  0.00  0.00    -0.326 N 
ATOM     32  N   UNL     1       3.610  -3.250  -0.057  0.00  0.00    -0.147 NA
ATOM     33  H   UNL     1       4.430  -0.662  -0.071  0.00  0.00    +0.169 HD
ENDBRANCH  20  32
ENDBRANCH   1  20
TORSDOF 3
