REMARK  Name = ZINC45276404
REMARK  8 active torsions:
REMARK  status: ('A' for Active; 'I' for Inactive)
REMARK    1  A    between atoms: C_1  and  C_2
REMARK    2  A    between atoms: C_7  and  N_10
REMARK    3  A    between atoms: N_10  and  C_11
REMARK    4  A    between atoms: N_10  and  C_12
REMARK    5  A    between atoms: C_12  and  C_13
REMARK    6  A    between atoms: C_13  and  C_14
REMARK    7  A    between atoms: C_13  and  C_20
REMARK    8  A    between atoms: C_13  and  N_23
REMARK                            x       y       z     vdW  Elec       q    Type
REMARK                         _______ _______ _______ _____ _____    ______ ____
ROOT
ATOM      1  C   UNL     1       5.220  -0.112   3.145  0.00  0.00    +0.043 C 
ENDROOT
BRANCH   1   2
ATOM      2  C   UNL     1       6.569   0.542   2.987  0.00  0.00    -0.050 A 
ATOM      3  C   UNL     1       6.654   1.861   2.584  0.00  0.00    +0.003 A 
ATOM      4  C   UNL     1       7.891   2.461   2.439  0.00  0.00    +0.000 A 
ATOM      5  C   UNL     1       9.043   1.742   2.699  0.00  0.00    +0.000 A 
ATOM      6  C   UNL     1       8.957   0.423   3.103  0.00  0.00    +0.000 A 
ATOM      7  C   UNL     1       7.720  -0.176   3.252  0.00  0.00    +0.003 A 
ENDBRANCH   1   2
BRANCH   1   8
ATOM      8  N   UNL     1       5.338  -1.550   2.873  0.00  0.00    +0.390 N 
ATOM      9  H   UNL     1       5.671  -1.688   1.930  0.00  0.00    -0.088 HD
ATOM     10  H   UNL     1       5.990  -1.963   3.523  0.00  0.00    -0.088 HD
ATOM     11  H   UNL     1       4.436  -1.988   2.978  0.00  0.00    -0.088 HD
ENDBRANCH   1   8
BRANCH   1  12
ATOM     12  C   UNL     1       4.723   0.094   4.553  0.00  0.00    +0.347 C 
ATOM     13  O   UNL     1       4.593  -0.862   5.299  0.00  0.00    -0.248 OA
ATOM     14  O   UNL     1       4.452   1.215   4.946  0.00  0.00    -0.248 OA
ENDBRANCH   1  12
BRANCH   1  15
ATOM     15  C   UNL     1       4.231   0.514   2.159  0.00  0.00    -0.076 C 
BRANCH  15  16
ATOM     16  N   UNL     1       2.971  -0.240   2.184  0.00  0.00    +0.379 N 
ATOM     17  C   UNL     1       2.305  -0.037   3.478  0.00  0.00    -0.096 C 
ATOM     18  H   UNL     1       3.164  -1.222   2.056  0.00  0.00    -0.082 HD
BRANCH  16  24
ATOM     19  C   UNL     1      -0.421   1.429   0.200  0.00  0.00    +0.007 C 
ATOM     20  C   UNL     1      -0.129  -0.060   0.005  0.00  0.00    -0.016 C 
ATOM     21  C   UNL     1       0.565  -0.271  -1.343  0.00  0.00    +0.003 C 
ATOM     22  C   UNL     1       1.877   0.515  -1.369  0.00  0.00    -0.001 C 
ATOM     23  C   UNL     1       2.789   0.022  -0.244  0.00  0.00    -0.015 C 
ATOM     24  C   UNL     1       2.095   0.233   1.104  0.00  0.00    -0.069 C 
ATOM     25  C   UNL     1       0.783  -0.552   1.130  0.00  0.00    -0.012 C 
ENDBRANCH  16  24
ENDBRANCH  15  16
ENDBRANCH   1  15
TORSDOF 6
