REMARK  Name = ZINC06410279
REMARK  12 active torsions:
REMARK  status: ('A' for Active; 'I' for Inactive)
REMARK    1  A    between atoms: C_1  and  C_2
REMARK    2  A    between atoms: C_7  and  C_15
REMARK    3  A    between atoms: C_13  and  C_14
REMARK    4  A    between atoms: C_15  and  N_68
REMARK    5  A    between atoms: C_16  and  C_17
REMARK    6  A    between atoms: C_16  and  N_68
REMARK    7  A    between atoms: N_21  and  C_22
REMARK    8  A    between atoms: C_22  and  C_23
REMARK    9  A    between atoms: C_26  and  O_29
REMARK   10  A    between atoms: O_29  and  C_30
REMARK   11  A    between atoms: C_31  and  C_32
REMARK   12  A    between atoms: C_31  and  N_68
REMARK                            x       y       z     vdW  Elec       q    Type
REMARK                         _______ _______ _______ _____ _____    ______ ____
ROOT
ATOM      1  N   UNL     1       2.845  -0.785  -7.500  0.00  0.00    +0.389 N 
ATOM      2  H   UNL     1       2.578  -1.291  -8.352  0.00  0.00    -0.081 HD
ENDROOT
BRANCH   1   3
ATOM      3  C   UNL     1       3.311   0.568  -7.870  0.00  0.00    -0.037 C 
BRANCH   3  10
ATOM      4  C   UNL     1      -2.026   3.967 -12.726  0.00  0.00    +0.044 C 
ATOM      5  C   UNL     1      -1.131   3.436 -11.637  0.00  0.00    -0.046 A 
ATOM      6  C   UNL     1      -1.363   3.801 -10.318  0.00  0.00    +0.004 A 
ATOM      7  C   UNL     1      -0.564   3.330  -9.315  0.00  0.00    +0.010 A 
ATOM      8  C   UNL     1       0.499   2.473  -9.620  0.00  0.00    -0.001 A 
ATOM      9  C   UNL     1       1.376   1.950  -8.571  0.00  0.00    +0.017 A 
ATOM     10  C   UNL     1       2.390   1.123  -8.926  0.00  0.00    +0.001 A 
ATOM     11  C   UNL     1       2.590   0.785 -10.282  0.00  0.00    +0.251 A 
ATOM     12  O   UNL     1       3.510   0.044 -10.580  0.00  0.00    -0.268 OA
ATOM     13  N   UNL     1       1.786   1.256 -11.252  0.00  0.00    -0.322 N 
ATOM     14  H   UNL     1       1.950   1.000 -12.173  0.00  0.00    +0.169 HD
ATOM     15  C   UNL     1       0.738   2.101 -10.957  0.00  0.00    +0.052 A 
ATOM     16  C   UNL     1      -0.090   2.593 -11.961  0.00  0.00    -0.024 A 
ATOM     17  C   UNL     1       0.151   2.205 -13.397  0.00  0.00    +0.046 C 
ENDBRANCH   3  10
ENDBRANCH   1   3
BRANCH   1  18
ATOM     18  C   UNL     1       1.669  -0.688  -6.610  0.00  0.00    +0.001 C 
BRANCH  18  19
ATOM     19  C   UNL     1       1.084  -2.064  -6.426  0.00  0.00    +0.135 A 
ATOM     20  N   UNL     1       0.172  -2.633  -7.177  0.00  0.00    -0.115 NA
ATOM     21  N   UNL     1      -0.063  -3.806  -6.697  0.00  0.00    -0.023 NA
ATOM     22  N   UNL     1       0.679  -4.001  -5.663  0.00  0.00    -0.044 NA
ATOM     23  N   UNL     1       1.396  -2.948  -5.460  0.00  0.00    -0.227 N 
BRANCH  23  24
ATOM     24  C   UNL     1       2.372  -2.753  -4.385  0.00  0.00    +0.182 C 
BRANCH  24  25
ATOM     25  C   UNL     1       1.686  -2.144  -3.189  0.00  0.00    -0.026 A 
ATOM     26  C   UNL     1       1.129  -2.960  -2.223  0.00  0.00    +0.009 A 
ATOM     27  C   UNL     1       0.500  -2.403  -1.126  0.00  0.00    +0.046 A 
ATOM     28  C   UNL     1       0.428  -1.024  -0.995  0.00  0.00    +0.120 A 
ATOM     29  C   UNL     1       0.984  -0.207  -1.969  0.00  0.00    +0.046 A 
ATOM     30  C   UNL     1       1.617  -0.769  -3.061  0.00  0.00    +0.009 A 
BRANCH  28  31
ATOM     31  O   UNL     1      -0.190  -0.474   0.084  0.00  0.00    -0.495 OA
ATOM     32  C   UNL     1      -0.226   0.953   0.153  0.00  0.00    +0.277 C 
ENDBRANCH  28  31
ENDBRANCH  24  25
ENDBRANCH  23  24
ENDBRANCH  18  19
ENDBRANCH   1  18
BRANCH   1  33
ATOM     33  C   UNL     1       3.931  -1.525  -6.823  0.00  0.00    -0.046 C 
BRANCH  33  34
ATOM     34  C   UNL     1       5.010  -1.867  -7.852  0.00  0.00    +0.102 C 
ATOM     35  C   UNL     1       6.171  -2.613  -7.166  0.00  0.00    +0.032 C 
ATOM     36  C   UNL     1       6.252  -3.963  -7.918  0.00  0.00    +0.030 C 
ATOM     37  C   UNL     1       5.535  -3.635  -9.253  0.00  0.00    +0.160 C 
ATOM     38  O   UNL     1       4.470  -2.746  -8.852  0.00  0.00    -0.378 OA
ENDBRANCH  33  34
ENDBRANCH   1  33
TORSDOF 9
