REMARK  Name = ZINC36477452
REMARK  8 active torsions:
REMARK  status: ('A' for Active; 'I' for Inactive)
REMARK    1  A    between atoms: C_1  and  C_2
REMARK    2  A    between atoms: C_2  and  C_3
REMARK    3  A    between atoms: C_2  and  N_10
REMARK    4  A    between atoms: C_11  and  C_13
REMARK    5  A    between atoms: C_13  and  C_14
REMARK    6  A    between atoms: C_14  and  C_15
REMARK    7  A    between atoms: C_17  and  C_26
REMARK    8  A    between atoms: C_18  and  C_20
REMARK                            x       y       z     vdW  Elec       q    Type
REMARK                         _______ _______ _______ _____ _____    ______ ____
ROOT
ATOM      1  C   UNL     1       0.905  -0.839   6.085  0.00  0.00    +0.197 A 
ATOM      2  N   UNL     1       1.290   0.071   6.932  0.00  0.00    -0.213 NA
ATOM      3  C   UNL     1       2.029  -0.515   7.898  0.00  0.00    +0.117 A 
ATOM      4  C   UNL     1       2.085  -1.862   7.602  0.00  0.00    +0.163 A 
ATOM      5  O   UNL     1       1.371  -2.036   6.468  0.00  0.00    -0.439 OA
ENDROOT
BRANCH   4   6
ATOM      6  C   UNL     1       2.784  -2.907   8.375  0.00  0.00    +0.019 A 
ATOM      7  C   UNL     1       2.624  -2.980   9.761  0.00  0.00    +0.011 A 
ATOM      8  C   UNL     1       3.280  -3.959  10.476  0.00  0.00    +0.001 A 
ATOM      9  C   UNL     1       4.094  -4.869   9.825  0.00  0.00    +0.000 A 
ATOM     10  C   UNL     1       4.256  -4.803   8.452  0.00  0.00    +0.001 A 
ATOM     11  C   UNL     1       3.602  -3.833   7.723  0.00  0.00    +0.011 A 
ENDBRANCH   4   6
BRANCH   3  12
ATOM     12  C   UNL     1       2.660   0.160   9.056  0.00  0.00    +0.004 A 
ATOM     13  C   UNL     1       3.939  -0.212   9.471  0.00  0.00    +0.010 A 
ATOM     14  C   UNL     1       4.522   0.421  10.550  0.00  0.00    +0.001 A 
ATOM     15  C   UNL     1       3.841   1.422  11.219  0.00  0.00    +0.000 A 
ATOM     16  C   UNL     1       2.572   1.795  10.812  0.00  0.00    +0.001 A 
ATOM     17  C   UNL     1       1.981   1.173   9.731  0.00  0.00    +0.010 A 
ENDBRANCH   3  12
BRANCH   1  18
ATOM     18  C   UNL     1       0.060  -0.587   4.863  0.00  0.00    +0.105 C 
BRANCH  18  19
ATOM     19  C   UNL     1       0.967  -0.287   3.668  0.00  0.00    +0.105 C 
BRANCH  19  21
ATOM     20  N   UNL     1       0.709   0.252   1.268  0.00  0.00    -0.312 N 
ATOM     21  C   UNL     1       0.121  -0.035   2.447  0.00  0.00    +0.214 C 
ATOM     22  O   UNL     1      -1.088  -0.089   2.524  0.00  0.00    -0.276 OA
ATOM     23  H   UNL     1       1.676   0.295   1.206  0.00  0.00    +0.149 HD
BRANCH  20  25
ATOM     24  C   UNL     1      -0.546   1.964   0.054  0.00  0.00    +0.028 C 
ATOM     25  C   UNL     1      -0.113   0.497   0.080  0.00  0.00    +0.073 C 
BRANCH  25  26
ATOM     26  C   UNL     1       0.701   0.183  -1.177  0.00  0.00    +0.012 C 
ATOM     27  C   UNL     1       0.925  -1.341  -1.306  0.00  0.00    +0.009 C 
ATOM     28  C   UNL     1       0.237  -1.728  -2.651  0.00  0.00    -0.010 C 
ATOM     29  C   UNL     1      -1.288  -1.577  -2.366  0.00  0.00    +0.004 C 
ATOM     30  C   UNL     1      -1.513  -0.053  -2.237  0.00  0.00    +0.004 C 
ATOM     31  C   UNL     1      -0.102   0.573  -2.455  0.00  0.00    -0.006 C 
ATOM     32  C   UNL     1       0.504  -0.433  -3.497  0.00  0.00    +0.007 C 
ENDBRANCH  25  26
ENDBRANCH  20  25
ENDBRANCH  19  21
ENDBRANCH  18  19
ENDBRANCH   1  18
TORSDOF 7
