REMARK  Name = ZINC28156043
REMARK  10 active torsions:
REMARK  status: ('A' for Active; 'I' for Inactive)
REMARK    1  A    between atoms: C_1  and  C_2
REMARK    2  A    between atoms: C_2  and  C_3
REMARK    3  A    between atoms: C_6  and  C_9
REMARK    4  A    between atoms: C_12  and  C_34
REMARK    5  A    between atoms: C_19  and  C_22
REMARK    6  A    between atoms: C_22  and  C_23
REMARK    7  A    between atoms: N_25  and  C_26
REMARK    8  A    between atoms: C_30  and  C_33
REMARK    9  A    between atoms: C_31  and  C_32
REMARK   10  A    between atoms: C_37  and  C_40
REMARK                            x       y       z     vdW  Elec       q    Type
REMARK                         _______ _______ _______ _____ _____    ______ ____
ROOT
ATOM      1  C   UNL     1       0.008   1.539  -0.008  0.00  0.00    +0.136 C 
ATOM      2  C   UNL     1       1.442   2.103  -0.030  0.00  0.00    +0.087 C 
ATOM      3  C   UNL     1       1.506   2.888  -1.321  0.00  0.00    +0.069 C 
ATOM      4  N   UNL     1       0.372   2.809  -1.928  0.00  0.00    -0.182 NA
ATOM      5  N   UNL     1      -0.582   2.047  -1.257  0.00  0.00    -0.195 N 
ATOM      6  C   UNL     1      -1.855   1.811  -1.688  0.00  0.00    +0.170 C 
ATOM      7  N   UNL     1      -2.802   1.097  -1.093  0.00  0.00    -0.157 NA
ATOM      8  C   UNL     1      -4.002   0.919  -1.575  0.00  0.00    +0.252 C 
ATOM      9  O   UNL     1      -4.843   0.257  -0.998  0.00  0.00    -0.272 OA
ATOM     10  C   UNL     1      -4.277   1.600  -2.910  0.00  0.00    +0.150 C 
ATOM     11  S   UNL     1      -2.643   2.397  -3.182  0.00  0.00    -0.078 S 
ENDROOT
BRANCH   3  12
ATOM     12  C   UNL     1       2.684   3.629  -1.809  0.00  0.00    -0.002 A 
ATOM     13  C   UNL     1       3.862   3.648  -1.059  0.00  0.00    +0.010 A 
ATOM     14  C   UNL     1       4.961   4.339  -1.524  0.00  0.00    +0.004 A 
ATOM     15  C   UNL     1       4.895   5.021  -2.726  0.00  0.00    -0.050 A 
ATOM     16  C   UNL     1       3.730   5.011  -3.472  0.00  0.00    +0.004 A 
ATOM     17  C   UNL     1       2.625   4.320  -3.022  0.00  0.00    +0.010 A 
ATOM     18  C   UNL     1       6.098   5.779  -3.224  0.00  0.00    +0.044 C 
ENDBRANCH   3  12
BRANCH   1  22
ATOM     19  C   UNL     1       0.072  -2.732  -0.007  0.00  0.00    -0.048 A 
ATOM     20  C   UNL     1      -0.129  -2.043   1.175  0.00  0.00    +0.004 A 
ATOM     21  C   UNL     1      -0.149  -0.661   1.175  0.00  0.00    +0.006 A 
ATOM     22  C   UNL     1       0.031   0.032  -0.008  0.00  0.00    -0.025 A 
ATOM     23  C   UNL     1       0.226  -0.657  -1.190  0.00  0.00    +0.006 A 
ATOM     24  C   UNL     1       0.252  -2.039  -1.189  0.00  0.00    +0.004 A 
BRANCH  19  26
ATOM     25  C   UNL     1      -1.322  -4.770  -0.235  0.00  0.00    +0.009 C 
ATOM     26  C   UNL     1       0.094  -4.239  -0.006  0.00  0.00    +0.032 C 
ENDBRANCH  19  26
ENDBRANCH   1  22
BRANCH  10  27
ATOM     27  C   UNL     1      -5.389   2.643  -2.787  0.00  0.00    +0.120 C 
BRANCH  27  28
ATOM     28  C   UNL     1      -5.709   3.200  -4.150  0.00  0.00    +0.219 C 
ATOM     29  O   UNL     1      -5.106   2.802  -5.124  0.00  0.00    -0.275 OA
ATOM     30  N   UNL     1      -6.665   4.140  -4.287  0.00  0.00    -0.285 N 
ATOM     31  H   UNL     1      -7.273   4.436  -3.419  0.00  0.00    +0.155 HD
BRANCH  30  32
ATOM     32  C   UNL     1      -6.882   4.741  -5.532  0.00  0.00    +0.037 A 
ATOM     33  C   UNL     1      -5.859   4.789  -6.469  0.00  0.00    +0.023 A 
ATOM     34  C   UNL     1      -6.077   5.382  -7.697  0.00  0.00    +0.002 A 
ATOM     35  C   UNL     1      -7.313   5.928  -7.993  0.00  0.00    +0.004 A 
ATOM     36  C   UNL     1      -8.334   5.882  -7.062  0.00  0.00    -0.046 A 
ATOM     37  C   UNL     1      -8.124   5.284  -5.834  0.00  0.00    -0.026 A 
ATOM     38  C   UNL     1      -9.239   5.228  -4.822  0.00  0.00    +0.046 C 
ATOM     39  C   UNL     1      -9.679   6.478  -7.388  0.00  0.00    +0.044 C 
ENDBRANCH  30  32
ENDBRANCH  27  28
ENDBRANCH  10  27
TORSDOF 6
