REMARK  Name = ZINC36146529
REMARK  11 active torsions:
REMARK  status: ('A' for Active; 'I' for Inactive)
REMARK    1  A    between atoms: C_4  and  C_7
REMARK    2  A    between atoms: C_7  and  N_8
REMARK    3  A    between atoms: N_8  and  C_9
REMARK    4  A    between atoms: N_8  and  C_23
REMARK    5  A    between atoms: C_9  and  C_10
REMARK    6  A    between atoms: C_13  and  C_16
REMARK    7  A    between atoms: C_23  and  C_24
REMARK    8  A    between atoms: C_24  and  C_26
REMARK    9  A    between atoms: C_24  and  O_34
REMARK   10  A    between atoms: C_26  and  O_27
REMARK   11  A    between atoms: O_27  and  C_28
REMARK                            x       y       z     vdW  Elec       q    Type
REMARK                         _______ _______ _______ _____ _____    ______ ____
ROOT
ATOM      1  N   UNL     1       4.058  -0.843   1.314  0.00  0.00    +0.387 N 
ATOM      2  H   UNL     1       4.165  -0.035   1.908  0.00  0.00    -0.081 HD
ENDROOT
BRANCH   1   3
ATOM      3  C   UNL     1       3.490  -0.431   0.024  0.00  0.00    -0.043 C 
BRANCH   3   7
ATOM      4  C   UNL     1       3.008  -3.858  -2.481  0.00  0.00    +0.000 A 
ATOM      5  C   UNL     1       2.001  -3.492  -1.609  0.00  0.00    +0.000 A 
ATOM      6  C   UNL     1       2.157  -2.384  -0.798  0.00  0.00    +0.002 A 
ATOM      7  C   UNL     1       3.321  -1.641  -0.860  0.00  0.00    -0.064 A 
ATOM      8  C   UNL     1       4.329  -2.006  -1.732  0.00  0.00    +0.002 A 
ATOM      9  C   UNL     1       4.172  -3.114  -2.543  0.00  0.00    +0.000 A 
ENDBRANCH   3   7
ENDBRANCH   1   3
BRANCH   1  10
ATOM     10  C   UNL     1       5.370  -1.467   1.096  0.00  0.00    -0.030 C 
BRANCH  10  11
ATOM     11  C   UNL     1       6.369  -0.404   0.633  0.00  0.00    +0.194 C 
ATOM     12  C   UNL     1       7.763  -1.026   0.382  0.00  0.00    +0.104 C 
ATOM     13  C   UNL     1       8.248  -0.267  -0.839  0.00  0.00    +0.091 C 
ATOM     14  N   UNL     1       7.235   0.330  -1.372  0.00  0.00    -0.089 NA
ATOM     15  O   UNL     1       6.027   0.091  -0.677  0.00  0.00    -0.392 OA
BRANCH  13  16
ATOM     16  C   UNL     1       9.638  -0.219  -1.331  0.00  0.00    -0.000 A 
ATOM     17  C   UNL     1      10.644  -0.918  -0.661  0.00  0.00    +0.011 A 
ATOM     18  C   UNL     1      11.942  -0.869  -1.126  0.00  0.00    +0.020 A 
ATOM     19  C   UNL     1      12.248  -0.128  -2.256  0.00  0.00    +0.041 A 
ATOM     20  C   UNL     1      11.255   0.568  -2.925  0.00  0.00    +0.020 A 
ATOM     21  C   UNL     1       9.952   0.522  -2.473  0.00  0.00    +0.011 A 
ATOM     22 CL   UNL     1      13.883  -0.071  -2.835  0.00  0.00    -0.084 Cl
ENDBRANCH  13  16
ENDBRANCH  10  11
ENDBRANCH   1  10
BRANCH   1  23
ATOM     23  C   UNL     1       3.158  -1.809   1.959  0.00  0.00    -0.043 C 
BRANCH  23  24
ATOM     24  C   UNL     1       1.816  -1.137   2.255  0.00  0.00    +0.135 C 
BRANCH  24  25
ATOM     25  O   UNL     1       2.022  -0.029   3.134  0.00  0.00    -0.390 OA
ATOM     26  H   UNL     1       2.415  -0.269   3.984  0.00  0.00    +0.210 HD
ENDBRANCH  24  25
BRANCH  24  27
ATOM     27  C   UNL     1       0.876  -2.146   2.918  0.00  0.00    +0.258 C 
BRANCH  27  28
ATOM     28  O   UNL     1      -0.413  -1.554   3.089  0.00  0.00    -0.489 OA
BRANCH  28  29
ATOM     29  C   UNL     1      -1.373  -2.322   3.669  0.00  0.00    +0.121 A 
ATOM     30  C   UNL     1      -1.078  -3.617   4.070  0.00  0.00    +0.045 A 
ATOM     31  C   UNL     1      -2.055  -4.396   4.659  0.00  0.00    +0.004 A 
ATOM     32  C   UNL     1      -3.326  -3.886   4.848  0.00  0.00    +0.000 A 
ATOM     33  C   UNL     1      -3.623  -2.596   4.449  0.00  0.00    +0.004 A 
ATOM     34  C   UNL     1      -2.648  -1.811   3.865  0.00  0.00    +0.045 A 
ENDBRANCH  28  29
ENDBRANCH  27  28
ENDBRANCH  24  27
ENDBRANCH  23  24
ENDBRANCH   1  23
TORSDOF 11
