REMARK  Name = ZINC34710412
REMARK  5 active torsions:
REMARK  status: ('A' for Active; 'I' for Inactive)
REMARK    1  A    between atoms: C_4  and  C_7
REMARK    2  A    between atoms: C_7  and  N_8
REMARK    3  A    between atoms: C_13  and  C_25
REMARK    4  A    between atoms: C_16  and  C_19
REMARK    5  A    between atoms: N_21  and  C_22
REMARK                            x       y       z     vdW  Elec       q    Type
REMARK                         _______ _______ _______ _____ _____    ______ ____
ROOT
ATOM      1  N   UNL     1       6.062  -2.027   0.534  0.00  0.00    -0.295 N 
ATOM      2  C   UNL     1       5.311  -1.601   1.569  0.00  0.00    +0.302 C 
ATOM      3  O   UNL     1       4.315  -0.934   1.363  0.00  0.00    -0.253 OA
ATOM      4  N   UNL     1       5.663  -1.913   2.831  0.00  0.00    -0.284 N 
ATOM      5  C   UNL     1       6.926  -2.614   3.104  0.00  0.00    +0.117 C 
ATOM      6  C   UNL     1       7.721  -1.812   4.139  0.00  0.00    +0.037 C 
ATOM      7  C   UNL     1       6.851  -1.579   5.377  0.00  0.00    +0.024 C 
ATOM      8  C   UNL     1       5.612  -0.770   4.987  0.00  0.00    +0.093 C 
ATOM      9  C   UNL     1       4.796  -1.555   3.962  0.00  0.00    +0.122 C 
ATOM     10  H   UNL     1       6.894  -2.497   0.700  0.00  0.00    +0.151 HD
ENDROOT
BRANCH   6  11
ATOM     11  C   UNL     1       8.957  -2.581   4.530  0.00  0.00    -0.043 A 
ATOM     12  C   UNL     1       8.840  -3.838   5.093  0.00  0.00    +0.004 A 
ATOM     13  C   UNL     1       9.973  -4.543   5.451  0.00  0.00    +0.000 A 
ATOM     14  C   UNL     1      11.224  -3.992   5.246  0.00  0.00    +0.000 A 
ATOM     15  C   UNL     1      11.341  -2.735   4.682  0.00  0.00    +0.000 A 
ATOM     16  C   UNL     1      10.208  -2.032   4.320  0.00  0.00    +0.004 A 
ENDBRANCH   6  11
BRANCH   8  17
ATOM     17  C   UNL     1       6.039   0.544   4.385  0.00  0.00    +0.218 C 
ATOM     18  O   UNL     1       7.218   0.808   4.279  0.00  0.00    -0.275 OA
ATOM     19  N   UNL     1       5.111   1.427   3.966  0.00  0.00    -0.312 N 
ATOM     20  H   UNL     1       4.168   1.216   4.051  0.00  0.00    +0.149 HD
BRANCH  19  21
ATOM     21  C   UNL     1       5.526   2.704   3.381  0.00  0.00    +0.073 C 
ATOM     22  C   UNL     1       4.795   3.176   2.123  0.00  0.00    +0.024 C 
ATOM     23  C   UNL     1       4.539   3.871   3.461  0.00  0.00    +0.024 C 
ENDBRANCH  19  21
ENDBRANCH   8  17
BRANCH   1  24
ATOM     24  C   UNL     1       5.621  -1.781  -0.841  0.00  0.00    +0.141 C 
BRANCH  24  28
ATOM     25  C   UNL     1       8.482  -3.403  -3.567  0.00  0.00    +0.000 A 
ATOM     26  C   UNL     1       7.431  -4.183  -3.123  0.00  0.00    +0.000 A 
ATOM     27  C   UNL     1       6.505  -3.658  -2.241  0.00  0.00    +0.005 A 
ATOM     28  C   UNL     1       6.631  -2.353  -1.802  0.00  0.00    -0.030 A 
ATOM     29  C   UNL     1       7.682  -1.573  -2.246  0.00  0.00    +0.005 A 
ATOM     30  C   UNL     1       8.607  -2.098  -3.129  0.00  0.00    +0.000 A 
ENDBRANCH  24  28
ENDBRANCH   1  24
TORSDOF 5
