REMARK  Name = ZINC63372973
REMARK  5 active torsions:
REMARK  status: ('A' for Active; 'I' for Inactive)
REMARK    1  A    between atoms: C_1  and  C_2
REMARK    2  A    between atoms: C_6  and  N_8
REMARK    3  A    between atoms: C_11  and  C_18
REMARK    4  A    between atoms: C_25  and  O_30
REMARK    5  A    between atoms: O_30  and  C_31
REMARK                            x       y       z     vdW  Elec       q    Type
REMARK                         _______ _______ _______ _____ _____    ______ ____
ROOT
ATOM      1  N   UNL     1       0.051  -2.798   2.394  0.00  0.00    -0.229 N 
ATOM      2  C   UNL     1      -0.028  -4.144   2.381  0.00  0.00    +0.270 A 
ATOM      3  O   UNL     1      -0.112  -4.743   1.323  0.00  0.00    -0.267 OA
ATOM      4  C   UNL     1      -0.013  -4.851   3.596  0.00  0.00    +0.101 A 
ATOM      5  C   UNL     1       0.082  -4.157   4.766  0.00  0.00    +0.263 A 
ATOM      6  N   UNL     1       0.160  -2.787   4.734  0.00  0.00    -0.274 N 
ATOM      7  H   UNL     1       0.228  -2.289   5.563  0.00  0.00    +0.173 HD
ATOM      8  C   UNL     1       0.150  -2.131   3.559  0.00  0.00    +0.337 A 
ATOM      9  O   UNL     1       0.225  -0.918   3.550  0.00  0.00    -0.246 OA
ATOM     10  O   UNL     1       0.098  -4.811   5.946  0.00  0.00    -0.267 OA
ENDROOT
BRANCH   4  11
ATOM     11  C   UNL     1      -0.101  -6.355   3.606  0.00  0.00    +0.121 C 
ATOM     12  C   UNL     1       1.137  -6.948   2.928  0.00  0.00    +0.128 C 
ATOM     13  C   UNL     1       0.889  -8.449   2.827  0.00  0.00    -0.035 C 
ATOM     14  C   UNL     1       1.931  -9.040   3.392  0.00  0.00    +0.003 A 
ATOM     15  C   UNL     1       2.308 -10.456   3.527  0.00  0.00    +0.055 A 
ATOM     16  C   UNL     1       3.465 -10.720   4.194  0.00  0.00    +0.121 A 
ATOM     17  C   UNL     1       4.295  -9.733   4.745  0.00  0.00    +0.047 A 
ATOM     18  C   UNL     1       4.047  -8.400   4.675  0.00  0.00    +0.029 A 
ATOM     19  C   UNL     1       2.825  -7.989   3.971  0.00  0.00    +0.043 A 
ATOM     20  N   UNL     1       2.349  -6.784   3.728  0.00  0.00    -0.376 N 
ATOM     21  C   UNL     1      -0.395  -9.003   2.258  0.00  0.00    +0.048 C 
ATOM     22  C   UNL     1      -1.537  -8.229   2.941  0.00  0.00    +0.086 C 
ATOM     23  N   UNL     1      -1.292  -6.787   2.857  0.00  0.00    -0.307 NA
ATOM     24  H   UNL     1      -2.107  -6.264   3.140  0.00  0.00    +0.123 HD
ATOM     25  H   UNL     1       2.725  -5.940   4.023  0.00  0.00    +0.160 HD
BRANCH  16  26
ATOM     26  O   UNL     1       3.838 -12.019   4.334  0.00  0.00    -0.495 OA
ATOM     27  C   UNL     1       5.056 -12.272   5.038  0.00  0.00    +0.277 C 
ENDBRANCH  16  26
ENDBRANCH   4  11
BRANCH   1  33
ATOM     28  C   UNL     1      -2.490  -0.510  -1.141  0.00  0.00    +0.044 C 
ATOM     29  C   UNL     1      -1.181  -0.969  -0.549  0.00  0.00    -0.048 A 
ATOM     30  C   UNL     1       0.006  -0.689  -1.200  0.00  0.00    +0.003 A 
ATOM     31  C   UNL     1       1.209  -1.108  -0.661  0.00  0.00    +0.002 A 
ATOM     32  C   UNL     1       1.227  -1.807   0.530  0.00  0.00    +0.026 A 
ATOM     33  C   UNL     1       0.036  -2.089   1.186  0.00  0.00    +0.055 A 
ATOM     34  C   UNL     1      -1.169  -1.662   0.645  0.00  0.00    +0.029 A 
ENDBRANCH   1  33
TORSDOF 3
