REMARK  Name = ZINC09211291
REMARK  6 active torsions:
REMARK  status: ('A' for Active; 'I' for Inactive)
REMARK    1  A    between atoms: C_1  and  C_2
REMARK    2  A    between atoms: C_8  and  C_9
REMARK    3  A    between atoms: C_8  and  N_72
REMARK    4  A    between atoms: C_9  and  C_10
REMARK    5  A    between atoms: C_10  and  N_11
REMARK    6  A    between atoms: C_12  and  C_14
REMARK                            x       y       z     vdW  Elec       q    Type
REMARK                         _______ _______ _______ _____ _____    ______ ____
ROOT
ATOM      1  C   UNL     1       5.475   3.493   4.699  0.00  0.00    +0.078 C 
ATOM      2  C   UNL     1       6.312   3.257   3.438  0.00  0.00    +0.031 C 
ATOM      3  C   UNL     1       7.578   4.114   3.505  0.00  0.00    +0.107 C 
ATOM      4  N   UNL     1       8.351   3.758   4.702  0.00  0.00    -0.313 N 
ATOM      5  C   UNL     1       7.584   4.021   5.927  0.00  0.00    +0.107 C 
ATOM      6  C   UNL     1       6.319   3.161   5.933  0.00  0.00    +0.031 C 
ATOM      7  C   UNL     1       9.565   4.421   4.724  0.00  0.00    +0.152 A 
ATOM      8  C   UNL     1      10.466   4.307   3.652  0.00  0.00    +0.148 A 
ATOM      9  C   UNL     1      11.682   5.007   3.731  0.00  0.00    +0.166 A 
ATOM     10  N   UNL     1      11.936   5.741   4.810  0.00  0.00    -0.216 NA
ATOM     11  C   UNL     1      11.063   5.815   5.792  0.00  0.00    +0.225 A 
ATOM     12  N   UNL     1       9.907   5.177   5.762  0.00  0.00    -0.218 NA
ATOM     13  N   UNL     1      12.359   4.719   2.574  0.00  0.00    -0.312 N 
ATOM     14  C   UNL     1      11.574   3.886   1.833  0.00  0.00    +0.112 A 
ATOM     15  N   UNL     1      10.461   3.649   2.469  0.00  0.00    -0.227 NA
ATOM     16  C   UNL     1      11.934   3.337   0.473  0.00  0.00    +0.074 C 
ATOM     17  C   UNL     1      13.363   2.789   0.510  0.00  0.00    +0.008 C 
ATOM     18  C   UNL     1      14.347   3.905   0.172  0.00  0.00    +0.002 C 
ATOM     19  C   UNL     1      13.833   5.245   0.695  0.00  0.00    +0.022 C 
ATOM     20  C   UNL     1      13.702   5.187   2.218  0.00  0.00    +0.125 C 
ENDROOT
BRANCH   1  22
ATOM     21  N   UNL     1       3.366   2.720   3.663  0.00  0.00    -0.315 N 
ATOM     22  C   UNL     1       4.257   2.606   4.668  0.00  0.00    +0.216 C 
ATOM     23  O   UNL     1       4.079   1.790   5.547  0.00  0.00    -0.276 OA
ATOM     24  H   UNL     1       3.509   3.373   2.960  0.00  0.00    +0.149 HD
BRANCH  21  25
ATOM     25  C   UNL     1       2.182   1.858   3.633  0.00  0.00    +0.102 C 
BRANCH  25  26
ATOM     26  C   UNL     1       1.341   2.189   2.398  0.00  0.00    +0.000 C 
BRANCH  26  27
ATOM     27  C   UNL     1       0.104   1.288   2.367  0.00  0.00    -0.077 C 
BRANCH  27  34
ATOM     28  C   UNL     1      -2.691   1.492   2.604  0.00  0.00    -0.013 C 
ATOM     29  C   UNL     1      -2.050   1.033   1.293  0.00  0.00    -0.072 C 
ATOM     30  C   UNL     1      -2.905   1.504   0.115  0.00  0.00    -0.016 C 
ATOM     31  C   UNL     1      -2.248   1.060  -1.195  0.00  0.00    -0.003 C 
ATOM     32  C   UNL     1      -0.829   1.629  -1.265  0.00  0.00    -0.019 C 
ATOM     33  C   UNL     1      -0.034   1.155  -0.046  0.00  0.00    -0.078 C 
ATOM     34  N   UNL     1      -0.705   1.636   1.181  0.00  0.00    +0.381 N 
ATOM     35  H   UNL     1      -0.800   2.657   1.130  0.00  0.00    -0.081 HD
ENDBRANCH  27  34
ENDBRANCH  26  27
ENDBRANCH  25  26
ENDBRANCH  21  25
ENDBRANCH   1  22
TORSDOF 5
