REMARK  Name = ZINC39147130
REMARK  8 active torsions:
REMARK  status: ('A' for Active; 'I' for Inactive)
REMARK    1  A    between atoms: C_1  and  C_2
REMARK    2  A    between atoms: C_2  and  C_3
REMARK    3  A    between atoms: C_7  and  N_10
REMARK    4  A    between atoms: C_11  and  C_13
REMARK    5  A    between atoms: N_18  and  C_20
REMARK    6  A    between atoms: C_20  and  C_21
REMARK    7  A    between atoms: C_21  and  C_22
REMARK    8  A    between atoms: C_25  and  C_31
REMARK                            x       y       z     vdW  Elec       q    Type
REMARK                         _______ _______ _______ _____ _____    ______ ____
ROOT
ATOM      1  C   UNL     1      -5.637  -1.936  -4.472  0.00  0.00    +0.101 C 
ATOM      2  C   UNL     1      -6.162  -3.387  -4.367  0.00  0.00    +0.110 C 
ATOM      3  C   UNL     1      -6.952  -3.589  -5.642  0.00  0.00    +0.216 C 
ATOM      4  O   UNL     1      -7.752  -4.481  -5.829  0.00  0.00    -0.276 OA
ATOM      5  N   UNL     1      -6.637  -2.636  -6.536  0.00  0.00    -0.300 N 
ATOM      6  C   UNL     1      -5.629  -1.713  -6.000  0.00  0.00    +0.121 C 
ENDROOT
BRANCH   1   8
ATOM      7  N   UNL     1      -4.035  -2.049  -2.590  0.00  0.00    -0.290 N 
ATOM      8  C   UNL     1      -4.247  -1.823  -3.902  0.00  0.00    +0.220 C 
ATOM      9  O   UNL     1      -3.317  -1.530  -4.625  0.00  0.00    -0.275 OA
ATOM     10  H   UNL     1      -4.778  -2.283  -2.013  0.00  0.00    +0.151 HD
BRANCH   7  14
ATOM     11  C   UNL     1      -1.433  -0.534   0.013  0.00  0.00    +0.129 C 
ATOM     12  N   UNL     1      -1.454  -2.023   0.047  0.00  0.00    -0.241 NA
ATOM     13  N   UNL     1      -2.596  -2.565  -0.680  0.00  0.00    -0.227 NA
ATOM     14  C   UNL     1      -2.683  -1.939  -2.037  0.00  0.00    +0.216 C 
ATOM     15  S   UNL     1      -2.276  -0.194  -1.590  0.00  0.00    -0.102 S 
ATOM     16  H   UNL     1      -0.588  -2.404  -0.303  0.00  0.00    +0.142 HD
ATOM     17  H   UNL     1      -2.536  -3.570  -0.749  0.00  0.00    +0.143 HD
BRANCH  11  19
ATOM     18  C   UNL     1      -0.019   1.526   0.010  0.00  0.00    +0.006 C 
ATOM     19  C   UNL     1       0.002  -0.004   0.002  0.00  0.00    +0.027 C 
ENDBRANCH  11  19
ENDBRANCH   7  14
ENDBRANCH   1   8
BRANCH   5  20
ATOM     20  C   UNL     1      -7.226  -2.530  -7.873  0.00  0.00    +0.112 C 
BRANCH  20  21
ATOM     21  C   UNL     1      -8.478  -1.653  -7.811  0.00  0.00    +0.056 C 
BRANCH  21  22
ATOM     22  C   UNL     1      -9.084  -1.545  -9.187  0.00  0.00    -0.021 A 
ATOM     23  C   UNL     1     -10.014  -2.491  -9.806  0.00  0.00    +0.003 A 
ATOM     24  C   UNL     1     -10.601  -3.688  -9.391  0.00  0.00    +0.013 A 
ATOM     25  C   UNL     1     -11.453  -4.353 -10.228  0.00  0.00    -0.050 A 
ATOM     26  C   UNL     1     -11.739  -3.848 -11.488  0.00  0.00    +0.005 A 
ATOM     27  C   UNL     1     -11.171  -2.668 -11.919  0.00  0.00    +0.026 A 
ATOM     28  C   UNL     1     -10.302  -1.975 -11.083  0.00  0.00    +0.047 A 
ATOM     29  N   UNL     1      -9.592  -0.802 -11.216  0.00  0.00    -0.360 N 
ATOM     30  C   UNL     1      -8.877  -0.559 -10.075  0.00  0.00    +0.087 A 
ATOM     31  C   UNL     1     -12.086  -5.644  -9.778  0.00  0.00    +0.044 C 
ATOM     32  H   UNL     1      -9.601  -0.232 -12.000  0.00  0.00    +0.165 HD
ENDBRANCH  21  22
ENDBRANCH  20  21
ENDBRANCH   5  20
TORSDOF 6
