REMARK  Name = ZINC38660318
REMARK  15 active torsions:
REMARK  status: ('A' for Active; 'I' for Inactive)
REMARK    1  A    between atoms: C_1  and  C_2
REMARK    2  A    between atoms: C_5  and  C_8
REMARK    3  A    between atoms: C_8  and  O_10
REMARK    4  A    between atoms: O_10  and  C_11
REMARK    5  A    between atoms: C_18  and  N_38
REMARK    6  A    between atoms: C_19  and  C_36
REMARK    7  A    between atoms: C_20  and  C_22
REMARK    8  A    between atoms: C_25  and  O_30
REMARK    9  A    between atoms: C_26  and  O_28
REMARK   10  A    between atoms: O_28  and  C_29
REMARK   11  A    between atoms: O_30  and  C_31
REMARK   12  A    between atoms: C_31  and  C_32
REMARK   13  A    between atoms: C_32  and  C_33
REMARK   14  A    between atoms: C_33  and  C_34
REMARK   15  A    between atoms: C_33  and  C_35
REMARK                            x       y       z     vdW  Elec       q    Type
REMARK                         _______ _______ _______ _____ _____    ______ ____
ROOT
ATOM      1  C   UNL     1       0.061  -6.288   1.186  0.00  0.00    +0.135 A 
ATOM      2  C   UNL     1       0.108  -7.023   0.009  0.00  0.00    +0.047 A 
ATOM      3  C   UNL     1       0.092  -8.403   0.056  0.00  0.00    +0.012 A 
ATOM      4  C   UNL     1       0.030  -9.059   1.273  0.00  0.00    +0.008 A 
ATOM      5  C   UNL     1      -0.017  -8.330   2.451  0.00  0.00    +0.138 A 
ATOM      6  C   UNL     1       0.004  -6.942   2.406  0.00  0.00    +0.093 A 
ATOM      7  O   UNL     1      -0.078  -8.955   3.653  0.00  0.00    -0.441 OA
ATOM      8  C   UNL     1      -0.476 -10.236   3.723  0.00  0.00    +0.199 C 
ATOM      9  C   UNL     1      -0.457 -11.052   2.643  0.00  0.00    +0.098 C 
ATOM     10  C   UNL     1       0.015 -10.564   1.302  0.00  0.00    +0.098 C 
ENDROOT
BRANCH  10  11
ATOM     11  C   UNL     1       1.406 -11.082   1.043  0.00  0.00    -0.031 A 
ATOM     12  C   UNL     1       2.438 -10.744   1.898  0.00  0.00    +0.008 A 
ATOM     13  C   UNL     1       3.716 -11.217   1.664  0.00  0.00    +0.050 A 
ATOM     14  C   UNL     1       3.964 -12.033   0.572  0.00  0.00    +0.162 A 
ATOM     15  C   UNL     1       2.925 -12.374  -0.288  0.00  0.00    +0.162 A 
ATOM     16  C   UNL     1       1.645 -11.900  -0.045  0.00  0.00    +0.054 A 
BRANCH  15  17
ATOM     17  O   UNL     1       3.163 -13.174  -1.361  0.00  0.00    -0.491 OA
ATOM     18  C   UNL     1       2.049 -13.483  -2.200  0.00  0.00    +0.277 C 
ENDBRANCH  15  17
BRANCH  14  19
ATOM     19  O   UNL     1       5.221 -12.499   0.341  0.00  0.00    -0.488 OA
BRANCH  19  20
ATOM     20  C   UNL     1       6.238 -12.107   1.265  0.00  0.00    +0.229 C 
BRANCH  20  21
ATOM     21  C   UNL     1       7.574 -12.723   0.844  0.00  0.00    +0.044 C 
BRANCH  21  22
ATOM     22  C   UNL     1       8.663 -12.304   1.833  0.00  0.00    -0.014 C 
ATOM     23  C   UNL     1       9.970 -13.019   1.485  0.00  0.00    +0.007 C 
ATOM     24  C   UNL     1       8.872 -10.791   1.751  0.00  0.00    +0.007 C 
ENDBRANCH  21  22
ENDBRANCH  20  21
ENDBRANCH  19  20
ENDBRANCH  14  19
ENDBRANCH  10  11
BRANCH   8  25
ATOM     25  N   UNL     1      -0.914 -10.732   4.926  0.00  0.00    -0.328 N 
ATOM     26  H   UNL     1      -0.933 -10.160   5.708  0.00  0.00    +0.145 HD
ATOM     27  H   UNL     1      -1.205 -11.655   4.992  0.00  0.00    +0.145 HD
ENDBRANCH   8  25
BRANCH   9  28
ATOM     28  C   UNL     1      -0.894 -12.409   2.782  0.00  0.00    +0.101 C 
ATOM     29  N   UNL     1      -1.241 -13.485   2.891  0.00  0.00    -0.191 NA
ENDBRANCH   9  28
BRANCH   1  30
ATOM     30  O   UNL     1       0.076  -4.930   1.142  0.00  0.00    -0.422 OA
BRANCH  30  31
ATOM     31  C   UNL     1      -1.064  -4.295   0.804  0.00  0.00    +0.344 C 
ATOM     32  O   UNL     1      -2.038  -4.936   0.464  0.00  0.00    -0.245 OA
BRANCH  31  37
ATOM     33  C   UNL     1      -1.316   1.450   0.975  0.00  0.00    +0.044 C 
ATOM     34  C   UNL     1      -1.250  -0.055   0.930  0.00  0.00    -0.050 A 
ATOM     35  C   UNL     1      -2.362  -0.782   0.542  0.00  0.00    +0.004 A 
ATOM     36  C   UNL     1      -2.308  -2.160   0.499  0.00  0.00    +0.015 A 
ATOM     37  C   UNL     1      -1.129  -2.820   0.848  0.00  0.00    +0.059 A 
ATOM     38  C   UNL     1      -0.011  -2.081   1.239  0.00  0.00    +0.015 A 
ATOM     39  C   UNL     1      -0.077  -0.703   1.272  0.00  0.00    +0.004 A 
ENDBRANCH  31  37
ENDBRANCH  30  31
ENDBRANCH   1  30
TORSDOF 11
