REMARK  Name = ZINC15779785
REMARK  3 active torsions:
REMARK  status: ('A' for Active; 'I' for Inactive)
REMARK    1  A    between atoms: C_2  and  S_14
REMARK    2  A    between atoms: S_14  and  N_17
REMARK    3  A    between atoms: C_23  and  C_25
REMARK                            x       y       z     vdW  Elec       q    Type
REMARK                         _______ _______ _______ _____ _____    ______ ____
ROOT
ATOM      1  N   UNL     1      -5.715   2.415   3.995  0.00  0.00    -0.174 NA
ATOM      2  C   UNL     1      -4.876   3.080   5.002  0.00  0.00    +0.128 C 
ATOM      3  C   UNL     1      -4.516   4.483   4.484  0.00  0.00    +0.125 C 
ATOM      4  N   UNL     1      -5.749   5.148   4.038  0.00  0.00    -0.298 N 
ATOM      5  C   UNL     1      -6.590   4.480   3.035  0.00  0.00    +0.125 C 
ATOM      6  C   UNL     1      -6.947   3.080   3.549  0.00  0.00    +0.128 C 
ATOM      7  C   UNL     1      -6.101   6.349   4.539  0.00  0.00    +0.222 C 
ATOM      8  O   UNL     1      -7.067   6.932   4.095  0.00  0.00    -0.275 OA
ENDROOT
BRANCH   7   9
ATOM      9  C   UNL     1      -5.294   6.967   5.652  0.00  0.00    +0.048 C 
ATOM     10  C   UNL     1      -5.252   6.009   6.844  0.00  0.00    +0.019 C 
ATOM     11  C   UNL     1      -4.432   6.636   7.973  0.00  0.00    -0.009 C 
ATOM     12  C   UNL     1      -5.079   7.955   8.401  0.00  0.00    +0.007 C 
ATOM     13  C   UNL     1      -5.121   8.913   7.208  0.00  0.00    -0.009 C 
ATOM     14  C   UNL     1      -5.941   8.286   6.079  0.00  0.00    +0.019 C 
ATOM     15  C   UNL     1      -3.697   9.179   6.718  0.00  0.00    +0.007 C 
ATOM     16  C   UNL     1      -3.050   7.860   6.290  0.00  0.00    -0.009 C 
ATOM     17  C   UNL     1      -3.008   6.903   7.483  0.00  0.00    +0.007 C 
ATOM     18  C   UNL     1      -3.869   7.233   5.161  0.00  0.00    +0.019 C 
ENDBRANCH   7   9
BRANCH   1  19
ATOM     19  S   UNL     1      -5.282   0.940   3.379  0.00  0.00    +0.061 S 
ATOM     20  O   UNL     1      -6.478   0.326   2.917  0.00  0.00    -0.153 OA
ATOM     21  O   UNL     1      -4.436   0.330   4.343  0.00  0.00    -0.153 OA
BRANCH  19  23
ATOM     22  C   UNL     1      -2.916   1.356   2.112  0.00  0.00    +0.034 A 
ATOM     23  C   UNL     1      -4.289   1.241   1.955  0.00  0.00    +0.106 A 
ATOM     24  C   UNL     1      -4.911   1.353   0.716  0.00  0.00    +0.034 A 
ATOM     25  C   UNL     1      -4.097   1.574  -0.381  0.00  0.00    -0.022 A 
ATOM     26  C   UNL     1      -2.723   1.649  -0.223  0.00  0.00    +0.043 A 
ATOM     27  C   UNL     1      -2.102   1.581   1.026  0.00  0.00    -0.023 A 
ATOM     28  C   UNL     1      -0.622   1.798   1.081  0.00  0.00    +0.046 C 
ATOM     29  C   UNL     1       0.050   1.367  -0.221  0.00  0.00    +0.101 C 
ATOM     30  C   UNL     1      -0.692   1.855  -1.442  0.00  0.00    +0.220 C 
ATOM     31  O   UNL     1      -0.090   2.258  -2.415  0.00  0.00    -0.275 OA
ATOM     32  N   UNL     1      -2.042   1.831  -1.425  0.00  0.00    -0.271 N 
ATOM     33  C   UNL     1      -3.017   1.969  -2.501  0.00  0.00    +0.118 C 
ATOM     34  C   UNL     1      -4.399   1.763  -1.836  0.00  0.00    +0.056 C 
ENDBRANCH  19  23
ENDBRANCH   1  19
TORSDOF 3
