REMARK  Name = ZINC09811720
REMARK  10 active torsions:
REMARK  status: ('A' for Active; 'I' for Inactive)
REMARK    1  A    between atoms: C_1  and  C_2
REMARK    2  A    between atoms: C_5  and  C_8
REMARK    3  A    between atoms: C_8  and  N_9
REMARK    4  A    between atoms: C_11  and  C_15
REMARK    5  A    between atoms: C_12  and  C_14
REMARK    6  A    between atoms: C_15  and  O_17
REMARK    7  A    between atoms: O_17  and  C_18
REMARK    8  A    between atoms: C_18  and  C_19
REMARK    9  A    between atoms: N_21  and  C_22
REMARK   10  A    between atoms: C_23  and  C_30
REMARK                            x       y       z     vdW  Elec       q    Type
REMARK                         _______ _______ _______ _____ _____    ______ ____
ROOT
ATOM      1  O   UNL     1       2.483   4.082   0.000  0.00  0.00    -0.452 OA
ENDROOT
BRANCH   1   2
ATOM      2  C   UNL     1       2.641   5.420   0.006  0.00  0.00    +0.344 C 
ATOM      3  O   UNL     1       1.668   6.147   0.019  0.00  0.00    -0.245 OA
BRANCH   2   6
ATOM      4  N   UNL     1       5.909   6.829  -0.691  0.00  0.00    -0.248 N 
ATOM      5  C   UNL     1       4.740   6.326  -1.122  0.00  0.00    +0.142 A 
ATOM      6  C   UNL     1       3.993   6.001  -0.004  0.00  0.00    +0.118 A 
ATOM      7  C   UNL     1       4.776   6.326   1.128  0.00  0.00    +0.075 A 
ATOM      8  N   UNL     1       5.909   6.816   0.708  0.00  0.00    -0.174 NA
ATOM      9  C   UNL     1       4.372   6.139   2.567  0.00  0.00    +0.068 C 
ATOM     10 CL   UNL     1       4.256   6.123  -2.777  0.00  0.00    -0.061 Cl
BRANCH   4  11
ATOM     11  C   UNL     1       7.001   7.306  -1.543  0.00  0.00    +0.180 C 
BRANCH  11  16
ATOM     12  C   UNL     1      10.588   2.927  -2.707  0.00  0.00    +0.044 C 
ATOM     13  C   UNL     1       9.653   4.069  -2.404  0.00  0.00    -0.050 A 
ATOM     14  C   UNL     1       8.581   4.325  -3.238  0.00  0.00    +0.004 A 
ATOM     15  C   UNL     1       7.723   5.373  -2.960  0.00  0.00    +0.006 A 
ATOM     16  C   UNL     1       7.936   6.164  -1.847  0.00  0.00    -0.026 A 
ATOM     17  C   UNL     1       9.011   5.911  -1.015  0.00  0.00    +0.006 A 
ATOM     18  C   UNL     1       9.867   4.861  -1.291  0.00  0.00    +0.004 A 
ENDBRANCH  11  16
ENDBRANCH   4  11
ENDBRANCH   2   6
ENDBRANCH   1   2
BRANCH   1  19
ATOM     19  C   UNL     1       1.121   3.579   0.011  0.00  0.00    +0.328 C 
BRANCH  19  20
ATOM     20  C   UNL     1       1.141   2.072   0.002  0.00  0.00    +0.255 C 
ATOM     21  O   UNL     1       2.200   1.480  -0.011  0.00  0.00    -0.272 OA
ATOM     22  N   UNL     1      -0.017   1.382   0.010  0.00  0.00    -0.277 N 
ATOM     23  H   UNL     1      -0.863   1.856   0.016  0.00  0.00    +0.155 HD
BRANCH  22  24
ATOM     24  C   UNL     1       0.002  -0.004   0.002  0.00  0.00    +0.084 A 
ATOM     25  C   UNL     1      -1.071  -0.879   0.013  0.00  0.00    +0.068 A 
ATOM     26  C   UNL     1      -0.776  -2.312  -0.003  0.00  0.00    -0.023 A 
ATOM     27  C   UNL     1       0.532  -2.626  -0.017  0.00  0.00    -0.004 A 
ATOM     28  S   UNL     1       1.372  -1.061  -0.016  0.00  0.00    -0.077 S 
ATOM     29  C   UNL     1       0.754  -4.114  -0.030  0.00  0.00    +0.043 C 
ATOM     30  C   UNL     1      -0.606  -4.707  -0.459  0.00  0.00    +0.010 C 
ATOM     31  C   UNL     1      -1.586  -3.609  -0.000  0.00  0.00    +0.037 C 
BRANCH  25  32
ATOM     32  C   UNL     1      -2.452  -0.388   0.036  0.00  0.00    +0.244 C 
ATOM     33  O   UNL     1      -3.041  -0.178  -1.008  0.00  0.00    -0.270 OA
ATOM     34  N   UNL     1      -3.069  -0.167   1.214  0.00  0.00    -0.325 N 
ATOM     35  H   UNL     1      -2.600  -0.334   2.046  0.00  0.00    +0.145 HD
ATOM     36  H   UNL     1      -3.983   0.158   1.229  0.00  0.00    +0.145 HD
ENDBRANCH  25  32
ENDBRANCH  22  24
ENDBRANCH  19  20
ENDBRANCH   1  19
TORSDOF 8
