REMARK  Name = ZINC05254956
REMARK  8 active torsions:
REMARK  status: ('A' for Active; 'I' for Inactive)
REMARK    1  A    between atoms: C_1  and  C_2
REMARK    2  A    between atoms: C_3  and  C_28
REMARK    3  A    between atoms: C_11  and  C_13
REMARK    4  A    between atoms: C_13  and  S_14
REMARK    5  A    between atoms: S_14  and  C_15
REMARK    6  A    between atoms: C_15  and  C_17
REMARK    7  A    between atoms: C_15  and  C_18
REMARK    8  A    between atoms: N_20  and  C_21
REMARK                            x       y       z     vdW  Elec       q    Type
REMARK                         _______ _______ _______ _____ _____    ______ ____
ROOT
ATOM      1  C   UNL     1       7.674   1.314   0.268  0.00  0.00    +0.144 C 
ENDROOT
BRANCH   1  12
ATOM      2  C   UNL     1      13.541   3.905   2.220  0.00  0.00    +0.045 C 
ATOM      3  C   UNL     1      12.113   4.370   2.105  0.00  0.00    -0.026 A 
ATOM      4  C   UNL     1      11.776   5.622   2.455  0.00  0.00    -0.008 A 
ATOM      5  S   UNL     1      10.021   5.680   2.145  0.00  0.00    -0.073 S 
ATOM      6  C   UNL     1       9.792   4.022   1.556  0.00  0.00    +0.116 A 
ATOM      7  C   UNL     1      11.085   3.471   1.617  0.00  0.00    +0.075 A 
ATOM      8  C   UNL     1      11.197   2.108   1.189  0.00  0.00    +0.260 A 
ATOM      9  O   UNL     1      12.277   1.542   1.204  0.00  0.00    -0.267 OA
ATOM     10  N   UNL     1      10.092   1.461   0.775  0.00  0.00    -0.310 N 
ATOM     11  H   UNL     1      10.163   0.507   0.484  0.00  0.00    +0.170 HD
ATOM     12  C   UNL     1       8.882   2.078   0.746  0.00  0.00    +0.121 A 
ATOM     13  N   UNL     1       8.747   3.319   1.129  0.00  0.00    -0.226 NA
ATOM     14  C   UNL     1      12.668   6.717   2.982  0.00  0.00    +0.052 C 
ENDBRANCH   1  12
BRANCH   1  15
ATOM     15  S   UNL     1       6.212   2.385   0.347  0.00  0.00    -0.141 S 
BRANCH  15  16
ATOM     16  C   UNL     1       4.863   1.331  -0.252  0.00  0.00    +0.130 C 
ATOM     17  C   UNL     1       5.106   0.978  -1.721  0.00  0.00    +0.029 C 
BRANCH  16  18
ATOM     18  C   UNL     1       3.555   2.068  -0.122  0.00  0.00    +0.230 C 
ATOM     19  O   UNL     1       3.539   3.281  -0.116  0.00  0.00    -0.274 OA
ATOM     20  N   UNL     1       2.401   1.379  -0.013  0.00  0.00    -0.282 N 
ATOM     21  H   UNL     1       2.420   0.412   0.062  0.00  0.00    +0.155 HD
BRANCH  20  22
ATOM     22  C   UNL     1       1.177   2.059  -0.009  0.00  0.00    +0.069 A 
ATOM     23  C   UNL     1       1.072   3.306  -0.609  0.00  0.00    +0.026 A 
ATOM     24  C   UNL     1      -0.137   3.974  -0.604  0.00  0.00    +0.002 A 
ATOM     25  C   UNL     1      -1.243   3.402  -0.003  0.00  0.00    +0.003 A 
ATOM     26  C   UNL     1      -1.145   2.158   0.592  0.00  0.00    +0.040 A 
ATOM     27  C   UNL     1       0.064   1.486   0.595  0.00  0.00    +0.144 A 
ATOM     28  F   UNL     1       0.161   0.272   1.180  0.00  0.00    -0.204 F 
ENDBRANCH  20  22
ENDBRANCH  16  18
ENDBRANCH  15  16
ENDBRANCH   1  15
TORSDOF 5
