REMARK  Name = ZINC05501356
REMARK  3 active torsions:
REMARK  status: ('A' for Active; 'I' for Inactive)
REMARK    1  A    between atoms: C_6  and  C_7
REMARK    2  A    between atoms: N_12  and  C_19
REMARK    3  A    between atoms: C_15  and  O_18
REMARK                            x       y       z     vdW  Elec       q    Type
REMARK                         _______ _______ _______ _____ _____    ______ ____
ROOT
ATOM      1  C   UNL     1      -1.293  -0.775   0.010  0.00  0.00    +0.112 C 
ATOM      2  C   UNL     1      -1.351  -1.609   1.254  0.00  0.00    +0.033 A 
ATOM      3  C   UNL     1      -0.654  -1.266   2.427  0.00  0.00    +0.141 A 
ATOM      4  N   UNL     1      -0.895  -2.164   3.340  0.00  0.00    -0.177 NA
ATOM      5  N   UNL     1      -1.754  -3.124   2.803  0.00  0.00    -0.243 N 
ATOM      6  C   UNL     1      -2.029  -2.773   1.498  0.00  0.00    +0.159 A 
ATOM      7  N   UNL     1      -2.821  -3.531   0.720  0.00  0.00    -0.197 NA
ATOM      8  C   UNL     1      -3.244  -3.492  -0.458  0.00  0.00    +0.199 C 
ATOM      9  C   UNL     1      -3.044  -2.467  -1.504  0.00  0.00    +0.165 C 
ATOM     10  S   UNL     1      -1.391  -1.759  -1.489  0.00  0.00    -0.138 S 
ENDROOT
BRANCH   1  16
ATOM     11  C   UNL     1      -0.017   1.378   0.010  0.00  0.00    +0.006 A 
ATOM     12  C   UNL     1       1.171   2.086   0.002  0.00  0.00    +0.015 A 
ATOM     13  C   UNL     1       2.378   1.411  -0.013  0.00  0.00    +0.018 A 
ATOM     14  C   UNL     1       2.396   0.027  -0.021  0.00  0.00    +0.015 A 
ATOM     15  C   UNL     1       1.208  -0.679  -0.013  0.00  0.00    +0.006 A 
ATOM     16  C   UNL     1       0.002  -0.004   0.002  0.00  0.00    -0.030 A 
ATOM     17 BR   UNL     1       4.003   2.378  -0.024  0.00  0.00    -0.050 Br
ENDBRANCH   1  16
BRANCH   5  18
ATOM     18  C   UNL     1      -2.275  -4.299   3.505  0.00  0.00    +0.109 C 
ATOM     19  C   UNL     1      -3.079  -3.849   4.727  0.00  0.00    +0.027 C 
ATOM     20  C   UNL     1      -3.623  -5.077   5.460  0.00  0.00    +0.002 C 
ATOM     21  C   UNL     1      -2.457  -5.959   5.913  0.00  0.00    +0.000 C 
ATOM     22  C   UNL     1      -1.654  -6.409   4.691  0.00  0.00    +0.002 C 
ATOM     23  C   UNL     1      -1.110  -5.181   3.958  0.00  0.00    +0.027 C 
ENDBRANCH   5  18
BRANCH   8  24
ATOM     24  O   UNL     1      -3.996  -4.548  -0.830  0.00  0.00    -0.495 OA
ATOM     25  H   UNL     1      -4.117  -5.209  -0.134  0.00  0.00    +0.293 HD
ENDBRANCH   8  24
TORSDOF 3
