REMARK  Name = ZINC34923667
REMARK  11 active torsions:
REMARK  status: ('A' for Active; 'I' for Inactive)
REMARK    1  A    between atoms: C_1  and  C_2
REMARK    2  A    between atoms: C_3  and  C_32
REMARK    3  A    between atoms: C_4  and  C_25
REMARK    4  A    between atoms: C_7  and  C_12
REMARK    5  A    between atoms: C_13  and  N_15
REMARK    6  A    between atoms: N_15  and  C_16
REMARK    7  A    between atoms: C_16  and  C_17
REMARK    8  A    between atoms: C_17  and  C_18
REMARK    9  A    between atoms: N_23  and  C_24
REMARK   10  A    between atoms: C_32  and  O_34
REMARK   11  A    between atoms: O_34  and  C_35
REMARK                            x       y       z     vdW  Elec       q    Type
REMARK                         _______ _______ _______ _____ _____    ______ ____
ROOT
ATOM      1  C   UNL     1      -0.030   1.554   0.209  0.00  0.00    +0.066 C 
ATOM      2  C   UNL     1      -0.021   0.048   0.155  0.00  0.00    +0.053 C 
ATOM      3  C   UNL     1      -1.216  -0.645   0.141  0.00  0.00    +0.082 C 
ATOM      4  C   UNL     1      -1.155  -2.155   0.086  0.00  0.00    +0.150 C 
ATOM      5  N   UNL     1       0.195  -2.777   0.051  0.00  0.00    -0.267 N 
ATOM      6  C   UNL     1       0.488  -4.125  -0.001  0.00  0.00    +0.048 C 
ATOM      7  C   UNL     1       1.791  -4.483  -0.026  0.00  0.00    +0.072 C 
ATOM      8  S   UNL     1       2.609  -2.901   0.024  0.00  0.00    -0.060 S 
ATOM      9  C   UNL     1       1.254  -1.912   0.073  0.00  0.00    +0.166 C 
ATOM     10  N   UNL     1       1.131  -0.602   0.116  0.00  0.00    -0.230 NA
ENDROOT
BRANCH   4  11
ATOM     11  C   UNL     1      -1.904  -2.606  -1.141  0.00  0.00    -0.021 A 
ATOM     12  C   UNL     1      -1.342  -2.440  -2.393  0.00  0.00    +0.006 A 
ATOM     13  C   UNL     1      -2.029  -2.853  -3.520  0.00  0.00    +0.002 A 
ATOM     14  C   UNL     1      -3.278  -3.431  -3.395  0.00  0.00    +0.020 A 
ATOM     15  C   UNL     1      -3.841  -3.596  -2.143  0.00  0.00    +0.041 A 
ATOM     16  C   UNL     1      -3.151  -3.188  -1.015  0.00  0.00    +0.025 A 
ATOM     17 CL   UNL     1      -5.411  -4.322  -1.985  0.00  0.00    -0.084 Cl
ENDBRANCH   4  11
BRANCH   6  18
ATOM     18  C   UNL     1      -0.579  -5.136  -0.026  0.00  0.00    +0.091 C 
ATOM     19  C   UNL     1      -0.271  -6.443   0.070  0.00  0.00    +0.239 C 
ATOM     20  O   UNL     1       1.005  -6.822   0.324  0.00  0.00    -0.271 OA
BRANCH  19  21
ATOM     21  N   UNL     1      -1.258  -7.401  -0.092  0.00  0.00    -0.312 N 
ATOM     22  H   UNL     1      -2.183  -7.130  -0.200  0.00  0.00    +0.149 HD
BRANCH  21  23
ATOM     23  C   UNL     1      -0.905  -8.823  -0.098  0.00  0.00    +0.103 C 
BRANCH  23  24
ATOM     24  C   UNL     1      -2.150  -9.655  -0.414  0.00  0.00    +0.003 C 
BRANCH  24  25
ATOM     25  C   UNL     1      -1.781 -11.140  -0.421  0.00  0.00    -0.068 C 
ATOM     26  C   UNL     1      -3.037 -12.006  -0.689  0.00  0.00    -0.017 C 
ATOM     27  C   UNL     1      -2.408 -13.300  -1.271  0.00  0.00    -0.020 C 
ATOM     28  C   UNL     1      -1.212 -12.767  -2.088  0.00  0.00    -0.079 C 
ATOM     29  N   UNL     1      -0.868 -11.439  -1.545  0.00  0.00    +0.380 N 
ATOM     30  C   UNL     1       0.521 -11.443  -1.065  0.00  0.00    -0.096 C 
ATOM     31  H   UNL     1      -0.975 -10.740  -2.264  0.00  0.00    -0.082 HD
ENDBRANCH  24  25
ENDBRANCH  23  24
ENDBRANCH  21  23
ENDBRANCH  19  21
ENDBRANCH   6  18
BRANCH   3  32
ATOM     32  C   UNL     1      -2.443   0.028   0.178  0.00  0.00    +0.339 C 
ATOM     33  O   UNL     1      -2.469   1.246   0.222  0.00  0.00    -0.245 OA
BRANCH  32  34
ATOM     34  O   UNL     1      -3.599  -0.672   0.163  0.00  0.00    -0.465 OA
ATOM     35  C   UNL     1      -4.814   0.080   0.202  0.00  0.00    +0.280 C 
ENDBRANCH  32  34
ENDBRANCH   3  32
TORSDOF 8
