REMARK  Name = ZINC60353686
REMARK  3 active torsions:
REMARK  status: ('A' for Active; 'I' for Inactive)
REMARK    1  A    between atoms: C_1  and  C_2
REMARK    2  A    between atoms: N_11  and  S_12
REMARK    3  A    between atoms: S_12  and  C_15
REMARK                            x       y       z     vdW  Elec       q    Type
REMARK                         _______ _______ _______ _____ _____    ______ ____
ROOT
ATOM      1  S   UNL     1       2.388  -0.201   1.395  0.00  0.00    +0.078 S 
ATOM      2  O   UNL     1       2.766   1.076   0.900  0.00  0.00    -0.150 OA
ATOM      3  O   UNL     1       2.524  -0.559   2.764  0.00  0.00    -0.150 OA
ENDROOT
BRANCH   1  13
ATOM      4  C   UNL     1       0.189   1.714  -0.085  0.00  0.00    +0.030 C 
ATOM      5  C   UNL     1       0.125   0.187  -0.155  0.00  0.00    +0.099 C 
ATOM      6  C   UNL     1      -1.334  -0.290  -0.073  0.00  0.00    +0.061 C 
ATOM      7  C   UNL     1      -1.386  -1.142   1.175  0.00  0.00    -0.023 A 
ATOM      8  C   UNL     1      -2.431  -1.834   1.757  0.00  0.00    +0.005 A 
ATOM      9  C   UNL     1      -2.225  -2.553   2.920  0.00  0.00    +0.000 A 
ATOM     10  C   UNL     1      -0.970  -2.579   3.500  0.00  0.00    +0.002 A 
ATOM     11  C   UNL     1       0.075  -1.890   2.923  0.00  0.00    +0.025 A 
ATOM     12  C   UNL     1      -0.124  -1.161   1.748  0.00  0.00    +0.055 A 
ATOM     13  N   UNL     1       0.790  -0.404   1.010  0.00  0.00    -0.200 N 
ENDBRANCH   1  13
BRANCH   1  14
ATOM     14  C   UNL     1       3.301  -1.390   0.470  0.00  0.00    +0.147 A 
ATOM     15  C   UNL     1       4.184  -0.974  -0.509  0.00  0.00    +0.032 A 
ATOM     16  C   UNL     1       4.902  -1.906  -1.236  0.00  0.00    +0.005 A 
ATOM     17  C   UNL     1       4.737  -3.255  -0.985  0.00  0.00    +0.041 A 
ATOM     18  C   UNL     1       3.854  -3.675  -0.006  0.00  0.00    +0.160 A 
ATOM     19  C   UNL     1       3.138  -2.740   0.726  0.00  0.00    +0.185 A 
ATOM     20  F   UNL     1       2.280  -3.147   1.687  0.00  0.00    -0.200 F 
ATOM     21  F   UNL     1       3.693  -4.994   0.238  0.00  0.00    -0.202 F 
ENDBRANCH   1  14
TORSDOF 2
