REMARK  Name = ZINC08861164
REMARK  9 active torsions:
REMARK  status: ('A' for Active; 'I' for Inactive)
REMARK    1  A    between atoms: C_4  and  C_7
REMARK    2  A    between atoms: N_9  and  C_10
REMARK    3  A    between atoms: C_10  and  C_17
REMARK    4  A    between atoms: C_11  and  C_12
REMARK    5  A    between atoms: N_19  and  N_20
REMARK    6  A    between atoms: C_21  and  C_22
REMARK    7  A    between atoms: C_26  and  O_28
REMARK    8  A    between atoms: O_28  and  C_29
REMARK    9  A    between atoms: C_29  and  C_31
REMARK                            x       y       z     vdW  Elec       q    Type
REMARK                         _______ _______ _______ _____ _____    ______ ____
ROOT
ATOM      1  C   UNL     1      -2.315  -2.316  -0.219  0.00  0.00    +0.277 C 
ATOM      2  O   UNL     1      -3.357  -1.695  -0.329  0.00  0.00    -0.267 OA
ATOM      3  N   UNL     1      -1.147  -1.656  -0.094  0.00  0.00    -0.202 N 
ATOM      4  H   UNL     1      -0.311  -2.148  -0.079  0.00  0.00    +0.178 HD
ENDROOT
BRANCH   1   5
ATOM      5  C   UNL     1      -2.332  -3.780  -0.222  0.00  0.00    +0.099 C 
ATOM      6  C   UNL     1      -2.359  -4.462   0.954  0.00  0.00    +0.043 C 
BRANCH   6   7
ATOM      7  C   UNL     1      -2.485  -3.760   2.178  0.00  0.00    +0.014 A 
ATOM      8  C   UNL     1      -2.432  -4.248   3.477  0.00  0.00    +0.015 A 
ATOM      9  C   UNL     1      -2.583  -3.360   4.513  0.00  0.00    +0.008 A 
ATOM     10  C   UNL     1      -2.776  -2.041   4.237  0.00  0.00    +0.046 A 
ATOM     11  S   UNL     1      -2.744  -2.015   2.453  0.00  0.00    -0.097 S 
ENDBRANCH   6   7
BRANCH   5  14
ATOM     12  C   UNL     1      -2.183  -3.807  -2.597  0.00  0.00    +0.248 C 
ATOM     13  O   UNL     1      -1.971  -2.609  -2.587  0.00  0.00    -0.270 OA
ATOM     14  N   UNL     1      -2.320  -4.477  -1.436  0.00  0.00    -0.277 N 
ATOM     15  H   UNL     1      -2.411  -5.443  -1.442  0.00  0.00    +0.155 HD
BRANCH  12  19
ATOM     16  C   UNL     1      -2.492  -5.875  -6.294  0.00  0.00    +0.000 A 
ATOM     17  C   UNL     1      -2.251  -4.513  -6.285  0.00  0.00    +0.001 A 
ATOM     18  C   UNL     1      -2.150  -3.835  -5.088  0.00  0.00    +0.013 A 
ATOM     19  C   UNL     1      -2.291  -4.526  -3.884  0.00  0.00    +0.037 A 
ATOM     20  C   UNL     1      -2.529  -5.902  -3.900  0.00  0.00    +0.013 A 
ATOM     21  C   UNL     1      -2.634  -6.567  -5.104  0.00  0.00    +0.001 A 
ENDBRANCH  12  19
ENDBRANCH   5  14
ENDBRANCH   1   5
BRANCH   3  22
ATOM     22  N   UNL     1      -1.139  -0.259   0.014  0.00  0.00    -0.187 NA
ATOM     23  C   UNL     1      -0.012   0.384   0.037  0.00  0.00    +0.138 C 
BRANCH  23  24
ATOM     24  C   UNL     1      -0.004   1.859   0.039  0.00  0.00    -0.002 A 
ATOM     25  C   UNL     1      -1.209   2.566   0.012  0.00  0.00    +0.010 A 
ATOM     26  C   UNL     1      -1.198   3.946   0.019  0.00  0.00    +0.004 A 
ATOM     27  C   UNL     1       0.003   4.632   0.043  0.00  0.00    +0.046 A 
ATOM     28  C   UNL     1       1.205   3.938   0.066  0.00  0.00    +0.133 A 
ATOM     29  C   UNL     1       1.206   2.553   0.064  0.00  0.00    +0.055 A 
BRANCH  28  30
ATOM     30  O   UNL     1       2.381   4.618   0.089  0.00  0.00    -0.422 OA
BRANCH  30  31
ATOM     31  C   UNL     1       3.087   4.660  -1.058  0.00  0.00    +0.345 C 
ATOM     32  O   UNL     1       2.622   4.185  -2.075  0.00  0.00    -0.245 OA
BRANCH  31  33
ATOM     33  C   UNL     1       4.426   5.284  -1.079  0.00  0.00    +0.062 A 
ATOM     34  C   UNL     1       5.160   5.329  -2.266  0.00  0.00    +0.015 A 
ATOM     35  C   UNL     1       6.409   5.912  -2.281  0.00  0.00    +0.004 A 
ATOM     36  C   UNL     1       6.938   6.452  -1.122  0.00  0.00    +0.038 A 
ATOM     37  C   UNL     1       6.216   6.412   0.060  0.00  0.00    +0.124 A 
ATOM     38  C   UNL     1       4.961   5.835   0.086  0.00  0.00    +0.053 A 
ATOM     39  F   UNL     1       6.738   6.943   1.188  0.00  0.00    -0.205 F 
ENDBRANCH  31  33
ENDBRANCH  30  31
ENDBRANCH  28  30
ENDBRANCH  23  24
ENDBRANCH   3  22
TORSDOF 9
