REMARK  Name = ZINC34774321
REMARK  7 active torsions:
REMARK  status: ('A' for Active; 'I' for Inactive)
REMARK    1  A    between atoms: C_1  and  C_2
REMARK    2  A    between atoms: C_2  and  C_4
REMARK    3  A    between atoms: C_4  and  S_5
REMARK    4  A    between atoms: S_5  and  C_6
REMARK    5  A    between atoms: C_10  and  C_15
REMARK    6  A    between atoms: N_24  and  C_27
REMARK    7  A    between atoms: C_27  and  C_28
REMARK                            x       y       z     vdW  Elec       q    Type
REMARK                         _______ _______ _______ _____ _____    ______ ____
ROOT
ATOM      1  C   UNL     1      -3.502  -2.868   1.390  0.00  0.00    +0.191 A 
ATOM      2  N   UNL     1      -4.251  -2.908   2.486  0.00  0.00    -0.206 NA
ATOM      3  C   UNL     1      -5.095  -1.938   2.795  0.00  0.00    +0.134 A 
ATOM      4  C   UNL     1      -5.210  -0.814   1.932  0.00  0.00    +0.055 A 
ATOM      5  C   UNL     1      -6.059   0.368   2.054  0.00  0.00    +0.002 A 
ATOM      6  C   UNL     1      -5.994   1.318   1.093  0.00  0.00    +0.056 A 
ATOM      7  S   UNL     1      -4.778   0.678  -0.043  0.00  0.00    -0.076 S 
ATOM      8  C   UNL     1      -4.387  -0.838   0.788  0.00  0.00    +0.115 A 
ATOM      9  N   UNL     1      -3.565  -1.843   0.552  0.00  0.00    -0.214 NA
ATOM     10  N   UNL     1      -5.858  -2.016   3.946  0.00  0.00    -0.318 N 
ATOM     11  C   UNL     1      -7.006  -2.932   4.032  0.00  0.00    +0.088 C 
ATOM     12  C   UNL     1      -6.875  -3.756   5.316  0.00  0.00    -0.059 C 
ATOM     13  N   UNL     1      -6.734  -2.852   6.465  0.00  0.00    +0.387 N 
ATOM     14  C   UNL     1      -5.482  -2.092   6.353  0.00  0.00    -0.059 C 
ATOM     15  C   UNL     1      -5.540  -1.190   5.121  0.00  0.00    +0.088 C 
ATOM     16  H   UNL     1      -7.513  -2.211   6.484  0.00  0.00    -0.081 HD
ENDROOT
BRANCH   5  17
ATOM     17  C   UNL     1      -6.975   0.523   3.208  0.00  0.00    -0.017 A 
ATOM     18  C   UNL     1      -7.976  -0.420   3.440  0.00  0.00    +0.008 A 
ATOM     19  C   UNL     1      -8.825  -0.271   4.517  0.00  0.00    +0.001 A 
ATOM     20  C   UNL     1      -8.686   0.813   5.366  0.00  0.00    +0.000 A 
ATOM     21  C   UNL     1      -7.696   1.752   5.141  0.00  0.00    +0.001 A 
ATOM     22  C   UNL     1      -6.837   1.610   4.071  0.00  0.00    +0.008 A 
ENDBRANCH   5  17
BRANCH   1  23
ATOM     23  S   UNL     1      -2.400  -4.199   1.047  0.00  0.00    -0.082 S 
BRANCH  23  24
ATOM     24  C   UNL     1      -1.601  -3.718  -0.508  0.00  0.00    +0.107 C 
BRANCH  24  26
ATOM     25  C   UNL     1       0.700  -4.912  -0.204  0.00  0.00    +0.039 C 
ATOM     26  C   UNL     1      -0.619  -4.785  -0.921  0.00  0.00    -0.069 C 
ATOM     27  C   UNL     1      -0.913  -5.601  -1.902  0.00  0.00    +0.008 C 
ENDBRANCH  24  26
ENDBRANCH  23  24
ENDBRANCH   1  23
BRANCH  13  28
ATOM     28  C   UNL     1      -6.719  -3.637   7.706  0.00  0.00    +0.019 C 
BRANCH  28  29
ATOM     29  C   UNL     1      -6.698  -2.706   8.890  0.00  0.00    +0.199 C 
ATOM     30  O   UNL     1      -6.696  -1.505   8.717  0.00  0.00    -0.278 OA
ATOM     31  N   UNL     1      -6.682  -3.206  10.141  0.00  0.00    -0.303 N 
ATOM     32  C   UNL     1      -6.676  -4.634  10.493  0.00  0.00    +0.108 C 
ATOM     33  C   UNL     1      -6.683  -4.726  12.033  0.00  0.00    +0.020 C 
ATOM     34  C   UNL     1      -7.263  -3.353  12.461  0.00  0.00    +0.020 C 
ATOM     35  C   UNL     1      -6.661  -2.413  11.384  0.00  0.00    +0.108 C 
ENDBRANCH  28  29
ENDBRANCH  13  28
TORSDOF 6
