REMARK  Name = ZINC59304948
REMARK  8 active torsions:
REMARK  status: ('A' for Active; 'I' for Inactive)
REMARK    1  A    between atoms: C_1  and  C_2
REMARK    2  A    between atoms: C_2  and  C_3
REMARK    3  A    between atoms: C_3  and  C_4
REMARK    4  A    between atoms: C_3  and  C_5
REMARK    5  A    between atoms: C_3  and  C_6
REMARK    6  A    between atoms: N_14  and  C_18
REMARK    7  A    between atoms: C_18  and  C_19
REMARK    8  A    between atoms: N_21  and  C_22
REMARK                            x       y       z     vdW  Elec       q    Type
REMARK                         _______ _______ _______ _____ _____    ______ ____
ROOT
ATOM      1  C   UNL     1       0.727  -2.061  -1.284  0.00  0.00    -0.005 C 
ATOM      2  C   UNL     1       1.469  -2.557  -0.041  0.00  0.00    +0.006 C 
ATOM      3  C   UNL     1       1.483  -4.087  -0.034  0.00  0.00    +0.035 C 
ATOM      4  C   UNL     1       2.171  -4.598  -1.295  0.00  0.00    +0.113 C 
ATOM      5  C   UNL     1       1.458  -4.091  -2.543  0.00  0.00    +0.035 C 
ATOM      6  C   UNL     1       1.444  -2.561  -2.540  0.00  0.00    +0.006 C 
ATOM      7  C   UNL     1       3.624  -4.180  -1.310  0.00  0.00    +0.247 C 
ATOM      8  O   UNL     1       4.061  -3.049  -1.316  0.00  0.00    -0.273 OA
ATOM      9  N   UNL     1       4.330  -5.329  -1.315  0.00  0.00    -0.215 N 
ATOM     10  C   UNL     1       3.528  -6.401  -1.305  0.00  0.00    +0.310 C 
ATOM     11  O   UNL     1       3.932  -7.547  -1.308  0.00  0.00    -0.252 OA
ATOM     12  N   UNL     1       2.224  -6.066  -1.293  0.00  0.00    -0.285 N 
ATOM     13  H   UNL     1       1.468  -6.674  -1.284  0.00  0.00    +0.151 HD
ENDROOT
BRANCH   1  14
ATOM     14  C   UNL     1       0.701  -0.531  -1.286  0.00  0.00    -0.032 C 
ATOM     15  C   UNL     1      -0.042  -0.035  -2.529  0.00  0.00    +0.011 C 
ATOM     16  C   UNL     1       2.135   0.003  -1.302  0.00  0.00    +0.011 C 
BRANCH  14  18
ATOM     17  C   UNL     1      -0.042   1.498  -0.033  0.00  0.00    +0.004 C 
ATOM     18  C   UNL     1      -0.016  -0.031  -0.030  0.00  0.00    +0.003 C 
ENDBRANCH  14  18
ENDBRANCH   1  14
BRANCH   9  19
ATOM     19  C   UNL     1       5.793  -5.396  -1.331  0.00  0.00    +0.214 C 
BRANCH  19  20
ATOM     20  C   UNL     1       6.310  -5.416   0.085  0.00  0.00    +0.235 C 
ATOM     21  O   UNL     1       5.533  -5.378   1.015  0.00  0.00    -0.274 OA
ATOM     22  N   UNL     1       7.636  -5.476   0.317  0.00  0.00    -0.283 N 
ATOM     23  H   UNL     1       8.255  -5.572  -0.424  0.00  0.00    +0.155 HD
BRANCH  22  24
ATOM     24  C   UNL     1       8.122  -5.400   1.629  0.00  0.00    +0.048 A 
ATOM     25  C   UNL     1       7.397  -5.961   2.672  0.00  0.00    +0.027 A 
ATOM     26  C   UNL     1       7.877  -5.885   3.965  0.00  0.00    +0.040 A 
ATOM     27  C   UNL     1       9.081  -5.250   4.222  0.00  0.00    +0.125 A 
ATOM     28  C   UNL     1       9.805  -4.689   3.184  0.00  0.00    +0.055 A 
ATOM     29  C   UNL     1       9.331  -4.768   1.888  0.00  0.00    +0.042 A 
ATOM     30 BR   UNL     1      10.325  -4.009   0.469  0.00  0.00    -0.048 Br
ATOM     31  F   UNL     1       9.548  -5.176   5.487  0.00  0.00    -0.205 F 
ENDBRANCH  22  24
ENDBRANCH  19  20
ENDBRANCH   9  19
TORSDOF 5
