REMARK  Name = ZINC15675540
REMARK  6 active torsions:
REMARK  status: ('A' for Active; 'I' for Inactive)
REMARK    1  A    between atoms: C_3  and  C_34
REMARK    2  A    between atoms: C_6  and  C_7
REMARK    3  A    between atoms: C_7  and  N_8
REMARK    4  A    between atoms: C_17  and  C_19
REMARK    5  A    between atoms: C_21  and  C_24
REMARK    6  A    between atoms: C_27  and  C_30
REMARK                            x       y       z     vdW  Elec       q    Type
REMARK                         _______ _______ _______ _____ _____    ______ ____
ROOT
ATOM      1  N   UNL     1      -1.727  -1.018  -1.371  0.00  0.00    -0.281 NA
ATOM      2  C   UNL     1      -2.061   0.245  -2.050  0.00  0.00    +0.140 C 
ATOM      3  C   UNL     1      -2.598  -0.081  -3.421  0.00  0.00    +0.051 A 
ATOM      4  C   UNL     1      -3.028  -1.313  -3.776  0.00  0.00    +0.040 A 
ATOM      5  N   UNL     1      -3.434  -1.238  -5.070  0.00  0.00    -0.349 N 
ATOM      6  H   UNL     1      -3.794  -1.964  -5.605  0.00  0.00    +0.166 HD
ATOM      7  C   UNL     1      -3.243   0.040  -5.471  0.00  0.00    +0.171 A 
ATOM      8  N   UNL     1      -2.741   0.724  -4.475  0.00  0.00    -0.349 N 
ATOM      9  C   UNL     1      -3.026  -2.495  -2.842  0.00  0.00    +0.083 C 
ATOM     10  C   UNL     1      -2.851  -1.964  -1.411  0.00  0.00    +0.152 C 
ATOM     11  H   UNL     1      -2.512   1.666  -4.499  0.00  0.00    +0.166 HD
ENDROOT
BRANCH  10  12
ATOM     12  C   UNL     1      -2.571  -3.115  -0.480  0.00  0.00    +0.245 A 
ATOM     13  N   UNL     1      -3.419  -3.638   0.360  0.00  0.00    -0.190 NA
ATOM     14  C   UNL     1      -2.838  -4.647   1.033  0.00  0.00    +0.202 A 
ATOM     15  N   UNL     1      -1.602  -4.771   0.617  0.00  0.00    -0.056 NA
ATOM     16  O   UNL     1      -1.411  -3.777  -0.379  0.00  0.00    -0.336 OA
BRANCH  14  17
ATOM     17  C   UNL     1      -3.488  -5.482   2.074  0.00  0.00    +0.022 A 
ATOM     18  C   UNL     1      -4.817  -5.252   2.425  0.00  0.00    +0.012 A 
ATOM     19  C   UNL     1      -5.417  -6.030   3.393  0.00  0.00    +0.013 A 
ATOM     20  C   UNL     1      -4.702  -7.038   4.016  0.00  0.00    +0.055 A 
ATOM     21  C   UNL     1      -3.382  -7.271   3.671  0.00  0.00    +0.013 A 
ATOM     22  C   UNL     1      -2.774  -6.502   2.699  0.00  0.00    +0.012 A 
BRANCH  20  23
ATOM     23  C   UNL     1      -5.362  -7.884   5.073  0.00  0.00    +0.417 C 
ATOM     24  F   UNL     1      -5.959  -8.998   4.473  0.00  0.00    -0.166 F 
ATOM     25  F   UNL     1      -4.401  -8.311   5.996  0.00  0.00    -0.166 F 
ATOM     26  F   UNL     1      -6.338  -7.130   5.732  0.00  0.00    -0.166 F 
ENDBRANCH  20  23
ENDBRANCH  14  17
ENDBRANCH  10  12
BRANCH   1  27
ATOM     27  C   UNL     1      -1.293  -0.775   0.011  0.00  0.00    +0.120 C 
BRANCH  27  33
ATOM     28  C   UNL     1      -0.017   1.378   0.010  0.00  0.00    +0.005 A 
ATOM     29  C   UNL     1       1.171   2.086   0.002  0.00  0.00    +0.012 A 
ATOM     30  C   UNL     1       2.377   1.411  -0.013  0.00  0.00    +0.055 A 
ATOM     31  C   UNL     1       2.396   0.029  -0.020  0.00  0.00    +0.012 A 
ATOM     32  C   UNL     1       1.208  -0.679  -0.012  0.00  0.00    +0.005 A 
ATOM     33  C   UNL     1       0.002  -0.004   0.002  0.00  0.00    -0.033 A 
BRANCH  30  34
ATOM     34  C   UNL     1       3.672   2.182  -0.022  0.00  0.00    +0.417 C 
ATOM     35  F   UNL     1       4.086   2.414   1.294  0.00  0.00    -0.166 F 
ATOM     36  F   UNL     1       4.651   1.442  -0.695  0.00  0.00    -0.166 F 
ATOM     37  F   UNL     1       3.482   3.405  -0.674  0.00  0.00    -0.166 F 
ENDBRANCH  30  34
ENDBRANCH  27  33
ENDBRANCH   1  27
TORSDOF 6
