REMARK  Name = ZINC09354434
REMARK  7 active torsions:
REMARK  status: ('A' for Active; 'I' for Inactive)
REMARK    1  A    between atoms: C_4  and  C_7
REMARK    2  A    between atoms: C_7  and  C_9
REMARK    3  A    between atoms: C_11  and  C_23
REMARK    4  A    between atoms: C_17  and  C_18
REMARK    5  A    between atoms: C_17  and  O_22
REMARK    6  A    between atoms: C_26  and  C_28
REMARK    7  A    between atoms: C_33  and  N_34
REMARK                            x       y       z     vdW  Elec       q    Type
REMARK                         _______ _______ _______ _____ _____    ______ ____
ROOT
ATOM      1  C   UNL     1       3.127  -2.999   0.837  0.00  0.00    +0.147 C 
ATOM      2  C   UNL     1       3.375  -3.422  -0.615  0.00  0.00    +0.156 C 
ATOM      3  N   UNL     1       4.724  -3.014  -1.011  0.00  0.00    -0.289 N 
ATOM      4  C   UNL     1       5.716  -2.920  -0.112  0.00  0.00    +0.302 C 
ATOM      5  O   UNL     1       6.820  -2.586  -0.495  0.00  0.00    -0.253 OA
ATOM      6  N   UNL     1       5.537  -3.178   1.192  0.00  0.00    -0.264 N 
ATOM      7  C   UNL     1       4.231  -3.595   1.717  0.00  0.00    +0.243 C 
ATOM      8  H   UNL     1       4.904  -2.809  -1.941  0.00  0.00    +0.151 HD
ATOM      9  H   UNL     1       6.286  -3.086   1.801  0.00  0.00    +0.153 HD
ENDROOT
BRANCH   2  10
ATOM     10  C   UNL     1       2.363  -2.757  -1.512  0.00  0.00    +0.127 A 
ATOM     11  C   UNL     1       2.474  -1.523  -2.043  0.00  0.00    +0.047 A 
ATOM     12  C   UNL     1       1.315  -1.299  -2.812  0.00  0.00    +0.050 A 
ATOM     13  C   UNL     1       0.552  -2.420  -2.708  0.00  0.00    +0.137 A 
ATOM     14  O   UNL     1       1.203  -3.298  -1.921  0.00  0.00    -0.458 OA
BRANCH  13  15
ATOM     15  C   UNL     1      -0.761  -2.639  -3.350  0.00  0.00    +0.047 A 
ATOM     16  C   UNL     1      -1.808  -1.742  -3.129  0.00  0.00    +0.014 A 
ATOM     17  C   UNL     1      -3.030  -1.952  -3.732  0.00  0.00    +0.001 A 
ATOM     18  C   UNL     1      -3.221  -3.049  -4.553  0.00  0.00    +0.002 A 
ATOM     19  C   UNL     1      -2.188  -3.942  -4.776  0.00  0.00    +0.033 A 
ATOM     20  C   UNL     1      -0.958  -3.740  -4.184  0.00  0.00    +0.137 A 
BRANCH  20  21
ATOM     21  N   UNL     1       0.149  -4.693  -4.429  0.00  0.00    +0.057 N 
ATOM     22  O   UNL     1      -0.055  -5.708  -5.053  0.00  0.00    -0.126 OA
ATOM     23  O   UNL     1       1.256  -4.455  -4.005  0.00  0.00    -0.126 OA
ENDBRANCH  20  21
ENDBRANCH  13  15
ENDBRANCH   2  10
BRANCH   7  24
ATOM     24  C   UNL     1       4.136  -5.122   1.694  0.00  0.00    +0.436 C 
ATOM     25  F   UNL     1       4.290  -5.579   0.381  0.00  0.00    -0.166 F 
ATOM     26  F   UNL     1       5.144  -5.664   2.498  0.00  0.00    -0.166 F 
ATOM     27  F   UNL     1       2.886  -5.518   2.182  0.00  0.00    -0.166 F 
ENDBRANCH   7  24
BRANCH   1  28
ATOM     28  C   UNL     1       3.155  -1.496   0.938  0.00  0.00    +0.173 C 
ATOM     29  O   UNL     1       4.215  -0.914   1.035  0.00  0.00    -0.292 OA
BRANCH  28  33
ATOM     30  C   UNL     1      -0.473   0.701   0.886  0.00  0.00    +0.000 A 
ATOM     31  C   UNL     1       0.737   1.371   0.877  0.00  0.00    +0.001 A 
ATOM     32  C   UNL     1       1.921   0.664   0.894  0.00  0.00    +0.011 A 
ATOM     33  C   UNL     1       1.896  -0.734   0.921  0.00  0.00    +0.018 A 
ATOM     34  C   UNL     1       0.669  -1.404   0.929  0.00  0.00    +0.011 A 
ATOM     35  C   UNL     1      -0.506  -0.683   0.912  0.00  0.00    +0.001 A 
ENDBRANCH  28  33
ENDBRANCH   1  28
BRANCH   7  36
ATOM     36  O   UNL     1       4.078  -3.126   3.058  0.00  0.00    -0.364 OA
ATOM     37  H   UNL     1       4.745  -3.464   3.672  0.00  0.00    +0.212 HD
ENDBRANCH   7  36
TORSDOF 7
