REMARK  Name = ZINC50832262
REMARK  7 active torsions:
REMARK  status: ('A' for Active; 'I' for Inactive)
REMARK    1  A    between atoms: C_1  and  C_2
REMARK    2  A    between atoms: C_2  and  C_3
REMARK    3  A    between atoms: C_2  and  C_4
REMARK    4  A    between atoms: C_2  and  O_5
REMARK    5  A    between atoms: O_5  and  C_6
REMARK    6  A    between atoms: C_6  and  C_7
REMARK    7  A    between atoms: C_11  and  C_16
REMARK                            x       y       z     vdW  Elec       q    Type
REMARK                         _______ _______ _______ _____ _____    ______ ____
ROOT
ATOM      1  C   UNL     1       3.012  -0.356  -2.445  0.00  0.00    +0.158 A 
ATOM      2  N   UNL     1       3.594  -1.542  -2.412  0.00  0.00    -0.215 NA
ATOM      3  C   UNL     1       3.697  -2.306  -3.487  0.00  0.00    +0.129 A 
ATOM      4  C   UNL     1       3.168  -1.842  -4.721  0.00  0.00    +0.055 A 
ATOM      5  C   UNL     1       3.156  -2.487  -6.031  0.00  0.00    +0.008 A 
ATOM      6  C   UNL     1       2.584  -1.835  -7.072  0.00  0.00    +0.057 A 
ATOM      7  S   UNL     1       2.023  -0.306  -6.348  0.00  0.00    -0.076 S 
ATOM      8  C   UNL     1       2.563  -0.569  -4.680  0.00  0.00    +0.114 A 
ATOM      9  N   UNL     1       2.498   0.126  -3.560  0.00  0.00    -0.222 NA
ATOM     10  N   UNL     1       4.314  -3.542  -3.411  0.00  0.00    -0.343 N 
ATOM     11  H   UNL     1       4.372  -4.003  -2.560  0.00  0.00    +0.144 HD
ATOM     12  H   UNL     1       4.689  -3.947  -4.209  0.00  0.00    +0.144 HD
ENDROOT
BRANCH   5  13
ATOM     13  C   UNL     1       3.757  -3.824  -6.217  0.00  0.00    +0.021 A 
ATOM     14  C   UNL     1       4.748  -4.212  -7.080  0.00  0.00    +0.016 A 
ATOM     15  C   UNL     1       5.150  -5.531  -7.075  0.00  0.00    +0.008 A 
ATOM     16  C   UNL     1       4.556  -6.401  -6.220  0.00  0.00    +0.046 A 
ATOM     17  S   UNL     1       3.386  -5.352  -5.372  0.00  0.00    -0.097 S 
ENDBRANCH   5  13
BRANCH   1  18
ATOM     18  C   UNL     1       2.929   0.460  -1.182  0.00  0.00    +0.236 C 
BRANCH  18  19
ATOM     19  O   UNL     1       1.721   0.141  -0.487  0.00  0.00    -0.366 OA
BRANCH  19  21
ATOM     20  C   UNL     1       1.510   2.365   0.435  0.00  0.00    +0.041 C 
ATOM     21  C   UNL     1       1.544   0.865   0.732  0.00  0.00    +0.062 C 
ATOM     22  C   UNL     1       2.704   0.559   1.681  0.00  0.00    +0.041 C 
ATOM     23  C   UNL     1       0.226   0.445   1.387  0.00  0.00    +0.041 C 
ENDBRANCH  19  21
ENDBRANCH  18  19
ENDBRANCH   1  18
TORSDOF 4
