REMARK  Name = ZINC39990789
REMARK  8 active torsions:
REMARK  status: ('A' for Active; 'I' for Inactive)
REMARK    1  A    between atoms: C_1  and  C_2
REMARK    2  A    between atoms: C_2  and  N_3
REMARK    3  A    between atoms: N_3  and  C_4
REMARK    4  A    between atoms: C_8  and  S_10
REMARK    5  A    between atoms: S_10  and  C_11
REMARK    6  A    between atoms: C_11  and  C_13
REMARK    7  A    between atoms: C_11  and  C_19
REMARK    8  A    between atoms: C_19  and  C_21
REMARK                            x       y       z     vdW  Elec       q    Type
REMARK                         _______ _______ _______ _____ _____    ______ ____
ROOT
ATOM      1  C   UNL     1       0.128  -4.864  -5.727  0.00  0.00    +0.154 C 
ENDROOT
BRANCH   1   2
ATOM      2  C   UNL     1       1.111  -5.794  -5.065  0.00  0.00    -0.027 A 
ATOM      3  C   UNL     1       0.676  -6.991  -4.528  0.00  0.00    +0.005 A 
ATOM      4  C   UNL     1       1.577  -7.845  -3.921  0.00  0.00    +0.000 A 
ATOM      5  C   UNL     1       2.915  -7.502  -3.851  0.00  0.00    +0.000 A 
ATOM      6  C   UNL     1       3.350  -6.306  -4.390  0.00  0.00    +0.000 A 
ATOM      7  C   UNL     1       2.449  -5.454  -5.001  0.00  0.00    +0.005 A 
ENDBRANCH   1   2
BRANCH   1   8
ATOM      8  C   UNL     1      -0.532  -5.569  -6.884  0.00  0.00    +0.179 C 
ATOM      9  O   UNL     1      -1.602  -6.121  -6.727  0.00  0.00    -0.291 OA
BRANCH   8  10
ATOM     10  C   UNL     1       0.094  -5.589  -8.148  0.00  0.00    +0.025 C 
ATOM     11  C   UNL     1      -0.376  -6.183  -9.305  0.00  0.00    +0.006 A 
ATOM     12  C   UNL     1      -1.549  -6.917  -9.602  0.00  0.00    +0.010 A 
ATOM     13  C   UNL     1      -1.757  -7.393 -10.850  0.00  0.00    +0.001 A 
ATOM     14  C   UNL     1      -0.843  -7.190 -11.897  0.00  0.00    +0.002 A 
ATOM     15  C   UNL     1       0.306  -6.503 -11.719  0.00  0.00    +0.026 A 
ATOM     16  C   UNL     1       0.611  -5.950 -10.388  0.00  0.00    +0.043 A 
ATOM     17  N   UNL     1       1.623  -5.263  -9.944  0.00  0.00    -0.380 N 
ATOM     18  C   UNL     1       1.418  -4.959  -8.524  0.00  0.00    +0.152 C 
ATOM     19  H   UNL     1       2.391  -4.990 -10.470  0.00  0.00    +0.160 HD
ENDBRANCH   8  10
ENDBRANCH   1   8
BRANCH   1  20
ATOM     20  S   UNL     1      -1.135  -4.363  -4.525  0.00  0.00    -0.081 S 
BRANCH  20  24
ATOM     21  C   UNL     1       0.729  -1.946  -1.249  0.00  0.00    +0.222 C 
ATOM     22  N   UNL     1       1.636  -2.430  -2.314  0.00  0.00    -0.241 N 
ATOM     23  N   UNL     1       1.033  -3.170  -3.306  0.00  0.00    -0.171 NA
ATOM     24  C   UNL     1      -0.237  -3.435  -3.325  0.00  0.00    +0.152 C 
ATOM     25  S   UNL     1      -0.865  -2.641  -1.852  0.00  0.00    -0.058 S 
ATOM     26  H   UNL     1       2.587  -2.239  -2.313  0.00  0.00    +0.171 HD
BRANCH  21  27
ATOM     27  N   UNL     1       0.690  -0.478  -1.207  0.00  0.00    -0.289 NA
ATOM     28  H   UNL     1       0.258  -0.104  -2.038  0.00  0.00    +0.124 HD
BRANCH  27  30
ATOM     29  C   UNL     1      -0.019   1.526   0.010  0.00  0.00    +0.020 C 
ATOM     30  C   UNL     1       0.002  -0.004   0.002  0.00  0.00    +0.080 C 
ENDBRANCH  27  30
ENDBRANCH  21  27
ENDBRANCH  20  24
ENDBRANCH   1  20
TORSDOF 7
