REMARK  Name = ZINC40285877
REMARK  4 active torsions:
REMARK  status: ('A' for Active; 'I' for Inactive)
REMARK    1  A    between atoms: C_3  and  C_9
REMARK    2  A    between atoms: C_6  and  C_7
REMARK    3  A    between atoms: C_12  and  O_27
REMARK    4  A    between atoms: N_18  and  C_19
REMARK                            x       y       z     vdW  Elec       q    Type
REMARK                         _______ _______ _______ _____ _____    ______ ____
ROOT
ATOM      1  C   UNL     1       3.670   2.194  -0.021  0.00  0.00    +0.080 C 
ATOM      2  C   UNL     1       4.507   1.821   1.208  0.00  0.00    +0.110 C 
ATOM      3  C   UNL     1       5.188   0.495   1.028  0.00  0.00    +0.190 C 
ATOM      4  N   UNL     1       5.601   0.055  -0.124  0.00  0.00    -0.197 NA
ATOM      5  C   UNL     1       5.380   0.811  -1.238  0.00  0.00    +0.165 A 
ATOM      6  C   UNL     1       4.471   1.840  -1.250  0.00  0.00    +0.094 A 
ATOM      7  N   UNL     1       4.471   2.380  -2.461  0.00  0.00    -0.237 NA
ATOM      8  C   UNL     1       5.335   1.752  -3.219  0.00  0.00    +0.206 A 
ATOM      9  N   UNL     1       5.930   0.760  -2.485  0.00  0.00    -0.283 N 
ENDROOT
BRANCH   9  10
ATOM     10  C   UNL     1       6.913  -0.135  -2.930  0.00  0.00    +0.055 A 
ATOM     11  C   UNL     1       8.069  -0.325  -2.184  0.00  0.00    +0.064 A 
ATOM     12  C   UNL     1       9.038  -1.209  -2.625  0.00  0.00    +0.128 A 
ATOM     13  C   UNL     1       8.855  -1.904  -3.808  0.00  0.00    +0.076 A 
ATOM     14  C   UNL     1       7.704  -1.716  -4.553  0.00  0.00    +0.128 A 
ATOM     15  C   UNL     1       6.730  -0.837  -4.113  0.00  0.00    +0.064 A 
ATOM     16  F   UNL     1       7.528  -2.395  -5.708  0.00  0.00    -0.205 F 
ATOM     17  F   UNL     1      10.163  -1.393  -1.900  0.00  0.00    -0.205 F 
ENDBRANCH   9  10
BRANCH   1  20
ATOM     18  C   UNL     1      -0.017   1.392   0.010  0.00  0.00    +0.019 A 
ATOM     19  C   UNL     1       1.170   2.095   0.002  0.00  0.00    +0.005 A 
ATOM     20  C   UNL     1       2.378   1.419  -0.013  0.00  0.00    -0.038 A 
ATOM     21  C   UNL     1       2.404   0.036  -0.021  0.00  0.00    +0.005 A 
ATOM     22  C   UNL     1       1.224  -0.679  -0.014  0.00  0.00    +0.019 A 
ATOM     23  C   UNL     1       0.002  -0.004   0.002  0.00  0.00    +0.052 A 
BRANCH  23  24
ATOM     24  C   UNL     1      -1.226  -0.740   0.010  0.00  0.00    +0.099 C 
ATOM     25  N   UNL     1      -2.201  -1.324   0.017  0.00  0.00    -0.191 NA
ENDBRANCH  23  24
ENDBRANCH   1  20
BRANCH   3  26
ATOM     26  O   UNL     1       5.381  -0.279   2.117  0.00  0.00    -0.495 OA
ATOM     27  H   UNL     1       5.825  -1.117   1.929  0.00  0.00    +0.293 HD
ENDBRANCH   3  26
TORSDOF 4
