REMARK  Name = ZINC20445852
REMARK  8 active torsions:
REMARK  status: ('A' for Active; 'I' for Inactive)
REMARK    1  A    between atoms: C_1  and  C_2
REMARK    2  A    between atoms: C_2  and  C_3
REMARK    3  A    between atoms: C_3  and  C_4
REMARK    4  A    between atoms: C_10  and  C_26
REMARK    5  A    between atoms: C_12  and  C_15
REMARK    6  A    between atoms: N_17  and  C_18
REMARK    7  A    between atoms: C_20  and  C_25
REMARK    8  A    between atoms: C_22  and  C_24
REMARK                            x       y       z     vdW  Elec       q    Type
REMARK                         _______ _______ _______ _____ _____    ______ ____
ROOT
ATOM      1  C   UNL     1      -1.275   1.870   0.016  0.00  0.00    +0.151 A 
ATOM      2  N   UNL     1      -0.882   3.102   0.190  0.00  0.00    -0.132 NA
ATOM      3  N   UNL     1       0.403   3.150   0.273  0.00  0.00    -0.121 NA
ATOM      4  C   UNL     1       0.890   1.946   0.158  0.00  0.00    +0.209 A 
ATOM      5  N   UNL     1      -0.157   1.087  -0.017  0.00  0.00    -0.225 N 
ATOM      6  N   UNL     1      -0.092  -0.258  -0.192  0.00  0.00    -0.272 N 
ATOM      7  C   UNL     1       1.146  -0.858   0.308  0.00  0.00    +0.140 C 
ATOM      8  C   UNL     1       2.362  -0.251  -0.405  0.00  0.00    +0.166 C 
ATOM      9  S   UNL     1       2.582   1.444   0.215  0.00  0.00    -0.069 S 
ATOM     10  H   UNL     1      -0.861  -0.892  -0.657  0.00  0.00    +0.167 HD
ENDROOT
BRANCH   7  11
ATOM     11  C   UNL     1       1.115  -2.344   0.061  0.00  0.00    -0.024 A 
ATOM     12  C   UNL     1       0.597  -2.838  -1.121  0.00  0.00    +0.007 A 
ATOM     13  C   UNL     1       0.573  -4.200  -1.351  0.00  0.00    +0.020 A 
ATOM     14  C   UNL     1       1.058  -5.071  -0.391  0.00  0.00    +0.041 A 
ATOM     15  C   UNL     1       1.572  -4.577   0.794  0.00  0.00    +0.020 A 
ATOM     16  C   UNL     1       1.600  -3.214   1.020  0.00  0.00    +0.007 A 
ATOM     17 CL   UNL     1       1.023  -6.784  -0.675  0.00  0.00    -0.084 Cl
ENDBRANCH   7  11
BRANCH   8  18
ATOM     18  C   UNL     1       3.591  -1.069  -0.104  0.00  0.00    +0.233 C 
ATOM     19  O   UNL     1       3.683  -1.659   0.952  0.00  0.00    -0.274 OA
ATOM     20  N   UNL     1       4.588  -1.145  -1.008  0.00  0.00    -0.285 N 
ATOM     21  H   UNL     1       4.468  -0.683  -1.999  0.00  0.00    +0.155 HD
BRANCH  20  22
ATOM     22  C   UNL     1       5.774  -1.813  -0.686  0.00  0.00    +0.034 A 
ATOM     23  C   UNL     1       6.474  -2.502  -1.668  0.00  0.00    +0.026 A 
ATOM     24  C   UNL     1       7.647  -3.156  -1.348  0.00  0.00    -0.048 A 
ATOM     25  C   UNL     1       8.121  -3.134  -0.049  0.00  0.00    +0.006 A 
ATOM     26  C   UNL     1       7.424  -2.453   0.932  0.00  0.00    -0.048 A 
ATOM     27  C   UNL     1       6.252  -1.793   0.618  0.00  0.00    +0.026 A 
ATOM     28  C   UNL     1       7.943  -2.432   2.347  0.00  0.00    +0.044 C 
ATOM     29  C   UNL     1       8.410  -3.899  -2.415  0.00  0.00    +0.044 C 
ENDBRANCH  20  22
ENDBRANCH   8  18
BRANCH   1  30
ATOM     30  C   UNL     1      -2.700   1.398  -0.123  0.00  0.00    +0.078 C 
BRANCH  30  32
ATOM     31  C   UNL     1      -4.710   0.584   1.117  0.00  0.00    +0.004 C 
ATOM     32  C   UNL     1      -3.264   1.062   1.259  0.00  0.00    +0.004 C 
ENDBRANCH  30  32
ENDBRANCH   1  30
TORSDOF 5
