REMARK  Name = ZINC59579910
REMARK  13 active torsions:
REMARK  status: ('A' for Active; 'I' for Inactive)
REMARK    1  A    between atoms: C_1  and  C_2
REMARK    2  A    between atoms: C_2  and  C_3
REMARK    3  A    between atoms: C_3  and  C_4
REMARK    4  A    between atoms: C_3  and  C_5
REMARK    5  A    between atoms: C_3  and  C_6
REMARK    6  A    between atoms: N_14  and  C_18
REMARK    7  A    between atoms: C_18  and  N_19
REMARK    8  A    between atoms: C_22  and  N_25
REMARK    9  A    between atoms: C_26  and  O_28
REMARK   10  A    between atoms: O_28  and  C_29
REMARK   11  A    between atoms: C_29  and  C_30
REMARK   12  A    between atoms: C_29  and  C_31
REMARK   13  A    between atoms: C_29  and  C_32
REMARK                            x       y       z     vdW  Elec       q    Type
REMARK                         _______ _______ _______ _____ _____    ______ ____
ROOT
ATOM      1  C   UNL     1       0.763  -2.041   1.233  0.00  0.00    -0.005 C 
ATOM      2  C   UNL     1      -0.673  -2.570   1.243  0.00  0.00    +0.006 C 
ATOM      3  C   UNL     1      -0.651  -4.101   1.222  0.00  0.00    +0.035 C 
ATOM      4  C   UNL     1       0.108  -4.618   2.440  0.00  0.00    +0.112 C 
ATOM      5  C   UNL     1       1.534  -4.078   2.457  0.00  0.00    +0.035 C 
ATOM      6  C   UNL     1       1.503  -2.547   2.473  0.00  0.00    +0.006 C 
ATOM      7  C   UNL     1      -0.615  -4.240   3.712  0.00  0.00    +0.245 C 
ATOM      8  O   UNL     1      -0.855  -3.123   4.116  0.00  0.00    -0.273 OA
ATOM      9  N   UNL     1      -0.937  -5.409   4.304  0.00  0.00    -0.241 N 
ATOM     10  C   UNL     1      -0.519  -6.458   3.584  0.00  0.00    +0.308 C 
ATOM     11  O   UNL     1      -0.693  -7.615   3.912  0.00  0.00    -0.252 OA
ATOM     12  N   UNL     1       0.114  -6.086   2.455  0.00  0.00    -0.285 N 
ATOM     13  H   UNL     1       0.499  -6.673   1.785  0.00  0.00    +0.151 HD
ENDROOT
BRANCH   1  14
ATOM     14  C   UNL     1       0.742  -0.511   1.242  0.00  0.00    -0.032 C 
ATOM     15  C   UNL     1       2.178   0.019   1.231  0.00  0.00    +0.011 C 
ATOM     16  C   UNL     1       0.026  -0.018   2.500  0.00  0.00    +0.011 C 
BRANCH  14  18
ATOM     17  C   UNL     1      -0.019   1.526   0.010  0.00  0.00    +0.004 C 
ATOM     18  C   UNL     1       0.002  -0.004   0.002  0.00  0.00    +0.003 C 
ENDBRANCH  14  18
ENDBRANCH   1  14
BRANCH   9  19
ATOM     19  C   UNL     1      -1.655  -5.518   5.577  0.00  0.00    +0.043 C 
BRANCH  19  20
ATOM     20  N   UNL     1      -3.100  -5.566   5.321  0.00  0.00    +0.391 N 
ATOM     21  C   UNL     1      -3.424  -6.790   4.578  0.00  0.00    -0.075 C 
ATOM     22  C   UNL     1      -4.916  -6.806   4.239  0.00  0.00    +0.004 C 
ATOM     23  C   UNL     1      -5.729  -6.764   5.536  0.00  0.00    +0.073 C 
ATOM     24  C   UNL     1      -5.329  -5.522   6.338  0.00  0.00    +0.004 C 
ATOM     25  C   UNL     1      -3.822  -5.554   6.599  0.00  0.00    -0.075 C 
ATOM     26  H   UNL     1      -3.372  -4.762   4.775  0.00  0.00    -0.079 HD
BRANCH  23  27
ATOM     27  N   UNL     1      -7.157  -6.702   5.217  0.00  0.00    -0.278 N 
ATOM     28  C   UNL     1      -8.066  -7.152   6.105  0.00  0.00    +0.401 C 
ATOM     29  O   UNL     1      -7.701  -7.609   7.170  0.00  0.00    -0.226 OA
ATOM     30  H   UNL     1      -7.449  -6.338   4.367  0.00  0.00    +0.152 HD
BRANCH  28  31
ATOM     31  O   UNL     1      -9.379  -7.095   5.812  0.00  0.00    -0.445 OA
BRANCH  31  32
ATOM     32  C   UNL     1     -10.286  -7.590   6.799  0.00  0.00    +0.107 C 
ATOM     33  C   UNL     1     -10.119  -6.789   8.092  0.00  0.00    +0.055 C 
ATOM     34  C   UNL     1     -11.722  -7.444   6.291  0.00  0.00    +0.055 C 
ATOM     35  C   UNL     1      -9.989  -9.066   7.071  0.00  0.00    +0.055 C 
ENDBRANCH  31  32
ENDBRANCH  28  31
ENDBRANCH  23  27
ENDBRANCH  19  20
ENDBRANCH   9  19
TORSDOF 7
