REMARK  Name = ZINC13432978
REMARK  14 active torsions:
REMARK  status: ('A' for Active; 'I' for Inactive)
REMARK    1  A    between atoms: C_1  and  C_2
REMARK    2  A    between atoms: C_3  and  C_31
REMARK    3  A    between atoms: C_4  and  O_30
REMARK    4  A    between atoms: C_5  and  C_10
REMARK    5  A    between atoms: C_6  and  O_9
REMARK    6  A    between atoms: C_10  and  C_11
REMARK    7  A    between atoms: C_12  and  C_13
REMARK    8  A    between atoms: C_12  and  C_14
REMARK    9  A    between atoms: C_14  and  C_16
REMARK   10  A    between atoms: C_14  and  O_29
REMARK   11  A    between atoms: C_16  and  C_17
REMARK   12  A    between atoms: C_17  and  C_28
REMARK   13  A    between atoms: C_18  and  C_27
REMARK   14  A    between atoms: C_24  and  C_26
REMARK                            x       y       z     vdW  Elec       q    Type
REMARK                         _______ _______ _______ _____ _____    ______ ____
ROOT
ATOM      1  C   UNL     1      -1.238   0.145  -2.857  0.00  0.00    -0.021 C 
ATOM      2  C   UNL     1      -0.474   1.015  -2.243  0.00  0.00    -0.048 C 
ATOM      3  C   UNL     1       0.637   1.703  -2.993  0.00  0.00    +0.041 C 
ENDROOT
BRANCH   1   4
ATOM      4  C   UNL     1      -0.920  -0.274  -4.269  0.00  0.00    +0.069 C 
BRANCH   4   9
ATOM      5  C   UNL     1      -0.687  -6.060  -4.565  0.00  0.00    +0.046 C 
ATOM      6  C   UNL     1      -0.743  -4.556  -4.487  0.00  0.00    -0.015 A 
ATOM      7  C   UNL     1       0.419  -3.826  -4.197  0.00  0.00    +0.060 A 
ATOM      8  C   UNL     1       0.360  -2.423  -4.131  0.00  0.00    +0.134 A 
ATOM      9  C   UNL     1      -0.846  -1.777  -4.342  0.00  0.00    +0.041 A 
ATOM     10  C   UNL     1      -1.985  -2.515  -4.627  0.00  0.00    +0.142 A 
ATOM     11  C   UNL     1      -1.924  -3.906  -4.697  0.00  0.00    +0.086 A 
ATOM     12 CL   UNL     1      -3.358  -4.816  -5.055  0.00  0.00    -0.079 Cl
BRANCH  10  13
ATOM     13  O   UNL     1      -3.166  -1.880  -4.839  0.00  0.00    -0.505 OA
ATOM     14  H   UNL     1      -3.325  -1.644  -5.763  0.00  0.00    +0.292 HD
ENDBRANCH  10  13
BRANCH   8  15
ATOM     15  O   UNL     1       1.479  -1.706  -3.857  0.00  0.00    -0.506 OA
ATOM     16  H   UNL     1       1.624  -1.549  -2.914  0.00  0.00    +0.292 HD
ENDBRANCH   8  15
BRANCH   7  17
ATOM     17  C   UNL     1       1.688  -4.521  -3.970  0.00  0.00    +0.262 C 
ATOM     18  O   UNL     1       2.691  -3.887  -3.720  0.00  0.00    -0.296 OA
ENDBRANCH   7  17
ENDBRANCH   4   9
ENDBRANCH   1   4
BRANCH   2  19
ATOM     19  C   UNL     1      -0.706   1.327  -0.787  0.00  0.00    +0.141 C 
BRANCH  19  20
ATOM     20  O   UNL     1      -0.884   2.735  -0.624  0.00  0.00    -0.387 OA
ATOM     21  H   UNL     1      -0.154   3.266  -0.971  0.00  0.00    +0.210 HD
ENDBRANCH  19  20
BRANCH  19  22
ATOM     22  C   UNL     1       0.502   0.867   0.032  0.00  0.00    +0.043 C 
BRANCH  22  23
ATOM     23  C   UNL     1       0.211   1.060   1.522  0.00  0.00    -0.018 C 
ATOM     24  C   UNL     1       0.090   2.554   1.828  0.00  0.00    -0.007 C 
ATOM     25  C   UNL     1      -0.112   2.760   3.330  0.00  0.00    +0.011 C 
ATOM     26  C   UNL     1      -1.438   2.122   3.758  0.00  0.00    +0.075 C 
ATOM     27  C   UNL     1      -1.437   0.674   3.322  0.00  0.00    +0.137 C 
ATOM     28  O   UNL     1      -1.697  -0.208   4.105  0.00  0.00    -0.297 OA
ATOM     29  C   UNL     1      -1.102   0.358   1.881  0.00  0.00    +0.058 C 
ATOM     30  C   UNL     1      -0.942  -1.153   1.706  0.00  0.00    +0.016 C 
ATOM     31  C   UNL     1       1.367   3.269   1.383  0.00  0.00    +0.008 C 
ATOM     32  C   UNL     1       1.352   0.461   2.346  0.00  0.00    +0.012 C 
ENDBRANCH  22  23
ENDBRANCH  19  22
ENDBRANCH   2  19
TORSDOF 9
