REMARK  Name = ZINC08836013
REMARK  9 active torsions:
REMARK  status: ('A' for Active; 'I' for Inactive)
REMARK    1  A    between atoms: C_4  and  C_7
REMARK    2  A    between atoms: C_7  and  C_8
REMARK    3  A    between atoms: C_8  and  C_9
REMARK    4  A    between atoms: C_9  and  N_10
REMARK    5  A    between atoms: C_11  and  C_13
REMARK    6  A    between atoms: N_24  and  C_27
REMARK    7  A    between atoms: C_25  and  N_26
REMARK    8  A    between atoms: C_27  and  C_28
REMARK    9  A    between atoms: C_28  and  C_29
REMARK                            x       y       z     vdW  Elec       q    Type
REMARK                         _______ _______ _______ _____ _____    ______ ____
ROOT
ATOM      1  C   UNL     1       1.002  -1.169  -3.332  0.00  0.00    +0.103 A 
ATOM      2  C   UNL     1       2.310  -1.174  -2.657  0.00  0.00    +0.122 A 
ATOM      3  C   UNL     1       2.043  -0.719  -1.290  0.00  0.00    +0.162 A 
ATOM      4  N   UNL     1       3.039  -0.620  -0.435  0.00  0.00    -0.226 NA
ATOM      5  C   UNL     1       4.282  -0.935  -0.820  0.00  0.00    +0.092 A 
ATOM      6  C   UNL     1       5.353  -0.832   0.087  0.00  0.00    +0.030 A 
ATOM      7  C   UNL     1       6.613  -1.154  -0.312  0.00  0.00    +0.002 A 
ATOM      8  C   UNL     1       6.864  -1.587  -1.613  0.00  0.00    +0.002 A 
ATOM      9  C   UNL     1       5.855  -1.699  -2.519  0.00  0.00    +0.030 A 
ATOM     10  C   UNL     1       4.538  -1.375  -2.143  0.00  0.00    +0.090 A 
ATOM     11  N   UNL     1       3.538  -1.482  -3.026  0.00  0.00    -0.241 NA
ATOM     12  N   UNL     1       0.688  -0.476  -1.203  0.00  0.00    -0.312 N 
ATOM     13  C   UNL     1       0.074  -0.742  -2.388  0.00  0.00    +0.112 A 
ENDROOT
BRANCH   1  15
ATOM     14  N   UNL     1       0.783  -0.612  -5.690  0.00  0.00    -0.311 N 
ATOM     15  C   UNL     1       0.731  -1.544  -4.718  0.00  0.00    +0.250 C 
ATOM     16  O   UNL     1       0.459  -2.698  -4.995  0.00  0.00    -0.270 OA
ATOM     17  H   UNL     1       1.000   0.308  -5.470  0.00  0.00    +0.149 HD
BRANCH  14  18
ATOM     18  C   UNL     1       0.511  -0.987  -7.080  0.00  0.00    +0.105 C 
BRANCH  18  19
ATOM     19  C   UNL     1       0.635   0.247  -7.975  0.00  0.00    +0.023 C 
BRANCH  19  20
ATOM     20  C   UNL     1       0.351  -0.145  -9.427  0.00  0.00    +0.036 C 
BRANCH  20  24
ATOM     21  C   UNL     1       0.696   3.302 -11.927  0.00  0.00    +0.000 A 
ATOM     22  C   UNL     1       1.803   2.509 -11.686  0.00  0.00    +0.000 A 
ATOM     23  C   UNL     1       1.691   1.394 -10.877  0.00  0.00    +0.003 A 
ATOM     24  C   UNL     1       0.473   1.071 -10.309  0.00  0.00    -0.047 A 
ATOM     25  C   UNL     1      -0.635   1.861 -10.554  0.00  0.00    +0.003 A 
ATOM     26  C   UNL     1      -0.522   2.979 -11.359  0.00  0.00    +0.000 A 
ENDBRANCH  20  24
ENDBRANCH  19  20
ENDBRANCH  18  19
ENDBRANCH  14  18
ENDBRANCH   1  15
BRANCH  13  27
ATOM     27  N   UNL     1      -1.270  -0.603  -2.621  0.00  0.00    -0.344 N 
ATOM     28  H   UNL     1      -1.856  -0.296  -1.911  0.00  0.00    +0.144 HD
ATOM     29  H   UNL     1      -1.635  -0.813  -3.495  0.00  0.00    +0.144 HD
ENDBRANCH  13  27
BRANCH  12  30
ATOM     30  C   UNL     1       0.002  -0.004   0.002  0.00  0.00    +0.129 C 
BRANCH  30  31
ATOM     31  C   UNL     1      -0.019   1.526   0.010  0.00  0.00    +0.052 C 
BRANCH  31  32
ATOM     32  C   UNL     1      -0.724   2.012   1.250  0.00  0.00    -0.072 C 
ATOM     33  C   UNL     1      -0.001   2.312   2.281  0.00  0.00    -0.028 C 
ATOM     34  C   UNL     1      -0.560   2.799   3.587  0.00  0.00    +0.027 C 
ATOM     35  C   UNL     1      -1.998   3.286   3.396  0.00  0.00    +0.004 C 
ATOM     36  C   UNL     1      -2.779   2.207   2.635  0.00  0.00    +0.005 C 
ATOM     37  C   UNL     1      -2.220   2.123   1.211  0.00  0.00    +0.030 C 
ENDBRANCH  31  32
ENDBRANCH  30  31
ENDBRANCH  12  30
TORSDOF 9
