REMARK  Name = ZINC28199596
REMARK  5 active torsions:
REMARK  status: ('A' for Active; 'I' for Inactive)
REMARK    1  A    between atoms: C_1  and  C_2
REMARK    2  A    between atoms: C_5  and  C_27
REMARK    3  A    between atoms: C_10  and  C_12
REMARK    4  A    between atoms: C_12  and  N_13
REMARK    5  A    between atoms: C_21  and  C_22
REMARK                            x       y       z     vdW  Elec       q    Type
REMARK                         _______ _______ _______ _____ _____    ______ ____
ROOT
ATOM      1  N   UNL     1      -2.244   4.078   0.046  0.00  0.00    -0.313 N 
ATOM      2  C   UNL     1      -1.236   3.132   0.031  0.00  0.00    +0.070 A 
ATOM      3  C   UNL     1      -1.219   1.744   0.017  0.00  0.00    +0.028 A 
ATOM      4  C   UNL     1      -0.013   1.076   0.008  0.00  0.00    +0.002 A 
ATOM      5  C   UNL     1       1.182   1.781   0.000  0.00  0.00    +0.002 A 
ATOM      6  C   UNL     1       1.185   3.147   0.008  0.00  0.00    +0.030 A 
ATOM      7  C   UNL     1      -0.026   3.847   0.023  0.00  0.00    +0.090 A 
ATOM      8  N   UNL     1      -0.339   5.166   0.034  0.00  0.00    -0.226 NA
ATOM      9  C   UNL     1      -1.643   5.309   0.047  0.00  0.00    +0.161 A 
ENDROOT
BRANCH   9  10
ATOM     10  C   UNL     1      -2.356   6.602   0.062  0.00  0.00    +0.113 A 
ATOM     11  C   UNL     1      -1.669   7.791   0.067  0.00  0.00    +0.078 A 
ATOM     12  S   UNL     1      -3.025   8.954   0.084  0.00  0.00    -0.083 S 
ATOM     13  C   UNL     1      -4.320   7.797   0.090  0.00  0.00    +0.156 A 
ATOM     14  N   UNL     1      -3.680   6.655   0.076  0.00  0.00    -0.244 NA
ENDBRANCH   9  10
BRANCH   1  15
ATOM     15  C   UNL     1      -3.685   3.814   0.058  0.00  0.00    +0.219 C 
BRANCH  15  23
ATOM     16  C   UNL     1      -8.271   1.855  -0.219  0.00  0.00    +0.009 C 
ATOM     17  C   UNL     1      -7.173   1.983   0.838  0.00  0.00    +0.004 C 
ATOM     18  C   UNL     1      -7.800   1.956   2.233  0.00  0.00    +0.009 C 
ATOM     19  C   UNL     1      -6.699   2.051   3.292  0.00  0.00    +0.004 C 
ATOM     20  C   UNL     1      -5.949   3.377   3.125  0.00  0.00    +0.111 C 
ATOM     21  N   UNL     1      -5.466   3.475   1.741  0.00  0.00    -0.300 N 
ATOM     22  C   UNL     1      -6.429   3.313   0.643  0.00  0.00    +0.111 C 
ATOM     23  C   UNL     1      -4.165   3.716   1.483  0.00  0.00    +0.235 C 
ATOM     24  O   UNL     1      -3.381   3.853   2.398  0.00  0.00    -0.274 OA
ATOM     25  C   UNL     1      -5.723   0.886   3.119  0.00  0.00    +0.009 C 
ENDBRANCH  15  23
ENDBRANCH   1  15
TORSDOF 3
