REMARK  Name = ZINC24829840
REMARK  9 active torsions:
REMARK  status: ('A' for Active; 'I' for Inactive)
REMARK    1  A    between atoms: C_1  and  C_2
REMARK    2  A    between atoms: C_2  and  O_3
REMARK    3  A    between atoms: O_3  and  C_4
REMARK    4  A    between atoms: C_4  and  C_6
REMARK    5  A    between atoms: C_10  and  N_11
REMARK    6  A    between atoms: C_12  and  C_14
REMARK    7  A    between atoms: C_14  and  C_16
REMARK    8  A    between atoms: C_14  and  N_17
REMARK    9  A    between atoms: C_28  and  C_32
REMARK                            x       y       z     vdW  Elec       q    Type
REMARK                         _______ _______ _______ _____ _____    ______ ____
ROOT
ATOM      1  N   UNL     1       1.210  -3.673  -2.977  0.00  0.00    -0.281 N 
ATOM      2  C   UNL     1       1.260  -2.378  -2.606  0.00  0.00    +0.204 C 
ATOM      3  O   UNL     1       1.813  -1.565  -3.316  0.00  0.00    -0.277 OA
ATOM      4  H   UNL     1       0.708  -4.410  -2.333  0.00  0.00    +0.155 HD
ENDROOT
BRANCH   1   9
ATOM      5  C   UNL     1       1.847  -5.351  -4.714  0.00  0.00    +0.091 A 
ATOM      6  C   UNL     1       2.518  -5.505  -5.994  0.00  0.00    -0.021 A 
ATOM      7  C   UNL     1       3.031  -4.370  -6.514  0.00  0.00    -0.004 A 
ATOM      8  S   UNL     1       2.629  -3.109  -5.338  0.00  0.00    -0.077 S 
ATOM      9  C   UNL     1       1.790  -4.075  -4.169  0.00  0.00    +0.086 A 
ATOM     10  C   UNL     1       3.776  -4.224  -7.806  0.00  0.00    +0.046 C 
ATOM     11  C   UNL     1       4.201  -5.622  -8.279  0.00  0.00    -0.009 C 
ATOM     12  C   UNL     1       2.995  -6.561  -8.189  0.00  0.00    +0.008 C 
ATOM     13  C   UNL     1       2.658  -6.836  -6.723  0.00  0.00    +0.037 C 
ATOM     14  C   UNL     1       4.689  -5.546  -9.727  0.00  0.00    +0.008 C 
BRANCH   5  15
ATOM     15  C   UNL     1       1.249  -6.498  -4.027  0.00  0.00    +0.342 C 
ATOM     16  O   UNL     1       0.091  -6.800  -4.244  0.00  0.00    -0.245 OA
BRANCH  15  17
ATOM     17  O   UNL     1       1.982  -7.218  -3.154  0.00  0.00    -0.461 OA
BRANCH  17  19
ATOM     18  C   UNL     1       2.306  -9.032  -1.562  0.00  0.00    +0.048 C 
ATOM     19  C   UNL     1       1.324  -8.341  -2.510  0.00  0.00    +0.229 C 
ENDBRANCH  17  19
ENDBRANCH  15  17
ENDBRANCH   5  15
ENDBRANCH   1   9
BRANCH   2  20
ATOM     20  C   UNL     1       0.628  -1.940  -1.309  0.00  0.00    +0.016 C 
ATOM     21  C   UNL     1       1.636  -2.104  -0.170  0.00  0.00    -0.004 C 
BRANCH  20  22
ATOM     22  N   UNL     1       0.229  -0.530  -1.411  0.00  0.00    +0.387 N 
ATOM     23  C   UNL     1      -0.794  -0.346  -2.448  0.00  0.00    -0.073 C 
ATOM     24  C   UNL     1      -1.075   1.148  -2.629  0.00  0.00    +0.046 C 
ATOM     25  C   UNL     1      -1.550   1.737  -1.299  0.00  0.00    +0.167 C 
ATOM     26  C   UNL     1      -0.494   1.485  -0.220  0.00  0.00    +0.046 C 
ATOM     27  C   UNL     1      -0.231  -0.019  -0.113  0.00  0.00    -0.073 C 
ATOM     28  O   UNL     1      -2.785   1.113  -0.913  0.00  0.00    -0.346 OA
ATOM     29  C   UNL     1      -3.549   2.167  -0.279  0.00  0.00    +0.191 C 
ATOM     30  C   UNL     1      -3.151   3.400  -1.129  0.00  0.00    +0.191 C 
ATOM     31  O   UNL     1      -1.766   3.145  -1.444  0.00  0.00    -0.346 OA
ATOM     32  H   UNL     1       1.114   0.053  -1.706  0.00  0.00    -0.081 HD
ENDBRANCH  20  22
ENDBRANCH   2  20
TORSDOF 6
