REMARK  Name = ZINC37669243
REMARK  3 active torsions:
REMARK  status: ('A' for Active; 'I' for Inactive)
REMARK    1  A    between atoms: C_3  and  N_19
REMARK    2  A    between atoms: C_4  and  C_8
REMARK    3  A    between atoms: N_10  and  C_11
REMARK                            x       y       z     vdW  Elec       q    Type
REMARK                         _______ _______ _______ _____ _____    ______ ____
ROOT
ATOM      1  C   UNL     1       3.692  -0.638  -0.076  0.00  0.00    +0.251 C 
ATOM      2  O   UNL     1       4.736  -0.017  -0.032  0.00  0.00    -0.270 OA
ATOM      3  N   UNL     1       3.711  -1.982  -0.177  0.00  0.00    -0.279 N 
ATOM      4  H   UNL     1       2.882  -2.472  -0.296  0.00  0.00    +0.155 HD
ENDROOT
BRANCH   3   5
ATOM      5  C   UNL     1       4.928  -2.671  -0.112  0.00  0.00    +0.069 A 
ATOM      6  C   UNL     1       6.013  -2.106   0.545  0.00  0.00    +0.027 A 
ATOM      7  C   UNL     1       7.213  -2.788   0.609  0.00  0.00    +0.017 A 
ATOM      8  C   UNL     1       7.335  -4.034   0.019  0.00  0.00    +0.021 A 
ATOM      9  C   UNL     1       6.256  -4.601  -0.636  0.00  0.00    +0.055 A 
ATOM     10  C   UNL     1       5.051  -3.926  -0.699  0.00  0.00    +0.146 A 
ATOM     11  F   UNL     1       3.996  -4.482  -1.333  0.00  0.00    -0.204 F 
ATOM     12 BR   UNL     1       8.979  -4.964   0.110  0.00  0.00    -0.050 Br
ENDBRANCH   3   5
BRANCH   1  16
ATOM     13  C   UNL     1      -0.019   1.425   0.090  0.00  0.00    +0.040 A 
ATOM     14  C   UNL     1       0.834   1.624  -0.981  0.00  0.00    +0.036 A 
ATOM     15  C   UNL     1       2.040   0.957  -1.041  0.00  0.00    +0.138 A 
ATOM     16  C   UNL     1       2.401   0.079  -0.017  0.00  0.00    +0.070 A 
ATOM     17  C   UNL     1       1.538  -0.118   1.062  0.00  0.00    +0.053 A 
ATOM     18  C   UNL     1       0.332   0.556   1.110  0.00  0.00    +0.124 A 
ATOM     19  F   UNL     1      -0.505   0.366   2.153  0.00  0.00    -0.205 F 
BRANCH  15  20
ATOM     20  N   UNL     1       2.950   1.171  -2.188  0.00  0.00    +0.057 N 
ATOM     21  O   UNL     1       2.599   1.862  -3.117  0.00  0.00    -0.126 OA
ATOM     22  O   UNL     1       4.043   0.656  -2.198  0.00  0.00    -0.126 OA
ENDBRANCH  15  20
ENDBRANCH   1  16
TORSDOF 3
