REMARK  Name = ZINC36311938
REMARK  5 active torsions:
REMARK  status: ('A' for Active; 'I' for Inactive)
REMARK    1  A    between atoms: C_3  and  C_8
REMARK    2  A    between atoms: N_13  and  C_16
REMARK    3  A    between atoms: C_16  and  C_18
REMARK    4  A    between atoms: C_16  and  C_23
REMARK    5  A    between atoms: N_25  and  C_26
REMARK                            x       y       z     vdW  Elec       q    Type
REMARK                         _______ _______ _______ _____ _____    ______ ____
ROOT
ATOM      1  C   UNL     1       7.888  -0.838   1.554  0.00  0.00    +0.023 C 
ENDROOT
BRANCH   1   7
ATOM      2  C   UNL     1       6.093   1.631  -2.914  0.00  0.00    +0.247 C 
ATOM      3  O   UNL     1       5.870   2.823  -2.829  0.00  0.00    -0.270 OA
ATOM      4  N   UNL     1       6.068   0.860  -1.809  0.00  0.00    -0.301 N 
ATOM      5  C   UNL     1       5.713   1.427  -0.499  0.00  0.00    +0.089 C 
ATOM      6  C   UNL     1       6.788   1.020   0.514  0.00  0.00    -0.058 C 
ATOM      7  N   UNL     1       6.938  -0.440   0.507  0.00  0.00    +0.390 N 
ATOM      8  C   UNL     1       7.439  -0.885  -0.800  0.00  0.00    -0.058 C 
ATOM      9  C   UNL     1       6.391  -0.573  -1.880  0.00  0.00    +0.089 C 
ATOM     10  H   UNL     1       6.044  -0.870   0.687  0.00  0.00    -0.081 HD
BRANCH   2  13
ATOM     11  C   UNL     1       6.113  -0.761  -5.810  0.00  0.00    +0.002 A 
ATOM     12  C   UNL     1       5.831  -0.203  -4.580  0.00  0.00    +0.013 A 
ATOM     13  C   UNL     1       6.390   1.027  -4.231  0.00  0.00    +0.038 A 
ATOM     14  C   UNL     1       7.231   1.685  -5.130  0.00  0.00    +0.028 A 
ATOM     15  C   UNL     1       7.504   1.116  -6.357  0.00  0.00    +0.019 A 
ATOM     16  C   UNL     1       6.946  -0.105  -6.697  0.00  0.00    +0.015 A 
ATOM     17 BR   UNL     1       8.643   2.006  -7.577  0.00  0.00    -0.050 Br
ENDBRANCH   2  13
ENDBRANCH   1   7
BRANCH   1  18
ATOM     18  C   UNL     1       8.142  -2.345   1.467  0.00  0.00    -0.016 C 
ATOM     19  C   UNL     1       6.808  -3.112   1.578  0.00  0.00    +0.002 C 
ATOM     20  C   UNL     1       7.163  -4.374   2.402  0.00  0.00    +0.000 C 
ATOM     21  C   UNL     1       8.175  -3.831   3.440  0.00  0.00    +0.000 C 
ATOM     22  C   UNL     1       9.011  -2.802   2.651  0.00  0.00    +0.002 C 
ENDBRANCH   1  18
BRANCH   1  23
ATOM     23  C   UNL     1       9.187  -0.099   1.361  0.00  0.00    +0.204 C 
ATOM     24  O   UNL     1       9.418   0.459   0.309  0.00  0.00    -0.277 OA
ATOM     25  N   UNL     1      10.093  -0.057   2.358  0.00  0.00    -0.287 N 
ATOM     26  H   UNL     1       9.931  -0.542   3.182  0.00  0.00    +0.155 HD
BRANCH  25  27
ATOM     27  C   UNL     1      11.270   0.688   2.205  0.00  0.00    +0.037 A 
ATOM     28  C   UNL     1      11.252   1.874   1.483  0.00  0.00    +0.027 A 
ATOM     29  C   UNL     1      12.411   2.610   1.331  0.00  0.00    +0.051 A 
ATOM     30  C   UNL     1      13.595   2.166   1.898  0.00  0.00    +0.166 A 
ATOM     31  C   UNL     1      13.617   0.977   2.622  0.00  0.00    +0.168 A 
ATOM     32  C   UNL     1      12.453   0.243   2.779  0.00  0.00    +0.072 A 
ATOM     33  O   UNL     1      14.888   0.762   3.071  0.00  0.00    -0.453 OA
ATOM     34  C   UNL     1      15.728   1.617   2.273  0.00  0.00    +0.466 C 
ATOM     35  O   UNL     1      14.854   2.697   1.894  0.00  0.00    -0.453 OA
ENDBRANCH  25  27
ENDBRANCH   1  23
TORSDOF 5
