REMARK  Name = ZINC12999454
REMARK  7 active torsions:
REMARK  status: ('A' for Active; 'I' for Inactive)
REMARK    1  A    between atoms: C_1  and  C_2
REMARK    2  A    between atoms: C_2  and  C_3
REMARK    3  A    between atoms: C_3  and  C_5
REMARK    4  A    between atoms: C_3  and  S_17
REMARK    5  A    between atoms: N_7  and  N_8
REMARK    6  A    between atoms: C_14  and  C_16
REMARK    7  A    between atoms: S_17  and  C_18
REMARK                            x       y       z     vdW  Elec       q    Type
REMARK                         _______ _______ _______ _____ _____    ______ ____
ROOT
ATOM      1  C   UNL     1      -0.282   1.039   2.488  0.00  0.00    +0.141 C 
ENDROOT
BRANCH   1   2
ATOM      2  C   UNL     1      -1.089   1.147   3.756  0.00  0.00    +0.246 C 
ATOM      3  O   UNL     1      -0.922   2.089   4.502  0.00  0.00    -0.273 OA
ATOM      4  N   UNL     1      -1.996   0.198   4.061  0.00  0.00    -0.206 N 
ATOM      5  H   UNL     1      -2.129  -0.555   3.465  0.00  0.00    +0.177 HD
BRANCH   4   6
ATOM      6  N   UNL     1      -2.746   0.299   5.240  0.00  0.00    -0.189 NA
ATOM      7  C   UNL     1      -3.542  -0.646   5.575  0.00  0.00    +0.040 C 
ATOM      8  C   UNL     1      -3.587  -1.937   4.789  0.00  0.00    +0.053 C 
ATOM      9  C   UNL     1      -3.439  -3.108   5.766  0.00  0.00    +0.006 C 
ATOM     10  C   UNL     1      -4.505  -2.997   6.857  0.00  0.00    +0.001 C 
ATOM     11  C   UNL     1      -4.281  -1.723   7.673  0.00  0.00    +0.009 C 
ATOM     12  C   UNL     1      -4.457  -0.502   6.771  0.00  0.00    +0.032 C 
ATOM     13  C   UNL     1      -4.092   0.765   7.547  0.00  0.00    +0.014 C 
ENDBRANCH   4   6
ENDBRANCH   1   2
BRANCH   1  15
ATOM     14  C   UNL     1      -2.343   0.803   1.096  0.00  0.00    +0.005 C 
ATOM     15  C   UNL     1      -1.078   1.633   1.324  0.00  0.00    +0.020 C 
ENDBRANCH   1  15
BRANCH   1  16
ATOM     16  S   UNL     1       1.272   1.947   2.682  0.00  0.00    -0.075 S 
BRANCH  16  17
ATOM     17  C   UNL     1       2.115   1.427   1.225  0.00  0.00    +0.168 A 
ATOM     18  N   UNL     1       3.332   1.891   0.813  0.00  0.00    -0.333 N 
ATOM     19  H   UNL     1       3.893   2.577   1.278  0.00  0.00    +0.168 HD
ATOM     20  C   UNL     1       3.644   1.236  -0.366  0.00  0.00    +0.067 A 
ATOM     21  C   UNL     1       4.724   1.282  -1.235  0.00  0.00    +0.028 A 
ATOM     22  C   UNL     1       4.734   0.486  -2.362  0.00  0.00    +0.002 A 
ATOM     23  C   UNL     1       3.670  -0.363  -2.631  0.00  0.00    +0.002 A 
ATOM     24  C   UNL     1       2.590  -0.421  -1.780  0.00  0.00    +0.030 A 
ATOM     25  C   UNL     1       2.564   0.379  -0.635  0.00  0.00    +0.090 A 
ATOM     26  N   UNL     1       1.665   0.541   0.370  0.00  0.00    -0.222 NA
ENDBRANCH  16  17
ENDBRANCH   1  16
TORSDOF 5
