REMARK  Name = ZINC01136472
REMARK  8 active torsions:
REMARK  status: ('A' for Active; 'I' for Inactive)
REMARK    1  A    between atoms: C_1  and  C_2
REMARK    2  A    between atoms: C_3  and  C_20
REMARK    3  A    between atoms: C_4  and  C_11
REMARK    4  A    between atoms: N_9  and  C_10
REMARK    5  A    between atoms: C_13  and  O_19
REMARK    6  A    between atoms: C_14  and  O_18
REMARK    7  A    between atoms: C_20  and  O_22
REMARK    8  A    between atoms: O_22  and  C_23
REMARK                            x       y       z     vdW  Elec       q    Type
REMARK                         _______ _______ _______ _____ _____    ______ ____
ROOT
ATOM      1  C   UNL     1       3.609  -1.002  -0.038  0.00  0.00    +0.061 C 
ATOM      2  C   UNL     1       2.383  -0.125  -0.021  0.00  0.00    +0.024 C 
ATOM      3  C   UNL     1       2.527   1.218  -0.015  0.00  0.00    +0.078 C 
ATOM      4  C   UNL     1       1.269   2.062   0.001  0.00  0.00    +0.144 C 
ATOM      5  N   UNL     1      -0.016   1.343   0.009  0.00  0.00    -0.288 N 
ATOM      6  C   UNL     1       0.002  -0.004   0.002  0.00  0.00    +0.307 C 
ATOM      7  O   UNL     1      -1.054  -0.606   0.009  0.00  0.00    -0.252 OA
ATOM      8  N   UNL     1       1.145  -0.701  -0.013  0.00  0.00    -0.262 N 
ATOM      9  C   UNL     1       1.063  -2.164  -0.021  0.00  0.00    +0.139 C 
ATOM     10  H   UNL     1      -0.856   1.829   0.016  0.00  0.00    +0.151 HD
ENDROOT
BRANCH   4  11
ATOM     11  C   UNL     1       1.294   2.956  -1.212  0.00  0.00    -0.018 A 
ATOM     12  C   UNL     1       1.822   4.231  -1.119  0.00  0.00    +0.055 A 
ATOM     13  C   UNL     1       1.851   5.052  -2.234  0.00  0.00    +0.160 A 
ATOM     14  C   UNL     1       1.336   4.596  -3.444  0.00  0.00    +0.172 A 
ATOM     15  C   UNL     1       0.803   3.320  -3.529  0.00  0.00    +0.063 A 
ATOM     16  C   UNL     1       0.783   2.502  -2.413  0.00  0.00    +0.025 A 
ATOM     17 BR   UNL     1       0.102   2.696  -5.171  0.00  0.00    -0.046 Br
BRANCH  14  18
ATOM     18  O   UNL     1       1.357   5.401  -4.540  0.00  0.00    -0.503 OA
ATOM     19  H   UNL     1       0.568   5.952  -4.639  0.00  0.00    +0.292 HD
ENDBRANCH  14  18
BRANCH  13  20
ATOM     20  O   UNL     1       2.376   6.303  -2.145  0.00  0.00    -0.503 OA
ATOM     21  H   UNL     1       1.733   6.983  -1.901  0.00  0.00    +0.292 HD
ENDBRANCH  13  20
ENDBRANCH   4  11
BRANCH   3  22
ATOM     22  C   UNL     1       3.809   1.816  -0.023  0.00  0.00    +0.339 C 
ATOM     23  O   UNL     1       4.806   1.118  -0.036  0.00  0.00    -0.245 OA
BRANCH  22  24
ATOM     24  O   UNL     1       3.927   3.160  -0.017  0.00  0.00    -0.465 OA
ATOM     25  C   UNL     1       5.252   3.696  -0.026  0.00  0.00    +0.280 C 
ENDBRANCH  22  24
ENDBRANCH   3  22
TORSDOF 5
