REMARK  Name = ZINC44981763
REMARK  6 active torsions:
REMARK  status: ('A' for Active; 'I' for Inactive)
REMARK    1  A    between atoms: C_1  and  C_2
REMARK    2  A    between atoms: C_3  and  S_22
REMARK    3  A    between atoms: C_8  and  C_10
REMARK    4  A    between atoms: C_16  and  C_18
REMARK    5  A    between atoms: S_22  and  C_23
REMARK    6  A    between atoms: C_23  and  C_24
REMARK                            x       y       z     vdW  Elec       q    Type
REMARK                         _______ _______ _______ _____ _____    ______ ____
ROOT
ATOM      1  C   UNL     1       0.131   1.885   1.347  0.00  0.00    +0.067 C 
ATOM      2  C   UNL     1      -0.003   0.402   1.117  0.00  0.00    +0.061 A 
ATOM      3  C   UNL     1      -0.269  -0.077  -0.130  0.00  0.00    +0.070 A 
ATOM      4  S   UNL     1      -0.312  -1.836   0.194  0.00  0.00    -0.045 S 
ATOM      5  C   UNL     1       0.028  -1.745   1.947  0.00  0.00    +0.166 A 
ATOM      6  N   UNL     1       0.144  -0.442   2.122  0.00  0.00    -0.229 NA
ATOM      7  N   UNL     1       0.144  -2.774   2.877  0.00  0.00    -0.264 N 
ATOM      8  C   UNL     1      -0.008  -4.055   2.488  0.00  0.00    +0.222 C 
ATOM      9  O   UNL     1      -0.244  -4.312   1.326  0.00  0.00    -0.275 OA
ATOM     10  H   UNL     1       0.333  -2.568   3.806  0.00  0.00    +0.157 HD
ENDROOT
BRANCH   8  11
ATOM     11  C   UNL     1       0.118  -5.169   3.495  0.00  0.00    +0.087 C 
ATOM     12  C   UNL     1      -1.179  -5.981   3.521  0.00  0.00    +0.013 C 
ATOM     13  C   UNL     1      -1.437  -6.574   2.134  0.00  0.00    +0.001 C 
ATOM     14  C   UNL     1      -0.271  -7.486   1.744  0.00  0.00    +0.001 C 
ATOM     15  C   UNL     1       1.025  -6.673   1.719  0.00  0.00    +0.013 C 
ATOM     16  C   UNL     1       1.283  -6.080   3.105  0.00  0.00    +0.105 C 
BRANCH  16  17
ATOM     17  C   UNL     1       2.579  -5.268   3.079  0.00  0.00    +0.394 C 
ATOM     18  F   UNL     1       2.747  -4.618   4.307  0.00  0.00    -0.170 F 
ATOM     19  F   UNL     1       3.662  -6.124   2.854  0.00  0.00    -0.170 F 
ATOM     20  F   UNL     1       2.514  -4.318   2.054  0.00  0.00    -0.170 F 
ENDBRANCH  16  17
ENDBRANCH   8  11
BRANCH   3  21
ATOM     21  S   UNL     1      -0.507   0.794  -1.643  0.00  0.00    -0.107 S 
BRANCH  21  22
ATOM     22  C   UNL     1      -0.817  -0.516  -2.860  0.00  0.00    +0.170 C 
BRANCH  22  23
ATOM     23  C   UNL     1      -1.040   0.101  -4.216  0.00  0.00    +0.221 C 
ATOM     24  O   UNL     1      -0.995   1.306  -4.349  0.00  0.00    -0.275 OA
ATOM     25  N   UNL     1      -1.291  -0.685  -5.281  0.00  0.00    -0.329 N 
ATOM     26  H   UNL     1      -1.327  -1.649  -5.175  0.00  0.00    +0.145 HD
ATOM     27  H   UNL     1      -1.434  -0.288  -6.155  0.00  0.00    +0.145 HD
ENDBRANCH  22  23
ENDBRANCH  21  22
ENDBRANCH   3  21
TORSDOF 5
