REMARK  Name = ZINC09256386
REMARK  9 active torsions:
REMARK  status: ('A' for Active; 'I' for Inactive)
REMARK    1  A    between atoms: C_1  and  N_2
REMARK    2  A    between atoms: N_5  and  C_14
REMARK    3  A    between atoms: C_14  and  C_15
REMARK    4  A    between atoms: N_17  and  C_18
REMARK    5  A    between atoms: C_18  and  C_19
REMARK    6  A    between atoms: C_19  and  C_21
REMARK    7  A    between atoms: C_19  and  C_29
REMARK    8  A    between atoms: C_24  and  O_27
REMARK    9  A    between atoms: O_27  and  C_28
REMARK                            x       y       z     vdW  Elec       q    Type
REMARK                         _______ _______ _______ _____ _____    ______ ____
ROOT
ATOM      1  C   UNL     1      -0.757   1.372   3.634  0.00  0.00    +0.117 C 
ENDROOT
BRANCH   1   4
ATOM      2  C   UNL     1      -0.608   1.391   1.202  0.00  0.00    +0.231 C 
ATOM      3  O   UNL     1      -1.641   2.025   1.173  0.00  0.00    -0.274 OA
ATOM      4  N   UNL     1      -0.081   1.014   2.385  0.00  0.00    -0.313 N 
ATOM      5  H   UNL     1       0.745   0.506   2.408  0.00  0.00    +0.149 HD
BRANCH   2   6
ATOM      6  C   UNL     1       0.088   1.023  -0.083  0.00  0.00    +0.213 C 
BRANCH   6  11
ATOM      7  C   UNL     1      -3.274   1.136  -3.744  0.00  0.00    +0.134 C 
ATOM      8  N   UNL     1      -2.194   1.571  -2.856  0.00  0.00    -0.274 N 
ATOM      9  C   UNL     1      -1.645   0.866  -1.848  0.00  0.00    +0.312 C 
ATOM     10  O   UNL     1      -1.991  -0.259  -1.543  0.00  0.00    -0.252 OA
ATOM     11  N   UNL     1      -0.678   1.544  -1.218  0.00  0.00    -0.215 N 
ATOM     12  C   UNL     1      -0.491   2.764  -1.763  0.00  0.00    +0.247 C 
ATOM     13  O   UNL     1       0.311   3.606  -1.419  0.00  0.00    -0.273 OA
ATOM     14  C   UNL     1      -1.492   2.860  -2.891  0.00  0.00    +0.115 C 
ATOM     15  C   UNL     1      -0.774   3.042  -4.224  0.00  0.00    +0.035 C 
ATOM     16  C   UNL     1      -1.803   3.108  -5.356  0.00  0.00    +0.003 C 
ATOM     17  C   UNL     1      -2.757   4.279  -5.108  0.00  0.00    +0.000 C 
ATOM     18  C   UNL     1      -3.487   4.070  -3.780  0.00  0.00    +0.003 C 
ATOM     19  C   UNL     1      -2.465   4.007  -2.642  0.00  0.00    +0.035 C 
ENDBRANCH   6  11
ENDBRANCH   2   6
ENDBRANCH   1   4
BRANCH   1  20
ATOM     20  C   UNL     1       0.042   0.828   4.820  0.00  0.00    +0.068 C 
BRANCH  20  21
ATOM     21  C   UNL     1       0.036  -0.679   4.781  0.00  0.00    -0.013 A 
ATOM     22  C   UNL     1      -1.043  -1.475   4.830  0.00  0.00    +0.088 A 
ATOM     23  N   UNL     1      -0.659  -2.787   4.770  0.00  0.00    -0.360 N 
ATOM     24  H   UNL     1      -1.263  -3.546   4.788  0.00  0.00    +0.165 HD
ATOM     25  C   UNL     1       0.712  -2.869   4.678  0.00  0.00    +0.047 A 
ATOM     26  C   UNL     1       1.208  -1.552   4.675  0.00  0.00    +0.003 A 
ATOM     27  C   UNL     1       2.582  -1.325   4.585  0.00  0.00    +0.010 A 
ATOM     28  C   UNL     1       3.440  -2.385   4.497  0.00  0.00    +0.001 A 
ATOM     29  C   UNL     1       2.957  -3.686   4.496  0.00  0.00    +0.002 A 
ATOM     30  C   UNL     1       1.604  -3.933   4.592  0.00  0.00    +0.026 A 
ENDBRANCH  20  21
BRANCH  20  31
ATOM     31  C   UNL     1      -0.585   1.299   6.107  0.00  0.00    -0.038 A 
ATOM     32  C   UNL     1      -1.895   0.966   6.399  0.00  0.00    +0.008 A 
ATOM     33  C   UNL     1      -2.470   1.392   7.581  0.00  0.00    +0.046 A 
ATOM     34  C   UNL     1      -1.736   2.164   8.469  0.00  0.00    +0.120 A 
ATOM     35  C   UNL     1      -0.424   2.502   8.171  0.00  0.00    +0.046 A 
ATOM     36  C   UNL     1       0.149   2.068   6.991  0.00  0.00    +0.008 A 
BRANCH  34  37
ATOM     37  O   UNL     1      -2.302   2.590   9.629  0.00  0.00    -0.495 OA
ATOM     38  C   UNL     1      -3.656   2.204   9.870  0.00  0.00    +0.277 C 
ENDBRANCH  34  37
ENDBRANCH  20  31
ENDBRANCH   1  20
TORSDOF 7
