REMARK  Name = ZINC21077696
REMARK  6 active torsions:
REMARK  status: ('A' for Active; 'I' for Inactive)
REMARK    1  A    between atoms: C_1  and  C_2
REMARK    2  A    between atoms: C_9  and  C_12
REMARK    3  A    between atoms: C_12  and  S_13
REMARK    4  A    between atoms: S_13  and  C_14
REMARK    5  A    between atoms: N_19  and  N_20
REMARK    6  A    between atoms: C_21  and  C_22
REMARK                            x       y       z     vdW  Elec       q    Type
REMARK                         _______ _______ _______ _____ _____    ______ ____
ROOT
ATOM      1  C   UNL     1      -1.130   1.715   0.012  0.00  0.00    +0.210 A 
ATOM      2  N   UNL     1      -0.020   0.919   0.000  0.00  0.00    -0.186 NA
ATOM      3  C   UNL     1       1.081   1.730  -0.004  0.00  0.00    +0.232 A 
ATOM      4  N   UNL     1       0.669   2.974   0.009  0.00  0.00    -0.245 N 
ATOM      5  N   UNL     1      -0.732   2.965   0.023  0.00  0.00    -0.144 NA
ATOM      6  N   UNL     1       2.403   1.309  -0.021  0.00  0.00    -0.205 N 
ATOM      7  H   UNL     1       2.639   0.234  -0.032  0.00  0.00    +0.177 HD
ATOM      8  H   UNL     1       1.400   3.796   0.008  0.00  0.00    +0.192 HD
ENDROOT
BRANCH   6   9
ATOM      9  N   UNL     1       3.439   2.253  -0.024  0.00  0.00    -0.188 NA
ATOM     10  C   UNL     1       4.676   1.859  -0.039  0.00  0.00    +0.139 C 
BRANCH  10  11
ATOM     11  C   UNL     1       5.766   2.852  -0.042  0.00  0.00    +0.013 A 
ATOM     12  C   UNL     1       7.098   2.432  -0.053  0.00  0.00    +0.011 A 
ATOM     13  C   UNL     1       8.112   3.367  -0.062  0.00  0.00    +0.001 A 
ATOM     14  C   UNL     1       7.814   4.718  -0.048  0.00  0.00    +0.001 A 
ATOM     15  C   UNL     1       6.497   5.142  -0.032  0.00  0.00    +0.020 A 
ATOM     16  C   UNL     1       5.471   4.218  -0.029  0.00  0.00    +0.050 A 
ATOM     17 CL   UNL     1       3.819   4.752  -0.008  0.00  0.00    -0.083 Cl
ENDBRANCH  10  11
ENDBRANCH   6   9
BRANCH   1  18
ATOM     18  S   UNL     1      -2.802   1.160   0.016  0.00  0.00    -0.077 S 
BRANCH  18  19
ATOM     19  C   UNL     1      -3.773   2.693   0.033  0.00  0.00    +0.151 C 
BRANCH  19  28
ATOM     20  C   UNL     1     -10.831   1.057  -1.495  0.00  0.00    +0.044 C 
ATOM     21  C   UNL     1      -9.575   1.348  -0.716  0.00  0.00    -0.048 A 
ATOM     22  C   UNL     1      -9.607   1.331   0.671  0.00  0.00    +0.005 A 
ATOM     23  C   UNL     1      -8.467   1.595   1.400  0.00  0.00    +0.030 A 
ATOM     24  C   UNL     1      -7.279   1.879   0.740  0.00  0.00    +0.089 A 
ATOM     25  C   UNL     1      -7.247   1.896  -0.664  0.00  0.00    +0.066 A 
ATOM     26  C   UNL     1      -8.415   1.625  -1.382  0.00  0.00    +0.031 A 
ATOM     27  N   UNL     1      -5.974   2.199  -1.027  0.00  0.00    -0.341 N 
ATOM     28  C   UNL     1      -5.242   2.357   0.037  0.00  0.00    +0.118 A 
ATOM     29  N   UNL     1      -5.997   2.179   1.155  0.00  0.00    -0.232 NA
ATOM     30  H   UNL     1      -5.526   2.317  -2.025  0.00  0.00    +0.167 HD
ENDBRANCH  19  28
ENDBRANCH  18  19
ENDBRANCH   1  18
TORSDOF 5
