REMARK  Name = ZINC40716032
REMARK  5 active torsions:
REMARK  status: ('A' for Active; 'I' for Inactive)
REMARK    1  A    between atoms: C_1  and  C_2
REMARK    2  A    between atoms: C_9  and  C_19
REMARK    3  A    between atoms: N_10  and  C_11
REMARK    4  A    between atoms: N_16  and  C_18
REMARK    5  A    between atoms: C_19  and  C_20
REMARK                            x       y       z     vdW  Elec       q    Type
REMARK                         _______ _______ _______ _____ _____    ______ ____
ROOT
ATOM      1  C   UNL     1       0.495   1.362  -0.355  0.00  0.00    +0.044 C 
ATOM      2  C   UNL     1       0.334  -0.134  -0.270  0.00  0.00    -0.048 A 
ATOM      3  C   UNL     1       0.192  -0.876  -1.434  0.00  0.00    +0.005 A 
ATOM      4  C   UNL     1       0.044  -2.245  -1.375  0.00  0.00    +0.028 A 
ATOM      5  C   UNL     1       0.037  -2.884  -0.142  0.00  0.00    +0.069 A 
ATOM      6  C   UNL     1       0.181  -2.132   1.036  0.00  0.00    +0.090 A 
ATOM      7  C   UNL     1       0.335  -0.746   0.951  0.00  0.00    +0.033 A 
ATOM      8  N   UNL     1       0.138  -3.008   2.072  0.00  0.00    -0.232 NA
ATOM      9  C   UNL     1      -0.019  -4.217   1.617  0.00  0.00    +0.112 A 
ATOM     10  N   UNL     1      -0.088  -4.199   0.258  0.00  0.00    -0.326 N 
ENDROOT
BRANCH  10  11
ATOM     11  C   UNL     1      -0.262  -5.361  -0.617  0.00  0.00    +0.072 C 
ATOM     12  C   UNL     1       0.939  -5.475  -1.561  0.00  0.00    +0.021 C 
ATOM     13  C   UNL     1       0.711  -6.644  -2.523  0.00  0.00    -0.017 C 
ATOM     14  C   UNL     1      -0.602  -6.427  -3.279  0.00  0.00    -0.079 C 
ATOM     15  N   UNL     1      -1.714  -6.353  -2.324  0.00  0.00    +0.379 N 
ATOM     16  C   UNL     1      -1.539  -5.192  -1.443  0.00  0.00    -0.054 C 
ATOM     17  C   UNL     1      -2.979  -6.223  -3.058  0.00  0.00    -0.096 C 
ATOM     18  H   UNL     1      -1.735  -7.195  -1.768  0.00  0.00    -0.082 HD
ENDBRANCH  10  11
BRANCH   9  19
ATOM     19  C   UNL     1      -0.112  -5.456   2.470  0.00  0.00    +0.090 C 
BRANCH  19  20
ATOM     20  C   UNL     1      -1.580  -5.758   2.773  0.00  0.00    +0.116 C 
ATOM     21 CL   UNL     1      -1.687  -7.189   3.865  0.00  0.00    -0.125 Cl
ENDBRANCH  19  20
ENDBRANCH   9  19
TORSDOF 3
