REMARK  Name = ZINC14128690
REMARK  6 active torsions:
REMARK  status: ('A' for Active; 'I' for Inactive)
REMARK    1  A    between atoms: C_4  and  C_7
REMARK    2  A    between atoms: C_7  and  C_8
REMARK    3  A    between atoms: C_13  and  N_14
REMARK    4  A    between atoms: C_15  and  C_17
REMARK    5  A    between atoms: C_17  and  C_18
REMARK    6  A    between atoms: C_18  and  N_19
REMARK                            x       y       z     vdW  Elec       q    Type
REMARK                         _______ _______ _______ _____ _____    ______ ____
ROOT
ATOM      1  N   UNL     1       2.817  -2.962   1.449  0.00  0.00    -0.285 N 
ATOM      2  C   UNL     1       2.449  -4.094   2.081  0.00  0.00    +0.219 C 
ATOM      3  O   UNL     1       2.812  -4.299   3.220  0.00  0.00    -0.275 OA
ATOM      4  H   UNL     1       2.462  -2.760   0.570  0.00  0.00    +0.155 HD
ENDROOT
BRANCH   1  10
ATOM      5  C   UNL     1       3.714  -0.735   1.710  0.00  0.00    -0.022 A 
ATOM      6  C   UNL     1       4.594   0.136   2.321  0.00  0.00    +0.006 A 
ATOM      7  C   UNL     1       5.477  -0.329   3.278  0.00  0.00    +0.000 A 
ATOM      8  C   UNL     1       5.481  -1.667   3.628  0.00  0.00    +0.002 A 
ATOM      9  C   UNL     1       4.603  -2.543   3.021  0.00  0.00    +0.023 A 
ATOM     10  C   UNL     1       3.712  -2.078   2.062  0.00  0.00    +0.037 A 
BRANCH   5  11
ATOM     11  C   UNL     1       2.752  -0.227   0.666  0.00  0.00    +0.072 C 
BRANCH  11  15
ATOM     12  C   UNL     1      -0.995   0.685   2.504  0.00  0.00    +0.000 A 
ATOM     13  C   UNL     1      -0.017   1.657   2.410  0.00  0.00    +0.000 A 
ATOM     14  C   UNL     1       1.196   1.361   1.815  0.00  0.00    +0.004 A 
ATOM     15  C   UNL     1       1.431   0.094   1.315  0.00  0.00    -0.043 A 
ATOM     16  C   UNL     1       0.452  -0.878   1.410  0.00  0.00    +0.004 A 
ATOM     17  C   UNL     1      -0.761  -0.583   2.003  0.00  0.00    +0.000 A 
ENDBRANCH  11  15
ENDBRANCH   5  11
ENDBRANCH   1  10
BRANCH   2  18
ATOM     18  C   UNL     1       1.585  -5.106   1.373  0.00  0.00    +0.115 C 
BRANCH  18  19
ATOM     19  C   UNL     1       1.315  -6.288   2.306  0.00  0.00    +0.125 C 
BRANCH  19  20
ATOM     20  N   UNL     1       0.475  -7.271   1.617  0.00  0.00    -0.241 N 
ATOM     21  C   UNL     1      -0.883  -7.247   1.654  0.00  0.00    +0.226 C 
ATOM     22  O   UNL     1      -1.579  -6.584   2.392  0.00  0.00    -0.275 OA
ATOM     23  C   UNL     1      -1.347  -8.204   0.598  0.00  0.00    +0.091 C 
ATOM     24  C   UNL     1      -2.611  -8.997   0.855  0.00  0.00    +0.040 C 
ATOM     25  C   UNL     1      -2.651 -10.107  -0.175  0.00  0.00    -0.030 C 
ATOM     26  C   UNL     1      -1.621 -10.513  -0.854  0.00  0.00    -0.030 C 
ATOM     27  C   UNL     1      -0.221  -9.957  -0.701  0.00  0.00    +0.040 C 
ATOM     28  C   UNL     1      -0.167  -9.224   0.615  0.00  0.00    +0.091 C 
ATOM     29  C   UNL     1       0.979  -8.293   0.876  0.00  0.00    +0.226 C 
ATOM     30  O   UNL     1       2.125  -8.425   0.504  0.00  0.00    -0.275 OA
ENDBRANCH  19  20
ENDBRANCH  18  19
ENDBRANCH   2  18
TORSDOF 6
