REMARK  Name = ZINC03440809
REMARK  8 active torsions:
REMARK  status: ('A' for Active; 'I' for Inactive)
REMARK    1  A    between atoms: C_4  and  C_7
REMARK    2  A    between atoms: C_15  and  C_18
REMARK    3  A    between atoms: C_18  and  S_19
REMARK    4  A    between atoms: S_19  and  C_20
REMARK    5  A    between atoms: C_23  and  C_26
REMARK    6  A    between atoms: N_24  and  N_25
REMARK    7  A    between atoms: C_29  and  O_32
REMARK    8  A    between atoms: O_32  and  C_33
REMARK                            x       y       z     vdW  Elec       q    Type
REMARK                         _______ _______ _______ _____ _____    ______ ____
ROOT
ATOM      1  S   UNL     1       1.221  -2.778  -1.731  0.00  0.00    -0.080 S 
ENDROOT
BRANCH   1   2
ATOM      2  C   UNL     1       1.246  -4.518  -1.452  0.00  0.00    +0.209 A 
ATOM      3  N   UNL     1       1.263  -5.119  -0.284  0.00  0.00    -0.121 NA
ATOM      4  N   UNL     1       1.279  -6.394  -0.444  0.00  0.00    -0.127 NA
ATOM      5  C   UNL     1       1.272  -6.685  -1.724  0.00  0.00    +0.182 A 
ATOM      6  N   UNL     1       1.246  -5.492  -2.409  0.00  0.00    -0.224 N 
BRANCH   5   7
ATOM      7  C   UNL     1       1.286  -8.039  -2.317  0.00  0.00    +0.021 A 
ATOM      8  C   UNL     1       1.585  -8.207  -3.671  0.00  0.00    +0.015 A 
ATOM      9  C   UNL     1       1.600  -9.472  -4.219  0.00  0.00    +0.046 A 
ATOM     10  C   UNL     1       1.309 -10.577  -3.430  0.00  0.00    +0.127 A 
ATOM     11  C   UNL     1       1.006 -10.413  -2.085  0.00  0.00    +0.046 A 
ATOM     12  C   UNL     1       0.993  -9.152  -1.527  0.00  0.00    +0.015 A 
BRANCH  10  13
ATOM     13  O   UNL     1       1.320 -11.821  -3.975  0.00  0.00    -0.434 OA
BRANCH  13  14
ATOM     14  C   UNL     1       1.640 -11.918  -5.365  0.00  0.00    +0.541 C 
ATOM     15  F   UNL     1       0.707 -11.189  -6.110  0.00  0.00    -0.166 F 
ATOM     16  F   UNL     1       2.921 -11.399  -5.585  0.00  0.00    -0.166 F 
ENDBRANCH  13  14
ENDBRANCH  10  13
ENDBRANCH   5   7
BRANCH   6  17
ATOM     17  N   UNL     1       1.226  -5.319  -3.764  0.00  0.00    -0.295 N 
ATOM     18  H   UNL     1       2.163  -5.261  -4.135  0.00  0.00    +0.163 HD
ATOM     19  H   UNL     1       0.703  -6.054  -4.215  0.00  0.00    +0.163 HD
ENDBRANCH   6  17
ENDBRANCH   1   2
BRANCH   1  20
ATOM     20  C   UNL     1       1.227  -2.185  -0.021  0.00  0.00    +0.116 C 
BRANCH  20  28
ATOM     21  C   UNL     1       4.748   0.101  -0.388  0.00  0.00    +0.340 C 
ATOM     22  O   UNL     1       4.750   1.336   0.338  0.00  0.00    -0.333 OA
ATOM     23  C   UNL     1       3.669   2.200  -0.025  0.00  0.00    +0.203 C 
ATOM     24  C   UNL     1       2.380   1.417  -0.013  0.00  0.00    +0.023 A 
ATOM     25  C   UNL     1       1.172   2.090   0.002  0.00  0.00    +0.047 A 
ATOM     26  C   UNL     1      -0.017   1.381   0.010  0.00  0.00    +0.124 A 
ATOM     27  C   UNL     1       0.002  -0.004   0.002  0.00  0.00    +0.046 A 
ATOM     28  C   UNL     1       1.207  -0.678  -0.012  0.00  0.00    +0.008 A 
ATOM     29  C   UNL     1       2.400   0.031  -0.018  0.00  0.00    +0.134 A 
ATOM     30  O   UNL     1       3.582  -0.642  -0.023  0.00  0.00    -0.459 OA
ATOM     31  F   UNL     1      -1.196   2.040   0.019  0.00  0.00    -0.205 F 
BRANCH  21  35
ATOM     32  C   UNL     1       8.252  -2.140   0.586  0.00  0.00    +0.000 A 
ATOM     33  C   UNL     1       8.370  -0.884   0.019  0.00  0.00    +0.000 A 
ATOM     34  C   UNL     1       7.236  -0.159  -0.296  0.00  0.00    +0.010 A 
ATOM     35  C   UNL     1       5.984  -0.690  -0.045  0.00  0.00    +0.020 A 
ATOM     36  C   UNL     1       5.867  -1.943   0.526  0.00  0.00    +0.010 A 
ATOM     37  C   UNL     1       7.001  -2.670   0.837  0.00  0.00    +0.000 A 
ENDBRANCH  21  35
ENDBRANCH  20  28
ENDBRANCH   1  20
TORSDOF 8
