REMARK  Name = ZINC08711026
REMARK  6 active torsions:
REMARK  status: ('A' for Active; 'I' for Inactive)
REMARK    1  A    between atoms: C_1  and  C_2
REMARK    2  A    between atoms: C_5  and  S_7
REMARK    3  A    between atoms: S_7  and  C_8
REMARK    4  A    between atoms: C_8  and  C_9
REMARK    5  A    between atoms: C_17  and  O_21
REMARK    6  A    between atoms: O_21  and  C_22
REMARK                            x       y       z     vdW  Elec       q    Type
REMARK                         _______ _______ _______ _____ _____    ______ ____
ROOT
ATOM      1  C   UNL     1       0.091  -6.720  -0.470  0.00  0.00    +0.229 C 
ATOM      2  O   UNL     1       0.100  -7.130   0.672  0.00  0.00    -0.275 OA
ATOM      3  N   UNL     1       0.099  -7.591  -1.498  0.00  0.00    -0.264 N 
ATOM      4  C   UNL     1       0.118  -8.955  -1.252  0.00  0.00    +0.165 A 
ATOM      5  N   UNL     1       0.124  -9.582  -0.100  0.00  0.00    -0.225 NA
ATOM      6  C   UNL     1       0.143 -10.931  -0.007  0.00  0.00    +0.081 A 
ATOM      7  C   UNL     1       0.152 -11.725   1.163  0.00  0.00    +0.032 A 
ATOM      8  C   UNL     1       0.173 -13.092   1.083  0.00  0.00    +0.048 A 
ATOM      9  C   UNL     1       0.185 -13.748  -0.145  0.00  0.00    +0.121 A 
ATOM     10  C   UNL     1       0.176 -12.999  -1.312  0.00  0.00    +0.063 A 
ATOM     11  C   UNL     1       0.155 -11.628  -1.237  0.00  0.00    +0.044 A 
ATOM     12  S   UNL     1       0.132 -10.305  -2.422  0.00  0.00    -0.052 S 
ATOM     13  H   UNL     1       0.091  -7.263  -2.411  0.00  0.00    +0.157 HD
ENDROOT
BRANCH   9  14
ATOM     14  O   UNL     1       0.206 -15.106  -0.199  0.00  0.00    -0.495 OA
ATOM     15  C   UNL     1       0.214 -15.805   1.047  0.00  0.00    +0.277 C 
ENDBRANCH   9  14
BRANCH   1  16
ATOM     16  C   UNL     1       0.070  -5.237  -0.738  0.00  0.00    +0.172 C 
BRANCH  16  17
ATOM     17  S   UNL     1       0.064  -4.338   0.838  0.00  0.00    -0.088 S 
BRANCH  17  22
ATOM     18  C   UNL     1      -0.018   1.503   0.010  0.00  0.00    +0.075 C 
ATOM     19  C   UNL     1       0.002  -0.004   0.002  0.00  0.00    +0.100 A 
ATOM     20  N   UNL     1       0.010  -0.845  -1.012  0.00  0.00    -0.146 NA
ATOM     21  N   UNL     1       0.027  -2.095  -0.849  0.00  0.00    -0.135 NA
ATOM     22  C   UNL     1       0.039  -2.642   0.360  0.00  0.00    +0.159 A 
ATOM     23  S   UNL     1       0.031  -1.162   1.368  0.00  0.00    -0.044 S 
ENDBRANCH  17  22
ENDBRANCH  16  17
ENDBRANCH   1  16
TORSDOF 4
