REMARK  Name = ZINC16161042
REMARK  5 active torsions:
REMARK  status: ('A' for Active; 'I' for Inactive)
REMARK    1  A    between atoms: C_1  and  C_2
REMARK    2  A    between atoms: N_4  and  C_17
REMARK    3  A    between atoms: C_8  and  C_9
REMARK    4  A    between atoms: C_8  and  N_15
REMARK    5  A    between atoms: N_15  and  O_16
REMARK                            x       y       z     vdW  Elec       q    Type
REMARK                         _______ _______ _______ _____ _____    ______ ____
ROOT
ATOM      1  C   UNL     1       0.935   8.903  -0.465  0.00  0.00    +0.068 C 
ATOM      2  C   UNL     1       0.550   7.631   0.245  0.00  0.00    +0.068 C 
ATOM      3  N   UNL     1       1.331   6.621   0.495  0.00  0.00    -0.179 NA
ATOM      4  N   UNL     1       0.625   5.621   1.166  0.00  0.00    -0.185 N 
ATOM      5  C   UNL     1      -0.649   6.013   1.358  0.00  0.00    +0.112 C 
ATOM      6  S   UNL     1      -1.883   5.122   2.142  0.00  0.00    -0.032 S 
ATOM      7  C   UNL     1      -0.773   7.306   0.788  0.00  0.00    +0.054 C 
ATOM      8  C   UNL     1      -1.920   8.106   0.750  0.00  0.00    +0.080 C 
ENDROOT
BRANCH   8   9
ATOM      9  C   UNL     1      -3.208   7.568   1.219  0.00  0.00    +0.001 A 
ATOM     10  C   UNL     1      -3.908   8.213   2.245  0.00  0.00    +0.010 A 
ATOM     11  C   UNL     1      -5.115   7.706   2.675  0.00  0.00    +0.001 A 
ATOM     12  C   UNL     1      -5.631   6.556   2.102  0.00  0.00    +0.000 A 
ATOM     13  C   UNL     1      -4.943   5.910   1.091  0.00  0.00    +0.001 A 
ATOM     14  C   UNL     1      -3.736   6.407   0.646  0.00  0.00    +0.010 A 
ENDBRANCH   8   9
BRANCH   4  15
ATOM     15  C   UNL     1       1.163   4.397   1.583  0.00  0.00    +0.058 A 
ATOM     16  C   UNL     1       1.912   3.630   0.700  0.00  0.00    +0.025 A 
ATOM     17  C   UNL     1       2.441   2.423   1.114  0.00  0.00    +0.002 A 
ATOM     18  C   UNL     1       2.225   1.978   2.405  0.00  0.00    +0.000 A 
ATOM     19  C   UNL     1       1.474   2.737   3.285  0.00  0.00    +0.002 A 
ATOM     20  C   UNL     1       0.947   3.947   2.879  0.00  0.00    +0.025 A 
ENDBRANCH   4  15
BRANCH   8  21
ATOM     21  N   UNL     1      -1.845   9.387   0.278  0.00  0.00    -0.267 N 
ATOM     22  H   UNL     1      -0.983   9.772   0.055  0.00  0.00    +0.194 HD
BRANCH  21  23
ATOM     23  O   UNL     1      -3.025  10.152   0.116  0.00  0.00    -0.289 OA
ATOM     24  H   UNL     1      -2.881  11.016  -0.294  0.00  0.00    +0.244 HD
ENDBRANCH  21  23
ENDBRANCH   8  21
TORSDOF 4
