REMARK  Name = ZINC39534130
REMARK  9 active torsions:
REMARK  status: ('A' for Active; 'I' for Inactive)
REMARK    1  A    between atoms: C_1  and  C_2
REMARK    2  A    between atoms: C_2  and  O_3
REMARK    3  A    between atoms: O_3  and  N_4
REMARK    4  A    between atoms: N_4  and  C_5
REMARK    5  A    between atoms: C_5  and  C_6
REMARK    6  A    between atoms: C_6  and  C_8
REMARK    7  A    between atoms: C_6  and  N_21
REMARK    8  A    between atoms: C_11  and  C_14
REMARK    9  A    between atoms: C_19  and  O_20
REMARK                            x       y       z     vdW  Elec       q    Type
REMARK                         _______ _______ _______ _____ _____    ______ ____
ROOT
ATOM      1  C   UNL     1       1.506  -3.849  -2.589  0.00  0.00    +0.103 C 
ENDROOT
BRANCH   1   2
ATOM      2  N   UNL     1       0.081  -4.197  -2.505  0.00  0.00    -0.291 NA
ATOM      3  C   UNL     1      -0.751  -3.172  -3.148  0.00  0.00    +0.100 C 
ATOM      4  C   UNL     1      -2.217  -3.609  -3.109  0.00  0.00    +0.097 C 
ATOM      5  N   UNL     1      -2.627  -3.816  -1.713  0.00  0.00    -0.302 NA
ATOM      6  C   UNL     1      -1.794  -4.842  -1.069  0.00  0.00    +0.136 C 
ATOM      7  C   UNL     1      -0.328  -4.404  -1.108  0.00  0.00    +0.115 C 
ATOM      8 BR   UNL     1      -2.362  -5.069   0.799  0.00  0.00    -0.070 Br
ATOM      9  H   UNL     1      -2.598  -2.950  -1.196  0.00  0.00    +0.123 HD
ENDBRANCH   1   2
BRANCH   1  10
ATOM     10  C   UNL     1       2.102  -4.469  -3.826  0.00  0.00    -0.029 A 
ATOM     11  C   UNL     1       1.337  -4.594  -4.972  0.00  0.00    +0.006 A 
ATOM     12  C   UNL     1       1.877  -5.162  -6.108  0.00  0.00    +0.009 A 
ATOM     13  C   UNL     1       3.197  -5.609  -6.099  0.00  0.00    -0.014 A 
ATOM     14  C   UNL     1       3.964  -5.481  -4.943  0.00  0.00    +0.009 A 
ATOM     15  C   UNL     1       3.414  -4.907  -3.814  0.00  0.00    +0.006 A 
BRANCH  13  16
ATOM     16  C   UNL     1       3.784  -6.221  -7.317  0.00  0.00    +0.024 A 
ATOM     17  C   UNL     1       3.104  -7.235  -7.987  0.00  0.00    +0.012 A 
ATOM     18  C   UNL     1       3.654  -7.801  -9.120  0.00  0.00    +0.001 A 
ATOM     19  C   UNL     1       4.879  -7.364  -9.592  0.00  0.00    +0.004 A 
ATOM     20  C   UNL     1       5.562  -6.359  -8.934  0.00  0.00    +0.046 A 
ATOM     21  C   UNL     1       5.019  -5.778  -7.800  0.00  0.00    +0.125 A 
BRANCH  21  22
ATOM     22  O   UNL     1       5.686  -4.786  -7.156  0.00  0.00    -0.506 OA
ATOM     23  H   UNL     1       6.291  -5.100  -6.469  0.00  0.00    +0.292 HD
ENDBRANCH  21  22
ENDBRANCH  13  16
ENDBRANCH   1  10
BRANCH   1  24
ATOM     24  C   UNL     1       1.656  -2.328  -2.659  0.00  0.00    +0.134 C 
BRANCH  24  25
ATOM     25  N   UNL     1       1.044  -1.721  -1.469  0.00  0.00    -0.199 NA
ATOM     26  H   UNL     1       1.444  -2.099  -0.624  0.00  0.00    +0.154 HD
BRANCH  25  27
ATOM     27  O   UNL     1       1.168  -0.264  -1.501  0.00  0.00    -0.300 OA
BRANCH  27  29
ATOM     28  C   UNL     1       0.780   1.906  -0.510  0.00  0.00    +0.036 C 
ATOM     29  C   UNL     1       0.592   0.394  -0.371  0.00  0.00    +0.182 C 
ENDBRANCH  27  29
ENDBRANCH  25  27
ENDBRANCH  24  25
ENDBRANCH   1  24
TORSDOF 8
