REMARK  Name = ZINC02381486
REMARK  7 active torsions:
REMARK  status: ('A' for Active; 'I' for Inactive)
REMARK    1  A    between atoms: C_4  and  C_8
REMARK    2  A    between atoms: C_8  and  O_10
REMARK    3  A    between atoms: C_8  and  P_11
REMARK    4  A    between atoms: P_11  and  O_13
REMARK    5  A    between atoms: P_11  and  O_20
REMARK    6  A    between atoms: O_13  and  C_14
REMARK    7  A    between atoms: O_20  and  C_21
REMARK                            x       y       z     vdW  Elec       q    Type
REMARK                         _______ _______ _______ _____ _____    ______ ____
ROOT
ATOM      1  P   UNL     1       3.583  -2.079  -1.036  0.00  0.00    +0.366 P 
ATOM      2  O   UNL     1       3.404  -1.749  -2.467  0.00  0.00    -0.255 OA
ENDROOT
BRANCH   1   3
ATOM      3  C   UNL     1       3.708  -0.540  -0.067  0.00  0.00    +0.261 C 
BRANCH   3   7
ATOM      4  C   UNL     1      -0.175   1.192   0.361  0.00  0.00    +0.003 A 
ATOM      5  C   UNL     1       0.438   1.168  -0.878  0.00  0.00    +0.020 A 
ATOM      6  C   UNL     1       1.695   0.608  -1.017  0.00  0.00    +0.049 A 
ATOM      7  C   UNL     1       2.339   0.071   0.084  0.00  0.00    +0.029 A 
ATOM      8  C   UNL     1       1.725   0.096   1.323  0.00  0.00    +0.049 A 
ATOM      9  C   UNL     1       0.468   0.656   1.461  0.00  0.00    +0.020 A 
ATOM     10 CL   UNL     1       2.532  -0.577   2.705  0.00  0.00    -0.083 Cl
ATOM     11 CL   UNL     1       2.465   0.577  -2.573  0.00  0.00    -0.083 Cl
ENDBRANCH   3   7
BRANCH   3  12
ATOM     12  O   UNL     1       4.568   0.379  -0.743  0.00  0.00    -0.375 OA
ATOM     13  H   UNL     1       4.265   0.623  -1.629  0.00  0.00    +0.211 HD
ENDBRANCH   3  12
ENDBRANCH   1   3
BRANCH   1  14
ATOM     14  O   UNL     1       4.929  -2.942  -0.848  0.00  0.00    -0.303 OA
BRANCH  14  15
ATOM     15  C   UNL     1       5.175  -4.163  -1.550  0.00  0.00    +0.128 C 
ATOM     16  C   UNL     1       5.561  -5.256  -0.551  0.00  0.00    +0.032 C 
ATOM     17  C   UNL     1       5.824  -6.563  -1.302  0.00  0.00    +0.003 C 
ATOM     18  C   UNL     1       6.967  -6.356  -2.299  0.00  0.00    +0.000 C 
ATOM     19  C   UNL     1       6.581  -5.263  -3.298  0.00  0.00    +0.003 C 
ATOM     20  C   UNL     1       6.317  -3.956  -2.546  0.00  0.00    +0.032 C 
ENDBRANCH  14  15
ENDBRANCH   1  14
BRANCH   1  21
ATOM     21  O   UNL     1       2.320  -2.936  -0.521  0.00  0.00    -0.303 OA
BRANCH  21  22
ATOM     22  C   UNL     1       1.867  -4.123  -1.174  0.00  0.00    +0.128 C 
ATOM     23  C   UNL     1       0.452  -3.901  -1.713  0.00  0.00    +0.032 C 
ATOM     24  C   UNL     1      -0.033  -5.172  -2.412  0.00  0.00    +0.003 C 
ATOM     25  C   UNL     1      -0.044  -6.331  -1.413  0.00  0.00    +0.000 C 
ATOM     26  C   UNL     1       1.371  -6.553  -0.875  0.00  0.00    +0.003 C 
ATOM     27  C   UNL     1       1.856  -5.282  -0.176  0.00  0.00    +0.032 C 
ENDBRANCH  21  22
ENDBRANCH   1  21
TORSDOF 7
