REMARK  Name = ZINC15730871
REMARK  7 active torsions:
REMARK  status: ('A' for Active; 'I' for Inactive)
REMARK    1  A    between atoms: C_1  and  C_2
REMARK    2  A    between atoms: C_6  and  C_7
REMARK    3  A    between atoms: C_7  and  C_8
REMARK    4  A    between atoms: C_8  and  N_9
REMARK    5  A    between atoms: N_9  and  S_10
REMARK    6  A    between atoms: S_10  and  C_13
REMARK    7  A    between atoms: C_22  and  C_26
REMARK                            x       y       z     vdW  Elec       q    Type
REMARK                         _______ _______ _______ _____ _____    ______ ____
ROOT
ATOM      1  C   UNL     1      -3.949  -0.230   5.223  0.00  0.00    +0.107 A 
ATOM      2  C   UNL     1      -4.815  -0.489   4.176  0.00  0.00    +0.030 A 
ATOM      3  C   UNL     1      -5.706  -1.530   4.280  0.00  0.00    +0.018 A 
ATOM      4  C   UNL     1      -5.768  -2.335   5.427  0.00  0.00    +0.029 A 
ATOM      5  C   UNL     1      -4.902  -2.076   6.479  0.00  0.00    +0.049 A 
ATOM      6  C   UNL     1      -3.998  -1.008   6.354  0.00  0.00    +0.053 A 
ATOM      7  N   UNL     1      -4.828  -2.751   7.669  0.00  0.00    -0.284 N 
ATOM      8  C   UNL     1      -5.226  -3.832   8.241  0.00  0.00    +0.221 C 
ATOM      9  O   UNL     1      -4.659  -4.109   9.277  0.00  0.00    -0.275 OA
ATOM     10  C   UNL     1      -6.280  -4.793   7.818  0.00  0.00    +0.082 C 
ATOM     11  C   UNL     1      -6.300  -5.001   6.331  0.00  0.00    +0.087 C 
ATOM     12  S   UNL     1      -6.957  -3.614   5.417  0.00  0.00    -0.123 S 
ATOM     13  C   UNL     1      -6.028  -6.138   8.503  0.00  0.00    +0.018 C 
ATOM     14  H   UNL     1      -4.291  -2.238   8.294  0.00  0.00    +0.155 HD
ENDROOT
BRANCH   1  15
ATOM     15  S   UNL     1      -2.794   1.096   5.110  0.00  0.00    +0.058 S 
ATOM     16  O   UNL     1      -2.476   1.473   6.443  0.00  0.00    -0.153 OA
ATOM     17  O   UNL     1      -3.323   2.016   4.165  0.00  0.00    -0.153 OA
BRANCH  15  18
ATOM     18  N   UNL     1      -1.406   0.482   4.448  0.00  0.00    -0.190 NA
ATOM     19  H   UNL     1      -0.590   0.456   4.971  0.00  0.00    +0.148 HD
BRANCH  18  20
ATOM     20  C   UNL     1      -1.412  -0.023   3.073  0.00  0.00    +0.111 C 
BRANCH  20  21
ATOM     21  C   UNL     1       0.028  -0.179   2.581  0.00  0.00    +0.059 C 
BRANCH  21  27
ATOM     22  C   UNL     1      -0.018   1.503   0.010  0.00  0.00    +0.044 C 
ATOM     23  C   UNL     1       0.002  -0.004   0.002  0.00  0.00    -0.040 A 
ATOM     24  C   UNL     1      -0.005  -0.699  -1.193  0.00  0.00    +0.011 A 
ATOM     25  C   UNL     1       0.019  -2.054  -1.165  0.00  0.00    +0.046 A 
ATOM     26  S   UNL     1       0.040  -2.387   0.589  0.00  0.00    -0.101 S 
ATOM     27  C   UNL     1       0.023  -0.698   1.166  0.00  0.00    -0.006 A 
ENDBRANCH  21  27
ENDBRANCH  20  21
ENDBRANCH  18  20
ENDBRANCH  15  18
ENDBRANCH   1  15
TORSDOF 5
