REMARK  Name = ZINC00987290
REMARK  8 active torsions:
REMARK  status: ('A' for Active; 'I' for Inactive)
REMARK    1  A    between atoms: C_1  and  C_2
REMARK    2  A    between atoms: C_2  and  C_37
REMARK    3  A    between atoms: C_10  and  S_14
REMARK    4  A    between atoms: S_14  and  C_15
REMARK    5  A    between atoms: C_15  and  C_16
REMARK    6  A    between atoms: N_18  and  C_19
REMARK    7  A    between atoms: C_19  and  C_20
REMARK    8  A    between atoms: C_19  and  C_26
REMARK                            x       y       z     vdW  Elec       q    Type
REMARK                         _______ _______ _______ _____ _____    ______ ____
ROOT
ATOM      1  C   UNL     1       2.443  -4.276  -0.187  0.00  0.00    +0.041 C 
ATOM      2  C   UNL     1       2.420  -2.769  -0.449  0.00  0.00    +0.070 C 
ATOM      3  C   UNL     1       1.071  -2.193  -0.014  0.00  0.00    +0.090 C 
ATOM      4  C   UNL     1       1.136  -0.686  -0.014  0.00  0.00    +0.051 A 
ATOM      5  C   UNL     1       2.348  -0.020  -0.025  0.00  0.00    +0.000 A 
ATOM      6  C   UNL     1       2.377   1.361  -0.016  0.00  0.00    +0.020 A 
ATOM      7  C   UNL     1       1.162   2.079   0.002  0.00  0.00    +0.034 A 
ATOM      8  C   UNL     1       0.977   3.542   0.014  0.00  0.00    +0.092 A 
ATOM      9  C   UNL     1      -0.349   3.991   0.030  0.00  0.00    +0.072 A 
ATOM     10  C   UNL     1      -0.642   5.349   0.042  0.00  0.00    +0.115 A 
ATOM     11  N   UNL     1       0.372   6.215   0.039  0.00  0.00    -0.228 NA
ATOM     12  C   UNL     1       1.617   5.774   0.024  0.00  0.00    +0.223 A 
ATOM     13  N   UNL     1       1.929   4.502   0.012  0.00  0.00    -0.234 NA
ATOM     14  S   UNL     1      -1.323   2.512   0.035  0.00  0.00    -0.064 S 
ATOM     15  C   UNL     1      -0.016   1.310   0.009  0.00  0.00    +0.111 A 
ATOM     16  N   UNL     1       0.002  -0.004   0.002  0.00  0.00    -0.244 NA
ATOM     17  C   UNL     1       3.656  -0.767  -0.051  0.00  0.00    +0.197 C 
ATOM     18  O   UNL     1       3.452  -2.132   0.312  0.00  0.00    -0.369 OA
ATOM     19  C   UNL     1       2.636  -2.502  -1.940  0.00  0.00    +0.041 C 
ENDROOT
BRANCH  10  20
ATOM     20  S   UNL     1      -2.311   5.913   0.060  0.00  0.00    -0.095 S 
BRANCH  20  21
ATOM     21  C   UNL     1      -2.038   7.702   0.071  0.00  0.00    +0.171 C 
BRANCH  21  22
ATOM     22  C   UNL     1      -3.367   8.413   0.088  0.00  0.00    +0.224 C 
ATOM     23  O   UNL     1      -4.397   7.773   0.092  0.00  0.00    -0.275 OA
ATOM     24  N   UNL     1      -3.410   9.760   0.098  0.00  0.00    -0.304 N 
ATOM     25  H   UNL     1      -2.587  10.272   0.094  0.00  0.00    +0.150 HD
BRANCH  24  26
ATOM     26  C   UNL     1      -4.702  10.451   0.114  0.00  0.00    +0.134 C 
BRANCH  26  27
ATOM     27  C   UNL     1      -4.532  11.819   0.723  0.00  0.00    -0.023 A 
ATOM     28  C   UNL     1      -3.410  12.572   0.430  0.00  0.00    +0.006 A 
ATOM     29  C   UNL     1      -3.257  13.829   0.984  0.00  0.00    +0.000 A 
ATOM     30  C   UNL     1      -4.221  14.329   1.840  0.00  0.00    +0.000 A 
ATOM     31  C   UNL     1      -5.340  13.574   2.137  0.00  0.00    +0.000 A 
ATOM     32  C   UNL     1      -5.496  12.319   1.578  0.00  0.00    +0.006 A 
ENDBRANCH  26  27
BRANCH  26  33
ATOM     33  C   UNL     1      -5.216  10.589  -1.296  0.00  0.00    -0.023 A 
ATOM     34  C   UNL     1      -4.344  10.905  -2.322  0.00  0.00    +0.006 A 
ATOM     35  C   UNL     1      -4.815  11.027  -3.616  0.00  0.00    +0.000 A 
ATOM     36  C   UNL     1      -6.158  10.842  -3.883  0.00  0.00    +0.000 A 
ATOM     37  C   UNL     1      -7.031  10.532  -2.857  0.00  0.00    +0.000 A 
ATOM     38  C   UNL     1      -6.560  10.405  -1.563  0.00  0.00    +0.006 A 
ENDBRANCH  26  33
ENDBRANCH  24  26
ENDBRANCH  21  22
ENDBRANCH  20  21
ENDBRANCH  10  20
TORSDOF 6
