REMARK  Name = ZINC59104004
REMARK  8 active torsions:
REMARK  status: ('A' for Active; 'I' for Inactive)
REMARK    1  A    between atoms: C_1  and  C_2
REMARK    2  A    between atoms: C_2  and  N_3
REMARK    3  A    between atoms: N_3  and  C_4
REMARK    4  A    between atoms: N_3  and  C_6
REMARK    5  A    between atoms: C_4  and  C_5
REMARK    6  A    between atoms: C_9  and  C_13
REMARK    7  A    between atoms: C_10  and  O_12
REMARK    8  A    between atoms: C_18  and  C_22
REMARK                            x       y       z     vdW  Elec       q    Type
REMARK                         _______ _______ _______ _____ _____    ______ ____
ROOT
ATOM      1  C   UNL     1       6.218  -1.335   0.967  0.00  0.00    +0.033 C 
ATOM      2  C   UNL     1       6.986  -0.637   0.051  0.00  0.00    +0.144 C 
ATOM      3  C   UNL     1       6.431   0.433  -0.820  0.00  0.00    +0.349 C 
ATOM      4  O   UNL     1       5.544   1.180  -0.454  0.00  0.00    -0.245 OA
ATOM      5  O   UNL     1       6.993   0.514  -2.058  0.00  0.00    -0.417 OA
ATOM      6  C   UNL     1       8.423   0.454  -2.091  0.00  0.00    +0.402 C 
ATOM      7  O   UNL     1       8.879  -0.731  -1.427  0.00  0.00    -0.417 OA
ATOM      8  C   UNL     1       8.438  -0.887  -0.144  0.00  0.00    +0.349 C 
ATOM      9  O   UNL     1       9.175  -1.208   0.769  0.00  0.00    -0.245 OA
ENDROOT
BRANCH   1  13
ATOM     10  C   UNL     1       2.062  -0.824   1.032  0.00  0.00    +0.033 A 
ATOM     11  C   UNL     1       2.756  -0.782  -0.179  0.00  0.00    +0.024 A 
ATOM     12  C   UNL     1       4.108  -0.948  -0.205  0.00  0.00    +0.013 A 
ATOM     13  C   UNL     1       4.813  -1.162   0.991  0.00  0.00    +0.018 A 
ATOM     14  C   UNL     1       4.115  -1.205   2.216  0.00  0.00    +0.126 A 
ATOM     15  C   UNL     1       2.744  -1.030   2.226  0.00  0.00    +0.069 A 
BRANCH  14  16
ATOM     16  O   UNL     1       4.785  -1.411   3.376  0.00  0.00    -0.506 OA
ATOM     17  H   UNL     1       5.087  -0.600   3.805  0.00  0.00    +0.292 HD
ENDBRANCH  14  16
BRANCH  10  18
ATOM     18  N   UNL     1       0.684  -0.653   1.044  0.00  0.00    -0.330 N 
BRANCH  18  20
ATOM     19  C   UNL     1      -0.113   1.063  -0.505  0.00  0.00    +0.024 C 
ATOM     20  C   UNL     1      -0.038  -0.436  -0.212  0.00  0.00    +0.102 C 
ENDBRANCH  18  20
BRANCH  18  21
ATOM     21  C   UNL     1      -0.047  -0.691   2.313  0.00  0.00    +0.102 C 
ATOM     22  C   UNL     1      -0.479  -2.128   2.610  0.00  0.00    +0.024 C 
ENDBRANCH  18  21
ENDBRANCH  10  18
ENDBRANCH   1  13
BRANCH   6  23
ATOM     23  C   UNL     1       8.891   0.435  -3.524  0.00  0.00    +0.033 A 
ATOM     24  C   UNL     1       7.968   0.480  -4.552  0.00  0.00    +0.011 A 
ATOM     25  C   UNL     1       8.397   0.462  -5.866  0.00  0.00    +0.001 A 
ATOM     26  C   UNL     1       9.748   0.400  -6.152  0.00  0.00    +0.000 A 
ATOM     27  C   UNL     1      10.670   0.356  -5.123  0.00  0.00    +0.001 A 
ATOM     28  C   UNL     1      10.242   0.378  -3.809  0.00  0.00    +0.011 A 
ENDBRANCH   6  23
TORSDOF 6
