REMARK  Name = ZINC32971929
REMARK  15 active torsions:
REMARK  status: ('A' for Active; 'I' for Inactive)
REMARK    1  A    between atoms: C_1  and  C_2
REMARK    2  A    between atoms: C_10  and  C_11
REMARK    3  A    between atoms: N_13  and  C_14
REMARK    4  A    between atoms: N_13  and  C_15
REMARK    5  A    between atoms: C_15  and  C_16
REMARK    6  A    between atoms: N_18  and  C_19
REMARK    7  A    between atoms: N_18  and  C_23
REMARK    8  A    between atoms: C_19  and  C_20
REMARK    9  A    between atoms: C_20  and  C_21
REMARK   10  A    between atoms: C_20  and  C_22
REMARK   11  A    between atoms: C_24  and  N_36
REMARK   12  A    between atoms: N_25  and  C_32
REMARK   13  A    between atoms: C_32  and  C_33
REMARK   14  A    between atoms: C_33  and  C_34
REMARK   15  A    between atoms: C_33  and  C_35
REMARK                            x       y       z     vdW  Elec       q    Type
REMARK                         _______ _______ _______ _____ _____    ______ ____
ROOT
ATOM      1  C   UNL     1       0.620   1.006   0.407  0.00  0.00    +0.237 C 
ATOM      2  O   UNL     1       1.004  -0.112   0.132  0.00  0.00    -0.274 OA
ATOM      3  N   UNL     1       1.515   1.996   0.606  0.00  0.00    -0.263 N 
ENDROOT
BRANCH   3   4
ATOM      4  C   UNL     1       2.896   1.710   0.603  0.00  0.00    +0.140 A 
ATOM      5  C   UNL     1       3.432   0.828   1.519  0.00  0.00    +0.127 A 
ATOM      6  N   UNL     1       4.783   0.569   1.491  0.00  0.00    -0.280 N 
ATOM      7  C   UNL     1       5.572   1.169   0.582  0.00  0.00    +0.331 A 
ATOM      8  O   UNL     1       6.764   0.928   0.574  0.00  0.00    -0.246 OA
ATOM      9  N   UNL     1       5.068   2.032  -0.318  0.00  0.00    -0.273 N 
ATOM     10  H   UNL     1       5.732   2.515  -1.049  0.00  0.00    +0.173 HD
ATOM     11  C   UNL     1       3.751   2.316  -0.337  0.00  0.00    +0.277 A 
ATOM     12  O   UNL     1       3.303   3.095  -1.161  0.00  0.00    -0.266 OA
BRANCH   5  13
ATOM     13  N   UNL     1       2.626   0.215   2.447  0.00  0.00    -0.343 N 
ATOM     14  H   UNL     1       3.060  -0.488   3.174  0.00  0.00    +0.144 HD
ATOM     15  H   UNL     1       1.547   0.426   2.464  0.00  0.00    +0.144 HD
ENDBRANCH   5  13
BRANCH   6  16
ATOM     16  C   UNL     1       5.365  -0.366   2.457  0.00  0.00    +0.131 C 
BRANCH  16  17
ATOM     17  C   UNL     1       5.341  -1.781   1.875  0.00  0.00    +0.003 C 
ATOM     18  C   UNL     1       6.060  -2.737   2.829  0.00  0.00    +0.009 C 
ATOM     19  C   UNL     1       3.890  -2.234   1.697  0.00  0.00    +0.009 C 
ENDBRANCH  16  17
ENDBRANCH   6  16
ENDBRANCH   3   4
BRANCH   1  20
ATOM     20  C   UNL     1      -0.856   1.289   0.520  0.00  0.00    +0.204 C 
BRANCH  20  23
ATOM     21  C   UNL     1      -1.993  -0.236  -1.003  0.00  0.00    +0.282 C 
ATOM     22  O   UNL     1      -1.629   0.462  -1.931  0.00  0.00    -0.267 OA
ATOM     23  N   UNL     1      -1.610   0.062   0.255  0.00  0.00    -0.289 N 
ATOM     24  C   UNL     1      -1.949  -0.842   1.357  0.00  0.00    +0.133 C 
BRANCH  21  34
ATOM     25  C   UNL     1      -2.793  -1.296  -3.815  0.00  0.00    +0.048 C 
ATOM     26  C   UNL     1      -3.201  -1.866  -2.481  0.00  0.00    +0.008 A 
ATOM     27  C   UNL     1      -4.051  -3.033  -2.246  0.00  0.00    +0.025 A 
ATOM     28  C   UNL     1      -4.717  -3.936  -3.079  0.00  0.00    +0.012 A 
ATOM     29  C   UNL     1      -5.457  -4.944  -2.530  0.00  0.00    +0.002 A 
ATOM     30  C   UNL     1      -5.552  -5.078  -1.152  0.00  0.00    +0.024 A 
ATOM     31  C   UNL     1      -4.902  -4.198  -0.312  0.00  0.00    +0.084 A 
ATOM     32  C   UNL     1      -4.143  -3.163  -0.849  0.00  0.00    +0.154 A 
ATOM     33  O   UNL     1      -3.413  -2.172  -0.298  0.00  0.00    -0.448 OA
ATOM     34  C   UNL     1      -2.850  -1.403  -1.254  0.00  0.00    +0.194 A 
ATOM     35 CL   UNL     1      -5.032  -4.381   1.409  0.00  0.00    -0.080 Cl
ENDBRANCH  21  34
ENDBRANCH  20  23
ENDBRANCH   1  20
BRANCH   3  36
ATOM     36  C   UNL     1       1.051   3.369   0.825  0.00  0.00    +0.117 C 
BRANCH  36  37
ATOM     37  C   UNL     1       0.864   3.610   2.324  0.00  0.00    +0.001 C 
ATOM     38  C   UNL     1       2.227   3.580   3.020  0.00  0.00    +0.009 C 
ATOM     39  C   UNL     1       0.210   4.976   2.543  0.00  0.00    +0.009 C 
ENDBRANCH  36  37
ENDBRANCH   3  36
TORSDOF 9
