REMARK  Name = ZINC05002936
REMARK  8 active torsions:
REMARK  status: ('A' for Active; 'I' for Inactive)
REMARK    1  A    between atoms: C_1  and  C_2
REMARK    2  A    between atoms: C_7  and  O_10
REMARK    3  A    between atoms: O_10  and  C_11
REMARK    4  A    between atoms: C_11  and  C_13
REMARK    5  A    between atoms: C_14  and  C_29
REMARK    6  A    between atoms: C_19  and  C_21
REMARK    7  A    between atoms: C_24  and  O_27
REMARK    8  A    between atoms: O_27  and  C_28
REMARK                            x       y       z     vdW  Elec       q    Type
REMARK                         _______ _______ _______ _____ _____    ______ ____
ROOT
ATOM      1  C   UNL     1       1.849  -4.368   3.917  0.00  0.00    +0.078 C 
ATOM      2  C   UNL     1       1.283  -5.383   4.606  0.00  0.00    +0.021 C 
ATOM      3  N   UNL     1       1.764  -5.760   5.827  0.00  0.00    -0.273 N 
ATOM      4  C   UNL     1       2.806  -5.173   6.429  0.00  0.00    +0.304 C 
ATOM      5  O   UNL     1       3.162  -5.579   7.518  0.00  0.00    -0.252 OA
ATOM      6  N   UNL     1       3.474  -4.147   5.866  0.00  0.00    -0.288 N 
ATOM      7  C   UNL     1       3.038  -3.667   4.544  0.00  0.00    +0.143 C 
ATOM      8  C   UNL     1       0.102  -6.110   4.017  0.00  0.00    +0.061 C 
ATOM      9  H   UNL     1       1.325  -6.495   6.285  0.00  0.00    +0.156 HD
ATOM     10  H   UNL     1       4.226  -3.736   6.320  0.00  0.00    +0.151 HD
ENDROOT
BRANCH   7  11
ATOM     11  C   UNL     1       2.699  -2.205   4.673  0.00  0.00    -0.022 A 
ATOM     12  C   UNL     1       1.914  -1.769   5.725  0.00  0.00    +0.009 A 
ATOM     13  C   UNL     1       1.602  -0.428   5.846  0.00  0.00    +0.046 A 
ATOM     14  C   UNL     1       2.077   0.480   4.911  0.00  0.00    +0.120 A 
ATOM     15  C   UNL     1       2.865   0.041   3.858  0.00  0.00    +0.046 A 
ATOM     16  C   UNL     1       3.179  -1.300   3.744  0.00  0.00    +0.009 A 
BRANCH  14  17
ATOM     17  O   UNL     1       1.771   1.800   5.028  0.00  0.00    -0.495 OA
ATOM     18  C   UNL     1       2.295   2.678   4.030  0.00  0.00    +0.277 C 
ENDBRANCH  14  17
ENDBRANCH   7  11
BRANCH   1  19
ATOM     19  C   UNL     1       1.353  -3.977   2.652  0.00  0.00    +0.339 C 
ATOM     20  O   UNL     1       0.475  -4.627   2.115  0.00  0.00    -0.245 OA
BRANCH  19  21
ATOM     21  O   UNL     1       1.852  -2.882   2.040  0.00  0.00    -0.458 OA
BRANCH  21  27
ATOM     22  C   UNL     1       0.853   0.846  -1.002  0.00  0.00    +0.007 C 
ATOM     23  C   UNL     1       0.785  -0.669  -0.802  0.00  0.00    -0.011 C 
ATOM     24  C   UNL     1       1.589  -1.365  -1.902  0.00  0.00    +0.003 C 
ATOM     25  C   UNL     1       1.522  -2.881  -1.702  0.00  0.00    +0.004 C 
ATOM     26  C   UNL     1       2.108  -3.241  -0.336  0.00  0.00    +0.045 C 
ATOM     27  C   UNL     1       1.304  -2.545   0.764  0.00  0.00    +0.177 C 
ATOM     28  C   UNL     1       1.372  -1.030   0.564  0.00  0.00    +0.048 C 
ENDBRANCH  21  27
ENDBRANCH  19  21
ENDBRANCH   1  19
TORSDOF 5
