REMARK  Name = ZINC49392446
REMARK  6 active torsions:
REMARK  status: ('A' for Active; 'I' for Inactive)
REMARK    1  A    between atoms: C_6  and  C_7
REMARK    2  A    between atoms: C_7  and  N_8
REMARK    3  A    between atoms: N_8  and  C_9
REMARK    4  A    between atoms: N_8  and  C_16
REMARK    5  A    between atoms: C_9  and  C_10
REMARK    6  A    between atoms: C_16  and  C_17
REMARK                            x       y       z     vdW  Elec       q    Type
REMARK                         _______ _______ _______ _____ _____    ______ ____
ROOT
ATOM      1  N   UNL     1      -1.669  -0.858  -1.177  0.00  0.00    +0.391 N 
ATOM      2  H   UNL     1      -0.902  -1.434  -1.489  0.00  0.00    -0.080 HD
ENDROOT
BRANCH   1   3
ATOM      3  C   UNL     1      -1.404  -0.390   0.190  0.00  0.00    -0.042 C 
BRANCH   3   9
ATOM      4  C   UNL     1       0.147  -2.123   1.113  0.00  0.00    +0.003 A 
ATOM      5  C   UNL     1       0.408  -3.208   1.929  0.00  0.00    +0.015 A 
ATOM      6  C   UNL     1      -0.599  -3.742   2.712  0.00  0.00    +0.018 A 
ATOM      7  C   UNL     1      -1.867  -3.191   2.679  0.00  0.00    +0.015 A 
ATOM      8  C   UNL     1      -2.127  -2.106   1.863  0.00  0.00    +0.003 A 
ATOM      9  C   UNL     1      -1.120  -1.572   1.080  0.00  0.00    -0.064 A 
ATOM     10 BR   UNL     1      -0.242  -5.227   3.828  0.00  0.00    -0.050 Br
ENDBRANCH   3   9
ENDBRANCH   1   3
BRANCH   1  11
ATOM     11  C   UNL     1      -2.910  -1.643  -1.194  0.00  0.00    -0.034 C 
BRANCH  11  12
ATOM     12  C   UNL     1      -3.117  -2.225  -2.568  0.00  0.00    -0.026 A 
ATOM     13  C   UNL     1      -2.700  -3.416  -3.062  0.00  0.00    +0.010 A 
ATOM     14  C   UNL     1      -3.009  -3.746  -4.369  0.00  0.00    +0.023 A 
ATOM     15  C   UNL     1      -3.721  -2.867  -5.117  0.00  0.00    +0.055 A 
ATOM     16  S   UNL     1      -3.983  -1.528  -3.966  0.00  0.00    -0.088 S 
ATOM     17 BR   UNL     1      -4.294  -3.023  -6.913  0.00  0.00    -0.043 Br
ENDBRANCH  11  12
ENDBRANCH   1  11
BRANCH   1  18
ATOM     18  C   UNL     1      -1.808   0.299  -2.072  0.00  0.00    +0.019 C 
BRANCH  18  19
ATOM     19  C   UNL     1      -0.485   1.012  -2.181  0.00  0.00    +0.194 C 
ATOM     20  O   UNL     1       0.505   0.536  -1.667  0.00  0.00    -0.278 OA
ATOM     21  N   UNL     1      -0.402   2.180  -2.849  0.00  0.00    -0.331 N 
ATOM     22  H   UNL     1      -1.194   2.561  -3.260  0.00  0.00    +0.145 HD
ATOM     23  H   UNL     1       0.449   2.639  -2.919  0.00  0.00    +0.145 HD
ENDBRANCH  18  19
ENDBRANCH   1  18
TORSDOF 6
