REMARK  Name = ZINC25354417
REMARK  3 active torsions:
REMARK  status: ('A' for Active; 'I' for Inactive)
REMARK    1  A    between atoms: C_3  and  C_6
REMARK    2  A    between atoms: C_8  and  C_11
REMARK    3  A    between atoms: C_11  and  N_12
REMARK                            x       y       z     vdW  Elec       q    Type
REMARK                         _______ _______ _______ _____ _____    ______ ____
ROOT
ATOM      1  C   UNL     1       3.567   0.618  -0.029  0.00  0.00    +0.144 A 
ATOM      2  N   UNL     1       4.385  -0.428  -0.048  0.00  0.00    -0.240 NA
ATOM      3  C   UNL     1       5.689  -0.272  -0.059  0.00  0.00    +0.063 A 
ATOM      4  C   UNL     1       6.222   0.978  -0.051  0.00  0.00    +0.072 A 
ATOM      5  S   UNL     1       4.735   1.972  -0.034  0.00  0.00    -0.072 S 
ENDROOT
BRANCH   1   8
ATOM      6  C   UNL     1      -0.016   1.344   0.009  0.00  0.00    +0.042 A 
ATOM      7  C   UNL     1       1.324   1.776  -0.001  0.00  0.00    +0.052 A 
ATOM      8  C   UNL     1       2.097   0.654  -0.015  0.00  0.00    +0.160 A 
ATOM      9  O   UNL     1       1.279  -0.418  -0.012  0.00  0.00    -0.461 OA
ATOM     10  C   UNL     1       0.002  -0.004   0.002  0.00  0.00    +0.196 A 
ENDBRANCH   1   8
BRANCH   3  11
ATOM     11  C   UNL     1       6.592  -1.478  -0.080  0.00  0.00    +0.140 C 
BRANCH  11  12
ATOM     12  N   UNL     1       6.802  -1.956   1.293  0.00  0.00    -0.292 NA
ATOM     13  C   UNL     1       7.881  -2.953   1.344  0.00  0.00    +0.090 C 
ATOM     14  C   UNL     1       8.340  -3.112   2.804  0.00  0.00    +0.058 C 
ATOM     15  C   UNL     1       7.118  -3.245   3.653  0.00  0.00    -0.005 A 
ATOM     16  C   UNL     1       5.836  -2.970   3.282  0.00  0.00    -0.023 A 
ATOM     17  C   UNL     1       4.852  -3.172   4.246  0.00  0.00    +0.013 A 
ATOM     18  C   UNL     1       5.193  -3.618   5.478  0.00  0.00    +0.046 A 
ATOM     19  S   UNL     1       6.967  -3.778   5.334  0.00  0.00    -0.101 S 
ATOM     20  C   UNL     1       5.552  -2.467   1.869  0.00  0.00    +0.120 C 
ENDBRANCH  11  12
ENDBRANCH   3  11
TORSDOF 3
