REMARK  Name = ZINC63165331
REMARK  8 active torsions:
REMARK  status: ('A' for Active; 'I' for Inactive)
REMARK    1  A    between atoms: C_1  and  C_2
REMARK    2  A    between atoms: C_2  and  O_3
REMARK    3  A    between atoms: O_3  and  C_4
REMARK    4  A    between atoms: C_7  and  N_10
REMARK    5  A    between atoms: C_11  and  C_28
REMARK    6  A    between atoms: C_15  and  S_17
REMARK    7  A    between atoms: S_17  and  C_18
REMARK    8  A    between atoms: C_18  and  C_19
REMARK                            x       y       z     vdW  Elec       q    Type
REMARK                         _______ _______ _______ _____ _____    ______ ____
ROOT
ATOM      1  N   UNL     1       1.062  -5.859  -1.944  0.00  0.00    -0.284 N 
ATOM      2  C   UNL     1       1.753  -6.569  -3.035  0.00  0.00    +0.188 C 
ATOM      3  N   UNL     1       1.547  -8.016  -2.795  0.00  0.00    -0.230 NA
ATOM      4  N   UNL     1       1.278  -8.112  -1.351  0.00  0.00    -0.226 NA
ATOM      5  C   UNL     1       0.469  -6.899  -1.078  0.00  0.00    +0.217 C 
ATOM      6  H   UNL     1       2.369  -8.545  -3.046  0.00  0.00    +0.143 HD
ATOM      7  H   UNL     1       2.137  -8.096  -0.822  0.00  0.00    +0.143 HD
ENDROOT
BRANCH   2   8
ATOM      8  C   UNL     1       1.160  -6.176  -4.363  0.00  0.00    -0.010 A 
ATOM      9  C   UNL     1       0.186  -5.196  -4.423  0.00  0.00    +0.007 A 
ATOM     10  C   UNL     1      -0.358  -4.835  -5.641  0.00  0.00    +0.002 A 
ATOM     11  C   UNL     1       0.070  -5.453  -6.800  0.00  0.00    +0.020 A 
ATOM     12  C   UNL     1       1.044  -6.434  -6.742  0.00  0.00    +0.041 A 
ATOM     13  C   UNL     1       1.593  -6.791  -5.523  0.00  0.00    +0.026 A 
ATOM     14 CL   UNL     1       1.583  -7.211  -8.197  0.00  0.00    -0.084 Cl
ENDBRANCH   2   8
BRANCH   1  18
ATOM     15  C   UNL     1       0.844  -1.733  -1.398  0.00  0.00    +0.121 A 
ATOM     16  C   UNL     1       0.129  -2.581  -0.565  0.00  0.00    +0.047 A 
ATOM     17  C   UNL     1       0.201  -3.949  -0.745  0.00  0.00    +0.027 A 
ATOM     18  C   UNL     1       0.989  -4.474  -1.761  0.00  0.00    +0.033 A 
ATOM     19  C   UNL     1       1.704  -3.624  -2.594  0.00  0.00    +0.027 A 
ATOM     20  C   UNL     1       1.626  -2.257  -2.416  0.00  0.00    +0.047 A 
BRANCH  15  21
ATOM     21  O   UNL     1       0.773  -0.387  -1.219  0.00  0.00    -0.492 OA
BRANCH  21  23
ATOM     22  C   UNL     1      -0.007   1.612  -0.107  0.00  0.00    +0.048 C 
ATOM     23  C   UNL     1      -0.052   0.084  -0.151  0.00  0.00    +0.225 C 
ENDBRANCH  21  23
ENDBRANCH  15  21
ENDBRANCH   1  18
BRANCH   5  24
ATOM     24  S   UNL     1      -1.266  -7.184  -1.527  0.00  0.00    -0.118 S 
BRANCH  24  25
ATOM     25  C   UNL     1      -1.175  -7.920  -3.182  0.00  0.00    +0.119 C 
BRANCH  25  26
ATOM     26  C   UNL     1      -2.577  -8.339  -3.631  0.00  0.00    +0.184 C 
ATOM     27  N   UNL     1      -3.482  -7.184  -3.601  0.00  0.00    -0.363 N 
ATOM     28  C   UNL     1      -4.438  -7.458  -2.761  0.00  0.00    +0.060 A 
ATOM     29  C   UNL     1      -5.619  -6.708  -2.312  0.00  0.00    +0.027 A 
ATOM     30  C   UNL     1      -6.453  -7.260  -1.408  0.00  0.00    +0.002 A 
ATOM     31  C   UNL     1      -6.243  -8.540  -0.865  0.00  0.00    +0.002 A 
ATOM     32  C   UNL     1      -5.192  -9.311  -1.208  0.00  0.00    +0.027 A 
ATOM     33  C   UNL     1      -4.216  -8.813  -2.187  0.00  0.00    +0.060 A 
ATOM     34  N   UNL     1      -3.132  -9.325  -2.695  0.00  0.00    -0.363 N 
ATOM     35  H   UNL     1      -3.386  -6.366  -4.114  0.00  0.00    +0.162 HD
ATOM     36  H   UNL     1      -2.760 -10.197  -2.492  0.00  0.00    +0.162 HD
ENDBRANCH  25  26
ENDBRANCH  24  25
ENDBRANCH   5  24
TORSDOF 7
