REMARK  Name = ZINC45865685
REMARK  10 active torsions:
REMARK  status: ('A' for Active; 'I' for Inactive)
REMARK    1  A    between atoms: C_1  and  C_2
REMARK    2  A    between atoms: C_2  and  C_3
REMARK    3  A    between atoms: C_3  and  C_4
REMARK    4  A    between atoms: C_7  and  C_10
REMARK    5  A    between atoms: C_10  and  C_12
REMARK    6  A    between atoms: C_10  and  N_17
REMARK    7  A    between atoms: C_18  and  C_20
REMARK    8  A    between atoms: C_20  and  N_21
REMARK    9  A    between atoms: C_24  and  C_28
REMARK   10  A    between atoms: C_24  and  C_29
REMARK                            x       y       z     vdW  Elec       q    Type
REMARK                         _______ _______ _______ _____ _____    ______ ____
ROOT
ATOM      1  N   UNL     1       0.324  -6.763  -2.587  0.00  0.00    -0.303 N 
ATOM      2  C   UNL     1       0.705  -7.977  -3.031  0.00  0.00    +0.232 C 
ATOM      3  O   UNL     1       1.440  -8.666  -2.356  0.00  0.00    -0.274 OA
ATOM      4  H   UNL     1      -0.263  -6.211  -3.127  0.00  0.00    +0.150 HD
ENDROOT
BRANCH   1   5
ATOM      5  C   UNL     1       0.797  -6.276  -1.289  0.00  0.00    +0.140 C 
BRANCH   5   9
ATOM      6  C   UNL     1       0.739  -2.004  -1.265  0.00  0.00    -0.047 A 
ATOM      7  C   UNL     1       1.788  -2.685  -0.675  0.00  0.00    +0.004 A 
ATOM      8  C   UNL     1       1.806  -4.067  -0.683  0.00  0.00    +0.006 A 
ATOM      9  C   UNL     1       0.776  -4.769  -1.280  0.00  0.00    -0.022 A 
ATOM     10  C   UNL     1      -0.273  -4.088  -1.869  0.00  0.00    +0.006 A 
ATOM     11  C   UNL     1      -0.294  -2.706  -1.858  0.00  0.00    +0.004 A 
BRANCH   6  12
ATOM     12  C   UNL     1       0.718  -0.497  -1.257  0.00  0.00    +0.035 C 
BRANCH  12  14
ATOM     13  C   UNL     1      -0.019   1.526   0.010  0.00  0.00    +0.004 C 
ATOM     14  C   UNL     1       0.002  -0.004   0.002  0.00  0.00    +0.001 C 
ENDBRANCH  12  14
ENDBRANCH   6  12
ENDBRANCH   5   9
BRANCH   5  15
ATOM     15  C   UNL     1      -0.103  -6.797  -0.199  0.00  0.00    +0.014 A 
ATOM     16  C   UNL     1       0.226  -7.252   1.035  0.00  0.00    +0.013 A 
ATOM     17  C   UNL     1      -0.779  -7.686   1.879  0.00  0.00    +0.008 A 
ATOM     18  C   UNL     1      -2.064  -7.644   1.449  0.00  0.00    +0.045 A 
ATOM     19  S   UNL     1      -1.880  -6.969  -0.194  0.00  0.00    -0.099 S 
ENDBRANCH   5  15
ENDBRANCH   1   5
BRANCH   2  20
ATOM     20  C   UNL     1       0.219  -8.478  -4.367  0.00  0.00    +0.213 C 
BRANCH  20  21
ATOM     21  N   UNL     1       0.770  -9.812  -4.618  0.00  0.00    -0.215 N 
ATOM     22  C   UNL     1       1.944 -10.041  -5.238  0.00  0.00    +0.251 C 
ATOM     23  O   UNL     1       2.715  -9.214  -5.677  0.00  0.00    -0.272 OA
ATOM     24  C   UNL     1       2.102 -11.549  -5.272  0.00  0.00    +0.135 C 
ATOM     25  N   UNL     1       0.884 -12.039  -4.604  0.00  0.00    -0.281 N 
ATOM     26  C   UNL     1       0.173 -10.952  -4.255  0.00  0.00    +0.310 C 
ATOM     27  O   UNL     1      -0.895 -11.001  -3.676  0.00  0.00    -0.252 OA
ATOM     28  C   UNL     1       2.163 -12.051  -6.716  0.00  0.00    +0.047 C 
ATOM     29  H   UNL     1       0.643 -12.965  -4.446  0.00  0.00    +0.152 HD
BRANCH  24  30
ATOM     30  C   UNL     1       3.331 -11.970  -4.510  0.00  0.00    -0.015 A 
ATOM     31  C   UNL     1       4.421 -11.123  -4.434  0.00  0.00    +0.009 A 
ATOM     32  C   UNL     1       5.549 -11.509  -3.735  0.00  0.00    +0.039 A 
ATOM     33  C   UNL     1       5.587 -12.744  -3.110  0.00  0.00    +0.123 A 
ATOM     34  C   UNL     1       4.495 -13.592  -3.187  0.00  0.00    +0.039 A 
ATOM     35  C   UNL     1       3.366 -13.202  -3.882  0.00  0.00    +0.009 A 
ATOM     36  F   UNL     1       6.689 -13.123  -2.426  0.00  0.00    -0.205 F 
ENDBRANCH  24  30
ENDBRANCH  20  21
ENDBRANCH   2  20
TORSDOF 8
