REMARK  Name = ZINC13045851
REMARK  13 active torsions:
REMARK  status: ('A' for Active; 'I' for Inactive)
REMARK    1  A    between atoms: C_1  and  C_2
REMARK    2  A    between atoms: C_2  and  C_3
REMARK    3  A    between atoms: C_3  and  C_5
REMARK    4  A    between atoms: C_3  and  C_6
REMARK    5  A    between atoms: C_9  and  N_12
REMARK    6  A    between atoms: C_13  and  C_15
REMARK    7  A    between atoms: C_15  and  C_17
REMARK    8  A    between atoms: C_15  and  S_18
REMARK    9  A    between atoms: S_18  and  C_19
REMARK   10  A    between atoms: C_23  and  C_33
REMARK   11  A    between atoms: N_29  and  C_30
REMARK   12  A    between atoms: C_30  and  C_31
REMARK   13  A    between atoms: C_31  and  O_32
REMARK                            x       y       z     vdW  Elec       q    Type
REMARK                         _______ _______ _______ _____ _____    ______ ____
ROOT
ATOM      1  C   UNL     1       3.947   2.067   0.617  0.00  0.00    +0.173 A 
ATOM      2  N   UNL     1       3.702   3.307   0.272  0.00  0.00    -0.223 NA
ATOM      3  C   UNL     1       4.670   4.252   0.291  0.00  0.00    +0.080 A 
ATOM      4  C   UNL     1       4.405   5.576  -0.071  0.00  0.00    +0.043 A 
ATOM      5  C   UNL     1       5.433   6.511  -0.041  0.00  0.00    +0.065 A 
ATOM      6  C   UNL     1       6.725   6.135   0.349  0.00  0.00    +0.016 A 
ATOM      7  C   UNL     1       6.995   4.845   0.704  0.00  0.00    +0.016 A 
ATOM      8  C   UNL     1       5.979   3.890   0.682  0.00  0.00    +0.065 A 
ATOM      9  C   UNL     1       6.227   2.489   1.058  0.00  0.00    +0.262 A 
ATOM     10  O   UNL     1       7.332   2.114   1.403  0.00  0.00    -0.267 OA
ATOM     11  N   UNL     1       5.181   1.632   1.007  0.00  0.00    -0.285 N 
ENDROOT
BRANCH   5  12
ATOM     12  C   UNL     1       5.160   7.914  -0.424  0.00  0.00    +0.387 C 
ATOM     13  O   UNL     1       4.042   8.245  -0.762  0.00  0.00    -0.241 OA
ATOM     14  O   UNL     1       6.152   8.824  -0.396  0.00  0.00    -0.241 OA
ENDBRANCH   5  12
BRANCH   1  15
ATOM     15  S   UNL     1       2.623   0.904   0.568  0.00  0.00    -0.075 S 
BRANCH  15  16
ATOM     16  C   UNL     1       1.280   1.980   0.007  0.00  0.00    +0.137 C 
ATOM     17  C   UNL     1       1.580   2.474  -1.409  0.00  0.00    +0.029 C 
BRANCH  16  19
ATOM     18  N   UNL     1      -1.191   1.867   0.018  0.00  0.00    -0.285 N 
ATOM     19  C   UNL     1      -0.014   1.209   0.007  0.00  0.00    +0.230 C 
ATOM     20  O   UNL     1       0.002  -0.004  -0.008  0.00  0.00    -0.274 OA
ATOM     21  H   UNL     1      -1.205   2.833   0.098  0.00  0.00    +0.155 HD
BRANCH  18  25
ATOM     22  C   UNL     1      -4.765  -0.252  -0.291  0.00  0.00    -0.044 A 
ATOM     23  C   UNL     1      -3.696  -0.798   0.395  0.00  0.00    +0.006 A 
ATOM     24  C   UNL     1      -2.510  -0.099   0.499  0.00  0.00    +0.023 A 
ATOM     25  C   UNL     1      -2.391   1.155  -0.086  0.00  0.00    +0.033 A 
ATOM     26  C   UNL     1      -3.468   1.704  -0.769  0.00  0.00    +0.023 A 
ATOM     27  C   UNL     1      -4.650   0.997  -0.875  0.00  0.00    +0.006 A 
BRANCH  22  28
ATOM     28  C   UNL     1      -6.058  -1.018  -0.403  0.00  0.00    +0.016 C 
ATOM     29  C   UNL     1      -7.188  -0.206   0.232  0.00  0.00    +0.012 C 
BRANCH  28  31
ATOM     30  C   UNL     1      -7.620  -2.151  -1.989  0.00  0.00    +0.004 C 
ATOM     31  C   UNL     1      -6.376  -1.268  -1.879  0.00  0.00    +0.004 C 
ENDBRANCH  28  31
ENDBRANCH  22  28
ENDBRANCH  18  25
ENDBRANCH  16  19
ENDBRANCH  15  16
ENDBRANCH   1  15
BRANCH  11  32
ATOM     32  C   UNL     1       5.375   0.226   1.371  0.00  0.00    +0.155 C 
BRANCH  32  33
ATOM     33  C   UNL     1       5.765  -0.574   0.128  0.00  0.00    +0.177 C 
BRANCH  33  34
ATOM     34  O   UNL     1       7.038  -0.128  -0.346  0.00  0.00    -0.393 OA
ATOM     35  H   UNL     1       7.349  -0.593  -1.135  0.00  0.00    +0.209 HD
ENDBRANCH  33  34
ENDBRANCH  32  33
ENDBRANCH  11  32
TORSDOF 10
