REMARK  Name = ZINC00709574
REMARK  5 active torsions:
REMARK  status: ('A' for Active; 'I' for Inactive)
REMARK    1  A    between atoms: C_4  and  C_7
REMARK    2  A    between atoms: C_14  and  N_30
REMARK    3  A    between atoms: C_15  and  C_28
REMARK    4  A    between atoms: C_16  and  C_18
REMARK    5  A    between atoms: C_23  and  C_24
REMARK                            x       y       z     vdW  Elec       q    Type
REMARK                         _______ _______ _______ _____ _____    ______ ____
ROOT
ATOM      1  C   UNL     1       3.691  -0.032   0.097  0.00  0.00    +0.100 A 
ATOM      2  C   UNL     1       4.079  -1.260   0.642  0.00  0.00    +0.054 A 
ATOM      3  C   UNL     1       5.394  -1.461   0.336  0.00  0.00    +0.223 A 
ATOM      4  N   UNL     1       5.817  -0.397  -0.377  0.00  0.00    -0.246 N 
ATOM      5  H   UNL     1       6.711  -0.266  -0.730  0.00  0.00    +0.192 HD
ATOM      6  N   UNL     1       4.735   0.486  -0.521  0.00  0.00    -0.171 NA
ATOM      7  O   UNL     1       6.073  -2.570   0.721  0.00  0.00    -0.423 OA
ATOM      8  C   UNL     1       5.356  -3.613   1.186  0.00  0.00    +0.200 C 
ATOM      9  C   UNL     1       4.052  -3.533   1.535  0.00  0.00    +0.098 C 
ATOM     10  C   UNL     1       3.268  -2.248   1.439  0.00  0.00    +0.102 C 
ENDROOT
BRANCH   1  14
ATOM     11  C   UNL     1      -0.177   1.714   0.364  0.00  0.00    +0.000 A 
ATOM     12  C   UNL     1       0.947   2.499   0.542  0.00  0.00    +0.001 A 
ATOM     13  C   UNL     1       2.205   1.938   0.457  0.00  0.00    +0.010 A 
ATOM     14  C   UNL     1       2.341   0.577   0.190  0.00  0.00    +0.003 A 
ATOM     15  C   UNL     1       1.205  -0.209   0.012  0.00  0.00    +0.010 A 
ATOM     16  C   UNL     1      -0.048   0.362   0.099  0.00  0.00    +0.001 A 
ENDBRANCH   1  14
BRANCH  10  17
ATOM     17  C   UNL     1       3.015  -1.702   2.821  0.00  0.00    -0.023 A 
ATOM     18  C   UNL     1       1.784  -1.159   3.135  0.00  0.00    +0.005 A 
ATOM     19  C   UNL     1       1.552  -0.658   4.403  0.00  0.00    +0.000 A 
ATOM     20  C   UNL     1       2.552  -0.701   5.356  0.00  0.00    +0.001 A 
ATOM     21  C   UNL     1       3.783  -1.246   5.043  0.00  0.00    +0.012 A 
ATOM     22  C   UNL     1       4.013  -1.750   3.776  0.00  0.00    +0.059 A 
BRANCH  22  23
ATOM     23  C   UNL     1       5.354  -2.349   3.436  0.00  0.00    +0.418 C 
ATOM     24  F   UNL     1       6.230  -2.171   4.511  0.00  0.00    -0.166 F 
ATOM     25  F   UNL     1       5.203  -3.715   3.177  0.00  0.00    -0.166 F 
ATOM     26  F   UNL     1       5.873  -1.714   2.302  0.00  0.00    -0.166 F 
ENDBRANCH  22  23
ENDBRANCH  10  17
BRANCH   8  27
ATOM     27  N   UNL     1       5.986  -4.826   1.313  0.00  0.00    -0.328 N 
ATOM     28  H   UNL     1       6.920  -4.915   1.070  0.00  0.00    +0.145 HD
ATOM     29  H   UNL     1       5.495  -5.595   1.644  0.00  0.00    +0.145 HD
ENDBRANCH   8  27
BRANCH   9  30
ATOM     30  C   UNL     1       3.392  -4.711   2.012  0.00  0.00    +0.101 C 
ATOM     31  N   UNL     1       2.869  -5.645   2.390  0.00  0.00    -0.191 NA
ENDBRANCH   9  30
TORSDOF 5
