REMARK  Name = ZINC36718315
REMARK  16 active torsions:
REMARK  status: ('A' for Active; 'I' for Inactive)
REMARK    1  A    between atoms: C_1  and  C_2
REMARK    2  A    between atoms: C_2  and  O_3
REMARK    3  A    between atoms: O_3  and  C_4
REMARK    4  A    between atoms: N_13  and  C_14
REMARK    5  A    between atoms: C_14  and  C_15
REMARK    6  A    between atoms: C_15  and  C_16
REMARK    7  A    between atoms: C_16  and  N_17
REMARK    8  A    between atoms: N_17  and  C_18
REMARK    9  A    between atoms: N_17  and  C_19
REMARK   10  A    between atoms: C_20  and  C_22
REMARK   11  A    between atoms: C_22  and  C_23
REMARK   12  A    between atoms: C_23  and  C_24
REMARK   13  A    between atoms: C_24  and  S_25
REMARK   14  A    between atoms: S_25  and  C_28
REMARK   15  A    between atoms: C_31  and  O_34
REMARK   16  A    between atoms: O_34  and  C_35
REMARK                            x       y       z     vdW  Elec       q    Type
REMARK                         _______ _______ _______ _____ _____    ______ ____
ROOT
ATOM      1  C   UNL     1       0.777  -1.811  -1.336  0.00  0.00    +0.122 A 
ATOM      2  C   UNL     1       0.244  -2.679  -0.388  0.00  0.00    +0.048 A 
ATOM      3  C   UNL     1       0.338  -4.038  -0.530  0.00  0.00    +0.032 A 
ATOM      4  C   UNL     1       0.985  -4.606  -1.652  0.00  0.00    +0.081 A 
ATOM      5  C   UNL     1       1.515  -3.696  -2.595  0.00  0.00    +0.044 A 
ATOM      6  C   UNL     1       1.412  -2.335  -2.452  0.00  0.00    +0.063 A 
ATOM      7  S   UNL     1       2.220  -4.782  -3.812  0.00  0.00    -0.052 S 
ATOM      8  C   UNL     1       1.783  -6.323  -3.019  0.00  0.00    +0.168 A 
ATOM      9  N   UNL     1       1.161  -5.915  -1.938  0.00  0.00    -0.224 NA
ATOM     10  N   UNL     1       2.035  -7.619  -3.440  0.00  0.00    -0.250 N 
ATOM     11  C   UNL     1       2.697  -7.836  -4.594  0.00  0.00    +0.221 C 
ATOM     12  O   UNL     1       3.071  -6.897  -5.265  0.00  0.00    -0.275 OA
ENDROOT
BRANCH   1  13
ATOM     13  O   UNL     1       0.671  -0.465  -1.174  0.00  0.00    -0.492 OA
BRANCH  13  15
ATOM     14  C   UNL     1      -0.019   1.526   0.010  0.00  0.00    +0.048 C 
ATOM     15  C   UNL     1       0.002  -0.004   0.002  0.00  0.00    +0.225 C 
ENDBRANCH  13  15
ENDBRANCH   1  13
BRANCH  10  16
ATOM     16  C   UNL     1       1.584  -8.753  -2.630  0.00  0.00    +0.114 C 
BRANCH  16  17
ATOM     17  C   UNL     1       0.174  -9.160  -3.063  0.00  0.00    +0.001 C 
BRANCH  17  18
ATOM     18  C   UNL     1      -0.297 -10.345  -2.217  0.00  0.00    -0.078 C 
BRANCH  18  19
ATOM     19  N   UNL     1      -1.651 -10.736  -2.634  0.00  0.00    +0.376 N 
ATOM     20  C   UNL     1      -2.057 -11.945  -1.906  0.00  0.00    -0.097 C 
ATOM     21  C   UNL     1      -2.589  -9.646  -2.334  0.00  0.00    -0.097 C 
ATOM     22  H   UNL     1      -1.657 -10.921  -3.625  0.00  0.00    -0.083 HD
ENDBRANCH  18  19
ENDBRANCH  17  18
ENDBRANCH  16  17
ENDBRANCH  10  16
BRANCH  11  23
ATOM     23  C   UNL     1       2.972  -9.246  -5.051  0.00  0.00    +0.098 C 
BRANCH  23  24
ATOM     24  C   UNL     1       3.730  -9.212  -6.380  0.00  0.00    +0.032 C 
BRANCH  24  25
ATOM     25  C   UNL     1       4.009 -10.643  -6.844  0.00  0.00    +0.172 C 
BRANCH  25  26
ATOM     26  S   UNL     1       4.908 -10.603  -8.419  0.00  0.00    -0.003 S 
ATOM     27  O   UNL     1       4.070 -10.098  -9.449  0.00  0.00    -0.169 OA
ATOM     28  O   UNL     1       6.214 -10.077  -8.224  0.00  0.00    -0.169 OA
BRANCH  26  29
ATOM     29  C   UNL     1       5.164 -12.296  -8.837  0.00  0.00    +0.088 A 
ATOM     30  C   UNL     1       6.302 -12.950  -8.402  0.00  0.00    +0.030 A 
ATOM     31  C   UNL     1       6.504 -14.277  -8.729  0.00  0.00    +0.047 A 
ATOM     32  C   UNL     1       5.565 -14.953  -9.495  0.00  0.00    +0.120 A 
ATOM     33  C   UNL     1       4.424 -14.294  -9.930  0.00  0.00    +0.047 A 
ATOM     34  C   UNL     1       4.224 -12.969  -9.595  0.00  0.00    +0.030 A 
BRANCH  32  35
ATOM     35  O   UNL     1       5.763 -16.258  -9.818  0.00  0.00    -0.495 OA
ATOM     36  C   UNL     1       4.754 -16.890 -10.609  0.00  0.00    +0.277 C 
ENDBRANCH  32  35
ENDBRANCH  26  29
ENDBRANCH  25  26
ENDBRANCH  24  25
ENDBRANCH  23  24
ENDBRANCH  11  23
TORSDOF 12
