REMARK  Name = ZINC40273680
REMARK  3 active torsions:
REMARK  status: ('A' for Active; 'I' for Inactive)
REMARK    1  A    between atoms: C_1  and  C_2
REMARK    2  A    between atoms: C_5  and  C_7
REMARK    3  A    between atoms: C_7  and  C_9
REMARK                            x       y       z     vdW  Elec       q    Type
REMARK                         _______ _______ _______ _____ _____    ______ ____
ROOT
ATOM      1  C   UNL     1       1.777  -4.310  -1.319  0.00  0.00    -0.021 A 
ATOM      2  C   UNL     1       2.935  -3.607  -1.600  0.00  0.00    +0.007 A 
ATOM      3  C   UNL     1       3.614  -3.829  -2.783  0.00  0.00    +0.030 A 
ATOM      4  C   UNL     1       3.131  -4.760  -3.690  0.00  0.00    +0.087 A 
ATOM      5  C   UNL     1       1.964  -5.469  -3.408  0.00  0.00    +0.157 A 
ATOM      6  C   UNL     1       1.293  -5.243  -2.216  0.00  0.00    +0.054 A 
ATOM      7  O   UNL     1       1.733  -6.297  -4.456  0.00  0.00    -0.408 OA
ATOM      8  C   UNL     1       2.702  -6.131  -5.370  0.00  0.00    +0.419 A 
ATOM      9  O   UNL     1       2.780  -6.729  -6.426  0.00  0.00    -0.223 OA
ATOM     10  N   UNL     1       3.574  -5.200  -4.937  0.00  0.00    -0.288 N 
ATOM     11  H   UNL     1       4.365  -4.892  -5.406  0.00  0.00    +0.172 HD
ENDROOT
BRANCH   1  12
ATOM     12  C   UNL     1       1.043  -4.062  -0.027  0.00  0.00    +0.147 C 
ATOM     13 CL   UNL     1       2.175  -4.285   1.359  0.00  0.00    -0.111 Cl
BRANCH  12  18
ATOM     14  C   UNL     1      -0.018   1.503   0.010  0.00  0.00    +0.051 C 
ATOM     15  C   UNL     1       0.002  -0.004   0.002  0.00  0.00    -0.013 A 
ATOM     16  C   UNL     1      -1.039  -0.872   0.002  0.00  0.00    +0.011 A 
ATOM     17  C   UNL     1      -0.780  -2.230  -0.007  0.00  0.00    +0.013 A 
ATOM     18  C   UNL     1       0.507  -2.653  -0.016  0.00  0.00    +0.012 A 
ATOM     19  S   UNL     1       1.404  -1.109  -0.018  0.00  0.00    -0.097 S 
ENDBRANCH  12  18
ENDBRANCH   1  12
TORSDOF 2
