REMARK  Name = ZINC58989882
REMARK  8 active torsions:
REMARK  status: ('A' for Active; 'I' for Inactive)
REMARK    1  A    between atoms: C_4  and  C_7
REMARK    2  A    between atoms: C_8  and  C_9
REMARK    3  A    between atoms: N_10  and  N_11
REMARK    4  A    between atoms: C_12  and  C_14
REMARK    5  A    between atoms: C_14  and  S_15
REMARK    6  A    between atoms: S_15  and  C_16
REMARK    7  A    between atoms: C_19  and  C_22
REMARK    8  A    between atoms: N_20  and  N_21
REMARK                            x       y       z     vdW  Elec       q    Type
REMARK                         _______ _______ _______ _____ _____    ______ ____
ROOT
ATOM      1  S   UNL     1       7.253  -8.556   0.095  0.00  0.00    -0.075 S 
ENDROOT
BRANCH   1   2
ATOM      2  C   UNL     1       8.858  -9.268  -0.052  0.00  0.00    +0.209 A 
ATOM      3  N   UNL     1       9.987  -8.616  -0.223  0.00  0.00    -0.121 NA
ATOM      4  N   UNL     1      10.968  -9.444  -0.289  0.00  0.00    -0.127 NA
ATOM      5  C   UNL     1      10.527 -10.673  -0.164  0.00  0.00    +0.183 A 
ATOM      6  N   UNL     1       9.162 -10.598  -0.003  0.00  0.00    -0.224 N 
BRANCH   5   7
ATOM      7  C   UNL     1      11.342 -11.906  -0.188  0.00  0.00    +0.035 A 
ATOM      8  C   UNL     1      10.953 -12.989  -0.977  0.00  0.00    +0.013 A 
ATOM      9  C   UNL     1      11.718 -14.137  -0.995  0.00  0.00    +0.001 A 
ATOM     10  C   UNL     1      12.870 -14.216  -0.232  0.00  0.00    +0.001 A 
ATOM     11  C   UNL     1      13.262 -13.147   0.553  0.00  0.00    +0.016 A 
ATOM     12  C   UNL     1      12.508 -11.990   0.576  0.00  0.00    +0.029 A 
ATOM     13 BR   UNL     1      13.050 -10.526   1.643  0.00  0.00    -0.050 Br
ENDBRANCH   5   7
BRANCH   6  14
ATOM     14  N   UNL     1       8.293 -11.638   0.169  0.00  0.00    -0.295 N 
ATOM     15  H   UNL     1       8.017 -12.028  -0.720  0.00  0.00    +0.163 HD
ATOM     16  H   UNL     1       8.690 -12.347   0.767  0.00  0.00    +0.163 HD
ENDBRANCH   6  14
ENDBRANCH   1   2
BRANCH   1  17
ATOM     17  C   UNL     1       7.548  -6.773  -0.055  0.00  0.00    +0.174 C 
BRANCH  17  19
ATOM     18  N   UNL     1       6.212  -4.691  -0.029  0.00  0.00    -0.206 N 
ATOM     19  C   UNL     1       6.238  -6.036   0.054  0.00  0.00    +0.242 C 
ATOM     20  O   UNL     1       5.207  -6.653   0.217  0.00  0.00    -0.273 OA
ATOM     21  H   UNL     1       7.037  -4.197  -0.160  0.00  0.00    +0.177 HD
BRANCH  18  23
ATOM     22  C   UNL     1       4.969  -2.706  -0.008  0.00  0.00    +0.130 C 
ATOM     23  N   UNL     1       4.994  -4.006   0.072  0.00  0.00    -0.188 NA
BRANCH  22  25
ATOM     24  C   UNL     1       3.711  -0.667   0.011  0.00  0.00    +0.009 C 
ATOM     25  C   UNL     1       3.737  -2.013   0.095  0.00  0.00    +0.022 C 
BRANCH  24  29
ATOM     26  C   UNL     1       0.023   1.407   0.319  0.00  0.00    +0.000 A 
ATOM     27  C   UNL     1       1.198   2.115   0.133  0.00  0.00    +0.001 A 
ATOM     28  C   UNL     1       2.400   1.448   0.032  0.00  0.00    +0.008 A 
ATOM     29  C   UNL     1       2.431   0.052   0.118  0.00  0.00    -0.025 A 
ATOM     30  C   UNL     1       1.240  -0.656   0.306  0.00  0.00    +0.008 A 
ATOM     31  C   UNL     1       0.045   0.025   0.405  0.00  0.00    +0.001 A 
ENDBRANCH  24  29
ENDBRANCH  22  25
ENDBRANCH  18  23
ENDBRANCH  17  19
ENDBRANCH   1  17
TORSDOF 8
