REMARK  Name = ZINC38708448
REMARK  7 active torsions:
REMARK  status: ('A' for Active; 'I' for Inactive)
REMARK    1  A    between atoms: C_1  and  C_2
REMARK    2  A    between atoms: C_2  and  C_3
REMARK    3  A    between atoms: C_3  and  C_5
REMARK    4  A    between atoms: C_3  and  C_11
REMARK    5  A    between atoms: N_13  and  C_14
REMARK    6  A    between atoms: N_22  and  C_30
REMARK    7  A    between atoms: C_30  and  C_31
REMARK                            x       y       z     vdW  Elec       q    Type
REMARK                         _______ _______ _______ _____ _____    ______ ____
ROOT
ATOM      1  C   UNL     1      -0.705  -3.999  -1.354  0.00  0.00    +0.034 A 
ATOM      2  C   UNL     1       0.426  -4.802  -1.262  0.00  0.00    +0.027 A 
ATOM      3  C   UNL     1       0.302  -6.176  -1.223  0.00  0.00    +0.049 A 
ATOM      4  C   UNL     1      -0.953  -6.766  -1.281  0.00  0.00    +0.141 A 
ATOM      5  C   UNL     1      -2.095  -5.966  -1.396  0.00  0.00    +0.081 A 
ATOM      6  C   UNL     1      -1.962  -4.574  -1.414  0.00  0.00    +0.040 A 
ATOM      7  C   UNL     1      -3.426  -6.573  -1.527  0.00  0.00    +0.255 C 
ATOM      8  O   UNL     1      -4.215  -6.038  -2.281  0.00  0.00    -0.270 OA
ATOM      9  N   UNL     1      -3.833  -7.660  -0.886  0.00  0.00    -0.264 N 
ATOM     10  C   UNL     1      -3.090  -8.400   0.033  0.00  0.00    +0.079 A 
ATOM     11  C   UNL     1      -3.727  -8.903   1.163  0.00  0.00    +0.027 A 
ATOM     12  C   UNL     1      -3.024  -9.663   2.078  0.00  0.00    +0.002 A 
ATOM     13  C   UNL     1      -1.683  -9.929   1.874  0.00  0.00    +0.004 A 
ATOM     14  C   UNL     1      -1.041  -9.424   0.759  0.00  0.00    +0.048 A 
ATOM     15  C   UNL     1      -1.737  -8.648  -0.158  0.00  0.00    +0.150 A 
ATOM     16  O   UNL     1      -1.065  -8.113  -1.207  0.00  0.00    -0.453 OA
ENDROOT
BRANCH   1  19
ATOM     17  C   UNL     1      -1.439  -1.858  -2.093  0.00  0.00    +0.225 C 
ATOM     18  O   UNL     1      -2.274  -2.397  -2.788  0.00  0.00    -0.275 OA
ATOM     19  N   UNL     1      -0.572  -2.604  -1.380  0.00  0.00    -0.285 N 
ATOM     20  H   UNL     1       0.144  -2.176  -0.885  0.00  0.00    +0.155 HD
BRANCH  17  21
ATOM     21  C   UNL     1      -1.370  -0.354  -2.026  0.00  0.00    +0.105 C 
BRANCH  21  22
ATOM     22  C   UNL     1      -2.440   0.237  -2.908  0.00  0.00    -0.036 A 
ATOM     23  C   UNL     1      -2.452  -0.042  -4.262  0.00  0.00    +0.004 A 
ATOM     24  C   UNL     1      -3.433   0.500  -5.071  0.00  0.00    +0.000 A 
ATOM     25  C   UNL     1      -4.402   1.321  -4.526  0.00  0.00    +0.000 A 
ATOM     26  C   UNL     1      -4.391   1.600  -3.172  0.00  0.00    +0.000 A 
ATOM     27  C   UNL     1      -3.412   1.054  -2.362  0.00  0.00    +0.004 A 
ENDBRANCH  21  22
BRANCH  21  29
ATOM     28  C   UNL     1       0.120   1.630  -2.324  0.00  0.00    +0.005 C 
ATOM     29  C   UNL     1       0.004   0.115  -2.508  0.00  0.00    +0.014 C 
ENDBRANCH  21  29
ENDBRANCH  17  21
ENDBRANCH   1  19
BRANCH   9  30
ATOM     30  C   UNL     1      -5.192  -8.127  -1.169  0.00  0.00    +0.111 C 
ATOM     31  C   UNL     1      -5.159  -9.112  -2.340  0.00  0.00    +0.025 C 
ENDBRANCH   9  30
TORSDOF 5
