REMARK  Name = ZINC19940684
REMARK  7 active torsions:
REMARK  status: ('A' for Active; 'I' for Inactive)
REMARK    1  A    between atoms: C_1  and  C_2
REMARK    2  A    between atoms: C_2  and  C_3
REMARK    3  A    between atoms: C_10  and  C_15
REMARK    4  A    between atoms: C_15  and  C_17
REMARK    5  A    between atoms: C_15  and  N_27
REMARK    6  A    between atoms: N_21  and  C_22
REMARK    7  A    between atoms: N_30  and  C_33
REMARK                            x       y       z     vdW  Elec       q    Type
REMARK                         _______ _______ _______ _____ _____    ______ ____
ROOT
ATOM      1  C   UNL     1       2.591  -0.626  -0.056  0.00  0.00    +0.162 C 
ENDROOT
BRANCH   1   9
ATOM      2  C   UNL     1       2.055  -3.392  -5.565  0.00  0.00    -0.047 A 
ATOM      3  C   UNL     1       3.304  -3.025  -6.046  0.00  0.00    +0.005 A 
ATOM      4  C   UNL     1       4.161  -2.270  -5.274  0.00  0.00    +0.026 A 
ATOM      5  C   UNL     1       3.772  -1.872  -3.999  0.00  0.00    +0.049 A 
ATOM      6  C   UNL     1       2.504  -2.246  -3.515  0.00  0.00    -0.001 A 
ATOM      7  C   UNL     1       1.651  -3.012  -4.316  0.00  0.00    +0.013 A 
ATOM      8  C   UNL     1       2.103  -1.821  -2.173  0.00  0.00    +0.021 A 
ATOM      9  C   UNL     1       2.972  -1.079  -1.442  0.00  0.00    +0.042 A 
ATOM     10  C   UNL     1       4.229  -0.726  -1.976  0.00  0.00    +0.254 A 
ATOM     11  O   UNL     1       4.993  -0.054  -1.304  0.00  0.00    -0.268 OA
ATOM     12  N   UNL     1       4.608  -1.116  -3.206  0.00  0.00    -0.322 N 
ATOM     13  H   UNL     1       5.602  -0.824  -3.576  0.00  0.00    +0.169 HD
BRANCH   2  15
ATOM     14  C   UNL     1       0.258  -3.291  -7.271  0.00  0.00    +0.009 C 
ATOM     15  C   UNL     1       1.136  -4.218  -6.428  0.00  0.00    +0.032 C 
ENDBRANCH   2  15
ENDBRANCH   1   9
BRANCH   1  16
ATOM     16  N   UNL     1       3.615  -1.063   0.902  0.00  0.00    -0.286 NA
ATOM     17  C   UNL     1       3.806  -2.519   0.839  0.00  0.00    +0.104 C 
ATOM     18  C   UNL     1       4.933  -2.924   1.792  0.00  0.00    +0.120 C 
ATOM     19  N   UNL     1       4.594  -2.498   3.157  0.00  0.00    -0.325 N 
ATOM     20  C   UNL     1       4.402  -1.043   3.220  0.00  0.00    +0.120 C 
ATOM     21  C   UNL     1       3.275  -0.638   2.267  0.00  0.00    +0.104 C 
BRANCH  19  22
ATOM     22  C   UNL     1       5.569  -2.915   4.069  0.00  0.00    +0.065 A 
ATOM     23  C   UNL     1       5.400  -2.676   5.426  0.00  0.00    +0.026 A 
ATOM     24  C   UNL     1       6.363  -3.093   6.325  0.00  0.00    +0.002 A 
ATOM     25  C   UNL     1       7.499  -3.739   5.874  0.00  0.00    +0.003 A 
ATOM     26  C   UNL     1       7.675  -3.975   4.523  0.00  0.00    +0.040 A 
ATOM     27  C   UNL     1       6.713  -3.565   3.618  0.00  0.00    +0.144 A 
ATOM     28  F   UNL     1       6.885  -3.795   2.298  0.00  0.00    -0.204 F 
ENDBRANCH  19  22
ENDBRANCH   1  16
BRANCH   1  29
ATOM     29  C   UNL     1       2.488   0.878  -0.030  0.00  0.00    +0.173 A 
ATOM     30  N   UNL     1       3.484   1.730  -0.030  0.00  0.00    -0.111 NA
ATOM     31  N   UNL     1       2.990   2.919  -0.003  0.00  0.00    -0.023 NA
ATOM     32  N   UNL     1       1.705   2.848   0.008  0.00  0.00    -0.044 NA
ATOM     33  N   UNL     1       1.357   1.606  -0.002  0.00  0.00    -0.224 N 
BRANCH  33  34
ATOM     34  C   UNL     1      -0.013   1.086   0.008  0.00  0.00    +0.111 C 
ATOM     35  C   UNL     1      -0.763   1.597   1.255  0.00  0.00    +0.027 C 
ATOM     36  C   UNL     1      -1.531   2.845   0.750  0.00  0.00    +0.002 C 
ATOM     37  C   UNL     1      -1.978   2.421  -0.670  0.00  0.00    +0.002 C 
ATOM     38  C   UNL     1      -0.784   1.609  -1.216  0.00  0.00    +0.027 C 
ENDBRANCH  33  34
ENDBRANCH   1  29
TORSDOF 6
