REMARK  Name = ZINC42912287
REMARK  8 active torsions:
REMARK  status: ('A' for Active; 'I' for Inactive)
REMARK    1  A    between atoms: C_1  and  C_2
REMARK    2  A    between atoms: C_2  and  C_3
REMARK    3  A    between atoms: C_2  and  C_4
REMARK    4  A    between atoms: C_4  and  N_5
REMARK    5  A    between atoms: N_8  and  C_11
REMARK    6  A    between atoms: C_11  and  N_12
REMARK    7  A    between atoms: C_15  and  C_19
REMARK    8  A    between atoms: C_15  and  C_20
REMARK                            x       y       z     vdW  Elec       q    Type
REMARK                         _______ _______ _______ _____ _____    ______ ____
ROOT
ATOM      1  N   UNL     1      -1.613  -1.322   7.216  0.00  0.00    -0.210 N 
ATOM      2  C   UNL     1      -2.135  -2.530   7.508  0.00  0.00    +0.252 C 
ATOM      3  O   UNL     1      -3.042  -3.094   6.934  0.00  0.00    -0.272 OA
ATOM      4  C   UNL     1      -1.351  -3.037   8.702  0.00  0.00    +0.135 C 
ATOM      5  N   UNL     1      -0.389  -1.954   8.970  0.00  0.00    -0.281 N 
ATOM      6  C   UNL     1      -0.616  -1.001   8.049  0.00  0.00    +0.311 C 
ATOM      7  O   UNL     1       0.011   0.037   7.982  0.00  0.00    -0.252 OA
ATOM      8  C   UNL     1      -2.275  -3.245   9.904  0.00  0.00    +0.047 C 
ATOM      9  H   UNL     1       0.280  -1.934   9.672  0.00  0.00    +0.152 HD
ENDROOT
BRANCH   4  10
ATOM     10  C   UNL     1      -0.629  -4.315   8.359  0.00  0.00    -0.015 A 
ATOM     11  C   UNL     1      -1.171  -5.174   7.404  0.00  0.00    +0.007 A 
ATOM     12  C   UNL     1      -0.545  -6.336   7.072  0.00  0.00    +0.009 A 
ATOM     13  C   UNL     1       0.666  -6.677   7.697  0.00  0.00    -0.018 A 
ATOM     14  C   UNL     1       1.341  -7.868   7.380  0.00  0.00    +0.008 A 
ATOM     15  C   UNL     1       2.513  -8.165   8.006  0.00  0.00    +0.001 A 
ATOM     16  C   UNL     1       3.055  -7.306   8.960  0.00  0.00    +0.001 A 
ATOM     17  C   UNL     1       2.428  -6.144   9.293  0.00  0.00    +0.008 A 
ATOM     18  C   UNL     1       1.217  -5.803   8.667  0.00  0.00    -0.018 A 
ATOM     19  C   UNL     1       0.544  -4.610   8.981  0.00  0.00    +0.014 A 
ENDBRANCH   4  10
BRANCH   1  20
ATOM     20  C   UNL     1      -2.077  -0.468   6.120  0.00  0.00    +0.205 C 
BRANCH  20  24
ATOM     21  N   UNL     1      -0.010  -0.139   2.447  0.00  0.00    +0.381 N 
ATOM     22  C   UNL     1      -1.303  -0.837   2.452  0.00  0.00    -0.063 C 
ATOM     23  C   UNL     1      -2.095  -0.435   3.698  0.00  0.00    +0.067 C 
ATOM     24  N   UNL     1      -1.324  -0.787   4.899  0.00  0.00    -0.290 NA
ATOM     25  C   UNL     1      -0.017  -0.115   4.896  0.00  0.00    +0.067 C 
ATOM     26  C   UNL     1       0.758  -0.519   3.640  0.00  0.00    -0.063 C 
ATOM     27  H   UNL     1      -0.167   0.858   2.452  0.00  0.00    -0.082 HD
BRANCH  21  28
ATOM     28  C   UNL     1       0.742  -0.511   1.242  0.00  0.00    -0.076 C 
BRANCH  28  30
ATOM     29  C   UNL     1      -0.019   1.526   0.010  0.00  0.00    +0.005 C 
ATOM     30  C   UNL     1       0.002  -0.004   0.002  0.00  0.00    -0.034 C 
ATOM     31  C   UNL     1       0.718  -0.497  -1.257  0.00  0.00    +0.005 C 
ENDBRANCH  28  30
ENDBRANCH  21  28
ENDBRANCH  20  24
ENDBRANCH   1  20
TORSDOF 5
