REMARK  Name = ZINC20192108
REMARK  15 active torsions:
REMARK  status: ('A' for Active; 'I' for Inactive)
REMARK    1  A    between atoms: C_1  and  C_2
REMARK    2  A    between atoms: C_2  and  C_3
REMARK    3  A    between atoms: C_2  and  C_4
REMARK    4  A    between atoms: C_2  and  C_5
REMARK    5  A    between atoms: C_7  and  C_16
REMARK    6  A    between atoms: C_9  and  C_12
REMARK    7  A    between atoms: C_10  and  O_11
REMARK    8  A    between atoms: C_12  and  C_13
REMARK    9  A    between atoms: C_12  and  C_14
REMARK   10  A    between atoms: C_12  and  C_15
REMARK   11  A    between atoms: C_16  and  C_18
REMARK   12  A    between atoms: C_16  and  N_27
REMARK   13  A    between atoms: C_21  and  N_24
REMARK   14  A    between atoms: N_24  and  C_25
REMARK   15  A    between atoms: N_24  and  C_26
REMARK                            x       y       z     vdW  Elec       q    Type
REMARK                         _______ _______ _______ _____ _____    ______ ____
ROOT
ATOM      1  C   UNL     1      -1.399   3.565   2.482  0.00  0.00    +0.117 C 
ENDROOT
BRANCH   1   2
ATOM      2  N   UNL     1      -0.633   3.221   1.276  0.00  0.00    -0.289 NA
ATOM      3  C   UNL     1      -1.373   3.586   0.061  0.00  0.00    +0.104 C 
ATOM      4  C   UNL     1      -0.580   3.141  -1.170  0.00  0.00    +0.122 C 
ATOM      5  N   UNL     1       0.745   3.776  -1.152  0.00  0.00    -0.314 N 
ATOM      6  C   UNL     1       1.485   3.410   0.064  0.00  0.00    +0.122 C 
ATOM      7  C   UNL     1       0.692   3.856   1.295  0.00  0.00    +0.104 C 
ATOM      8  C   UNL     1       1.470   3.450  -2.292  0.00  0.00    +0.099 A 
ATOM      9  C   UNL     1       2.755   3.957  -2.462  0.00  0.00    +0.042 A 
ATOM     10  C   UNL     1       3.464   3.625  -3.601  0.00  0.00    +0.005 A 
ATOM     11  C   UNL     1       2.862   2.794  -4.538  0.00  0.00    +0.018 A 
ATOM     12  C   UNL     1       1.584   2.327  -4.306  0.00  0.00    +0.084 A 
ATOM     13  N   UNL     1       0.933   2.656  -3.206  0.00  0.00    -0.350 N 
ATOM     14  H   UNL     1      -0.080   2.254  -3.058  0.00  0.00    +0.166 HD
ENDBRANCH   1   2
BRANCH   1  17
ATOM     15  C   UNL     1       0.173   3.567   5.914  0.00  0.00    +0.000 A 
ATOM     16  C   UNL     1      -0.526   3.970   4.792  0.00  0.00    +0.013 A 
ATOM     17  C   UNL     1      -0.636   3.123   3.704  0.00  0.00    -0.025 A 
ATOM     18  C   UNL     1      -0.052   1.871   3.738  0.00  0.00    +0.013 A 
ATOM     19  C   UNL     1       0.653   1.466   4.856  0.00  0.00    +0.000 A 
ATOM     20  C   UNL     1       0.764   2.313   5.948  0.00  0.00    +0.124 A 
BRANCH  15  22
ATOM     21  C   UNL     1      -0.445   5.798   6.804  0.00  0.00    +0.015 C 
ATOM     22  C   UNL     1       0.291   4.490   7.100  0.00  0.00    -0.009 C 
ATOM     23  C   UNL     1      -0.328   3.822   8.329  0.00  0.00    +0.015 C 
ATOM     24  C   UNL     1       1.768   4.786   7.370  0.00  0.00    +0.015 C 
ENDBRANCH  15  22
BRANCH  19  25
ATOM     25  C   UNL     1       1.294   0.103   4.889  0.00  0.00    -0.009 C 
ATOM     26  C   UNL     1       1.023  -0.622   3.570  0.00  0.00    +0.015 C 
ATOM     27  C   UNL     1       2.804   0.254   5.086  0.00  0.00    +0.015 C 
ATOM     28  C   UNL     1       0.708  -0.709   6.047  0.00  0.00    +0.015 C 
ENDBRANCH  19  25
BRANCH  20  29
ATOM     29  O   UNL     1       1.453   1.915   7.051  0.00  0.00    -0.506 OA
ATOM     30  H   UNL     1       1.922   0.920   7.077  0.00  0.00    +0.292 HD
ENDBRANCH  20  29
ENDBRANCH   1  17
BRANCH   1  31
ATOM     31  C   UNL     1      -2.735   2.868   2.445  0.00  0.00    -0.026 A 
ATOM     32  C   UNL     1      -2.811   1.543   2.058  0.00  0.00    +0.007 A 
ATOM     33  C   UNL     1      -4.033   0.900   2.028  0.00  0.00    +0.023 A 
ATOM     34  C   UNL     1      -5.187   1.589   2.377  0.00  0.00    +0.029 A 
ATOM     35  C   UNL     1      -5.108   2.922   2.759  0.00  0.00    +0.023 A 
ATOM     36  C   UNL     1      -3.882   3.558   2.792  0.00  0.00    +0.007 A 
BRANCH  34  37
ATOM     37  N   UNL     1      -6.426   0.944   2.342  0.00  0.00    -0.336 N 
ATOM     38  C   UNL     1      -7.642   1.673   2.709  0.00  0.00    +0.129 C 
ATOM     39  C   UNL     1      -6.508  -0.462   1.938  0.00  0.00    +0.129 C 
ENDBRANCH  34  37
ENDBRANCH   1  31
TORSDOF 7
