REMARK  Name = ZINC63807691
REMARK  8 active torsions:
REMARK  status: ('A' for Active; 'I' for Inactive)
REMARK    1  A    between atoms: C_1  and  O_2
REMARK    2  A    between atoms: O_2  and  C_3
REMARK    3  A    between atoms: C_8  and  C_9
REMARK    4  A    between atoms: C_9  and  N_10
REMARK    5  A    between atoms: N_10  and  C_11
REMARK    6  A    between atoms: C_11  and  C_12
REMARK    7  A    between atoms: C_17  and  C_19
REMARK    8  A    between atoms: C_19  and  C_20
REMARK                            x       y       z     vdW  Elec       q    Type
REMARK                         _______ _______ _______ _____ _____    ______ ____
ROOT
ATOM      1  N   UNL     1       0.572  -2.894   1.342  0.00  0.00    -0.292 N 
ATOM      2  C   UNL     1       1.439  -1.952   1.762  0.00  0.00    +0.220 C 
ATOM      3  O   UNL     1       1.761  -1.050   1.019  0.00  0.00    -0.275 OA
ENDROOT
BRANCH   1   4
ATOM      4  C   UNL     1       0.018  -2.829  -0.013  0.00  0.00    +0.147 C 
BRANCH   4  10
ATOM      5  C   UNL     1      -1.200  -0.637   0.010  0.00  0.00    +0.125 A 
ATOM      6  C   UNL     1      -2.375   0.101   0.019  0.00  0.00    +0.046 A 
ATOM      7  C   UNL     1      -3.596  -0.545   0.027  0.00  0.00    +0.004 A 
ATOM      8  C   UNL     1      -3.648  -1.927   0.026  0.00  0.00    +0.001 A 
ATOM      9  C   UNL     1      -2.479  -2.665   0.017  0.00  0.00    +0.009 A 
ATOM     10  C   UNL     1      -1.255  -2.023   0.003  0.00  0.00    +0.011 A 
BRANCH   5  12
ATOM     11  C   UNL     1      -0.017   1.425   0.010  0.00  0.00    +0.277 C 
ATOM     12  O   UNL     1       0.002  -0.004   0.002  0.00  0.00    -0.495 OA
ENDBRANCH   5  12
ENDBRANCH   4  10
ENDBRANCH   1   4
BRANCH   1  13
ATOM     13  C   UNL     1       0.183  -3.984   2.240  0.00  0.00    +0.150 C 
BRANCH  13  14
ATOM     14  C   UNL     1       1.133  -5.141   2.068  0.00  0.00    +0.007 A 
ATOM     15  C   UNL     1       2.289  -5.401   2.725  0.00  0.00    +0.013 A 
ATOM     16  C   UNL     1       3.006  -6.536   2.397  0.00  0.00    +0.008 A 
ATOM     17  C   UNL     1       2.532  -7.356   1.428  0.00  0.00    +0.045 A 
ATOM     18  S   UNL     1       1.024  -6.528   0.949  0.00  0.00    -0.100 S 
ENDBRANCH  13  14
ENDBRANCH   1  13
BRANCH   2  19
ATOM     19  C   UNL     1       2.008  -2.019   3.156  0.00  0.00    +0.129 C 
BRANCH  19  20
ATOM     20  C   UNL     1       2.943  -0.858   3.373  0.00  0.00    -0.033 C 
ATOM     21  C   UNL     1       2.645   0.330   3.947  0.00  0.00    -0.001 A 
ATOM     22  C   UNL     1       1.407   0.876   4.518  0.00  0.00    +0.010 A 
ATOM     23  C   UNL     1       1.418   2.127   5.031  0.00  0.00    +0.001 A 
ATOM     24  C   UNL     1       2.578   2.914   5.031  0.00  0.00    +0.002 A 
ATOM     25  C   UNL     1       3.752   2.482   4.525  0.00  0.00    +0.026 A 
ATOM     26  C   UNL     1       3.856   1.181   3.960  0.00  0.00    +0.043 A 
ATOM     27  N   UNL     1       4.864   0.544   3.415  0.00  0.00    -0.380 N 
ATOM     28  C   UNL     1       4.407  -0.787   3.000  0.00  0.00    +0.145 C 
ATOM     29  H   UNL     1       5.763   0.893   3.307  0.00  0.00    +0.160 HD
ENDBRANCH  19  20
ENDBRANCH   2  19
TORSDOF 7
