REMARK  Name = ZINC01126159
REMARK  6 active torsions:
REMARK  status: ('A' for Active; 'I' for Inactive)
REMARK    1  A    between atoms: C_10  and  C_11
REMARK    2  A    between atoms: C_11  and  C_12
REMARK    3  A    between atoms: N_14  and  C_15
REMARK    4  A    between atoms: C_15  and  N_17
REMARK    5  A    between atoms: N_17  and  C_18
REMARK    6  A    between atoms: C_21  and  N_24
REMARK                            x       y       z     vdW  Elec       q    Type
REMARK                         _______ _______ _______ _____ _____    ______ ____
ROOT
ATOM      1  C   UNL     1       2.312   4.177   0.104  0.00  0.00    +0.141 C 
ATOM      2  S   UNL     1       3.808   3.347   0.086  0.00  0.00    -0.018 S 
ENDROOT
BRANCH   1   5
ATOM      3  C   UNL     1       3.442   6.210   0.307  0.00  0.00    +0.223 C 
ATOM      4  O   UNL     1       4.502   5.622   0.294  0.00  0.00    -0.275 OA
ATOM      5  N   UNL     1       2.287   5.521   0.212  0.00  0.00    -0.267 N 
ATOM      6  H   UNL     1       1.439   5.991   0.223  0.00  0.00    +0.157 HD
BRANCH   3   7
ATOM      7  C   UNL     1       3.415   7.712   0.428  0.00  0.00    +0.131 C 
BRANCH   7  17
ATOM      8  C   UNL     1       7.062   8.974  -2.934  0.00  0.00    +0.001 A 
ATOM      9  C   UNL     1       5.759   8.491  -3.037  0.00  0.00    +0.001 A 
ATOM     10  C   UNL     1       5.014   8.242  -1.925  0.00  0.00    +0.009 A 
ATOM     11  C   UNL     1       5.566   8.472  -0.653  0.00  0.00    -0.014 A 
ATOM     12  C   UNL     1       6.890   8.968  -0.549  0.00  0.00    -0.018 A 
ATOM     13  C   UNL     1       7.628   9.212  -1.720  0.00  0.00    +0.008 A 
ATOM     14  C   UNL     1       7.440   9.202   0.723  0.00  0.00    +0.008 A 
ATOM     15  C   UNL     1       6.695   8.954   1.835  0.00  0.00    +0.001 A 
ATOM     16  C   UNL     1       5.392   8.472   1.732  0.00  0.00    +0.005 A 
ATOM     17  C   UNL     1       4.826   8.234   0.517  0.00  0.00    -0.031 A 
ENDBRANCH   7  17
ENDBRANCH   3   7
ENDBRANCH   1   5
BRANCH   1  18
ATOM     18  N   UNL     1       1.157   3.488   0.009  0.00  0.00    -0.297 N 
ATOM     19  H   UNL     1       0.312   3.962  -0.042  0.00  0.00    +0.154 HD
BRANCH  18  20
ATOM     20  C   UNL     1       1.177   2.087  -0.014  0.00  0.00    +0.033 A 
ATOM     21  C   UNL     1       0.286   1.367   0.769  0.00  0.00    +0.025 A 
ATOM     22  C   UNL     1       0.305  -0.014   0.746  0.00  0.00    +0.025 A 
ATOM     23  C   UNL     1       1.217  -0.681  -0.061  0.00  0.00    +0.030 A 
ATOM     24  C   UNL     1       2.109   0.039  -0.845  0.00  0.00    +0.025 A 
ATOM     25  C   UNL     1       2.089   1.420  -0.821  0.00  0.00    +0.025 A 
BRANCH  23  26
ATOM     26  N   UNL     1       1.238  -2.080  -0.085  0.00  0.00    -0.330 N 
ATOM     27  C   UNL     1       1.417  -2.627   1.266  0.00  0.00    +0.105 C 
ATOM     28  C   UNL     1       1.289  -4.151   1.223  0.00  0.00    +0.019 C 
ATOM     29  C   UNL     1       2.350  -4.721   0.276  0.00  0.00    +0.003 C 
ATOM     30  C   UNL     1       2.171  -4.099  -1.112  0.00  0.00    +0.019 C 
ATOM     31  C   UNL     1       2.273  -2.576  -1.000  0.00  0.00    +0.105 C 
ENDBRANCH  23  26
ENDBRANCH  18  20
ENDBRANCH   1  18
TORSDOF 6
