REMARK  Name = ZINC16267929
REMARK  5 active torsions:
REMARK  status: ('A' for Active; 'I' for Inactive)
REMARK    1  A    between atoms: C_1  and  C_2
REMARK    2  A    between atoms: C_4  and  N_10
REMARK    3  A    between atoms: C_7  and  C_8
REMARK    4  A    between atoms: C_14  and  N_15
REMARK    5  A    between atoms: N_15  and  C_16
REMARK                            x       y       z     vdW  Elec       q    Type
REMARK                         _______ _______ _______ _____ _____    ______ ____
ROOT
ATOM      1  N   UNL     1       0.030  -2.767  -2.426  0.00  0.00    -0.189 N 
ATOM      2  C   UNL     1      -1.146  -3.099  -2.998  0.00  0.00    +0.265 C 
ATOM      3  O   UNL     1      -2.202  -2.788  -2.481  0.00  0.00    -0.269 OA
ATOM      4  C   UNL     1      -1.117  -3.847  -4.267  0.00  0.00    +0.113 C 
ATOM      5  C   UNL     1      -2.282  -4.221  -4.912  0.00  0.00    +0.090 C 
ATOM      6  C   UNL     1       0.209  -4.179  -4.820  0.00  0.00    +0.258 C 
ATOM      7  O   UNL     1       0.314  -4.795  -5.864  0.00  0.00    -0.270 OA
ATOM      8  N   UNL     1       1.302  -3.782  -4.137  0.00  0.00    -0.235 N 
ATOM      9  C   UNL     1       1.201  -3.098  -2.989  0.00  0.00    +0.320 C 
ATOM     10  O   UNL     1       2.224  -2.764  -2.425  0.00  0.00    -0.251 OA
ATOM     11  H   UNL     1       2.182  -3.992  -4.487  0.00  0.00    +0.159 HD
ENDROOT
BRANCH   1  15
ATOM     12  C   UNL     1       0.020   1.539  -0.050  0.00  0.00    +0.044 C 
ATOM     13  C   UNL     1       0.022   0.032  -0.038  0.00  0.00    -0.046 A 
ATOM     14  C   UNL     1       0.025  -0.667  -1.230  0.00  0.00    +0.028 A 
ATOM     15  C   UNL     1       0.027  -2.055  -1.219  0.00  0.00    +0.060 A 
ATOM     16  C   UNL     1       0.026  -2.737  -0.009  0.00  0.00    +0.040 A 
ATOM     17  C   UNL     1       0.023  -2.032   1.180  0.00  0.00    +0.020 A 
ATOM     18  C   UNL     1       0.026  -0.649   1.165  0.00  0.00    -0.046 A 
ATOM     19  C   UNL     1       0.029   0.117   2.462  0.00  0.00    +0.044 C 
ATOM     20 BR   UNL     1       0.028  -4.628   0.013  0.00  0.00    -0.048 Br
ENDBRANCH   1  15
BRANCH   5  21
ATOM     21  N   UNL     1      -3.476  -4.013  -4.321  0.00  0.00    -0.320 N 
ATOM     22  H   UNL     1      -3.524  -3.533  -3.479  0.00  0.00    +0.152 HD
BRANCH  21  23
ATOM     23  C   UNL     1      -4.646  -4.491  -4.920  0.00  0.00    +0.033 A 
ATOM     24  C   UNL     1      -4.576  -5.185  -6.124  0.00  0.00    +0.025 A 
ATOM     25  C   UNL     1      -5.727  -5.658  -6.721  0.00  0.00    +0.029 A 
ATOM     26  C   UNL     1      -6.958  -5.442  -6.120  0.00  0.00    +0.067 A 
ATOM     27  C   UNL     1      -7.032  -4.746  -4.911  0.00  0.00    +0.069 A 
ATOM     28  C   UNL     1      -5.874  -4.277  -4.311  0.00  0.00    +0.051 A 
ATOM     29  N   UNL     1      -8.379  -4.689  -4.561  0.00  0.00    -0.306 N 
ATOM     30  H   UNL     1      -8.742  -4.266  -3.767  0.00  0.00    +0.170 HD
ATOM     31  C   UNL     1      -9.092  -5.322  -5.512  0.00  0.00    +0.325 A 
ATOM     32  O   UNL     1     -10.302  -5.452  -5.510  0.00  0.00    -0.247 OA
ATOM     33  N   UNL     1      -8.264  -5.787  -6.466  0.00  0.00    -0.306 N 
ATOM     34  H   UNL     1      -8.530  -6.278  -7.259  0.00  0.00    +0.170 HD
ENDBRANCH  21  23
ENDBRANCH   5  21
TORSDOF 3
