REMARK  Name = ZINC21226688
REMARK  8 active torsions:
REMARK  status: ('A' for Active; 'I' for Inactive)
REMARK    1  A    between atoms: C_1  and  C_2
REMARK    2  A    between atoms: C_6  and  C_8
REMARK    3  A    between atoms: C_13  and  C_18
REMARK    4  A    between atoms: C_21  and  O_24
REMARK    5  A    between atoms: O_24  and  C_25
REMARK    6  A    between atoms: C_25  and  C_26
REMARK    7  A    between atoms: C_26  and  C_27
REMARK    8  A    between atoms: C_26  and  C_28
REMARK                            x       y       z     vdW  Elec       q    Type
REMARK                         _______ _______ _______ _____ _____    ______ ____
ROOT
ATOM      1  C   UNL     1      -1.332   2.114   0.020  0.00  0.00    +0.136 C 
ATOM      2  C   UNL     1      -1.817   2.246  -1.404  0.00  0.00    +0.036 C 
ATOM      3  C   UNL     1      -2.865   1.601  -1.943  0.00  0.00    +0.017 C 
ATOM      4  C   UNL     1      -3.229   1.810  -3.404  0.00  0.00    +0.059 C 
ATOM      5  C   UNL     1      -2.890   3.238  -3.826  0.00  0.00    +0.032 C 
ATOM      6  C   UNL     1      -1.385   3.442  -3.618  0.00  0.00    +0.088 C 
ATOM      7  C   UNL     1      -1.057   3.149  -2.185  0.00  0.00    +0.163 C 
ATOM      8  O   UNL     1      -0.105   3.707  -1.675  0.00  0.00    -0.292 OA
ATOM      9  N   UNL     1      -3.669   0.734  -1.277  0.00  0.00    -0.316 N 
ATOM     10  C   UNL     1      -3.219  -0.293  -0.456  0.00  0.00    +0.052 A 
ATOM     11  C   UNL     1      -3.430  -1.627  -0.758  0.00  0.00    +0.025 A 
ATOM     12  C   UNL     1      -2.994  -2.600   0.126  0.00  0.00    +0.002 A 
ATOM     13  C   UNL     1      -2.357  -2.241   1.300  0.00  0.00    +0.002 A 
ATOM     14  C   UNL     1      -2.130  -0.907   1.594  0.00  0.00    +0.025 A 
ATOM     15  C   UNL     1      -2.545   0.067   0.701  0.00  0.00    +0.049 A 
ATOM     16  N   UNL     1      -2.243   1.413   0.901  0.00  0.00    -0.331 N 
ATOM     17  H   UNL     1      -4.763   0.817  -1.368  0.00  0.00    +0.152 HD
ATOM     18  H   UNL     1      -2.709   1.944   1.744  0.00  0.00    +0.147 HD
ENDROOT
BRANCH   1  24
ATOM     19  C   UNL     1       3.594   2.029   0.901  0.00  0.00    +0.044 C 
ATOM     20  C   UNL     1       2.341   1.339   0.428  0.00  0.00    -0.050 A 
ATOM     21  C   UNL     1       2.398   0.032  -0.020  0.00  0.00    +0.003 A 
ATOM     22  C   UNL     1       1.249  -0.601  -0.455  0.00  0.00    +0.001 A 
ATOM     23  C   UNL     1       0.041   0.072  -0.440  0.00  0.00    +0.006 A 
ATOM     24  C   UNL     1      -0.017   1.378   0.010  0.00  0.00    -0.023 A 
ATOM     25  C   UNL     1       1.133   2.011   0.445  0.00  0.00    +0.009 A 
ENDBRANCH   1  24
BRANCH   5  26
ATOM     26  C   UNL     1      -3.238   3.437  -5.279  0.00  0.00    -0.043 A 
ATOM     27  C   UNL     1      -2.630   2.659  -6.247  0.00  0.00    +0.007 A 
ATOM     28  C   UNL     1      -2.951   2.835  -7.579  0.00  0.00    +0.046 A 
ATOM     29  C   UNL     1      -3.876   3.802  -7.947  0.00  0.00    +0.121 A 
ATOM     30  C   UNL     1      -4.480   4.585  -6.974  0.00  0.00    +0.046 A 
ATOM     31  C   UNL     1      -4.160   4.401  -5.643  0.00  0.00    +0.007 A 
BRANCH  29  32
ATOM     32  O   UNL     1      -4.189   3.981  -9.257  0.00  0.00    -0.492 OA
BRANCH  32  33
ATOM     33  C   UNL     1      -3.528   3.139 -10.203  0.00  0.00    +0.232 C 
BRANCH  33  34
ATOM     34  C   UNL     1      -4.006   3.484 -11.615  0.00  0.00    +0.020 C 
ATOM     35  C   UNL     1      -3.209   2.671 -12.636  0.00  0.00    +0.010 C 
ATOM     36  C   UNL     1      -5.493   3.151 -11.746  0.00  0.00    +0.010 C 
ENDBRANCH  33  34
ENDBRANCH  32  33
ENDBRANCH  29  32
ENDBRANCH   5  26
TORSDOF 5
