REMARK  Name = ZINC02407658
REMARK  13 active torsions:
REMARK  status: ('A' for Active; 'I' for Inactive)
REMARK    1  A    between atoms: C_1  and  C_2
REMARK    2  A    between atoms: C_2  and  C_3
REMARK    3  A    between atoms: C_2  and  C_4
REMARK    4  A    between atoms: C_4  and  C_5
REMARK    5  A    between atoms: C_11  and  N_15
REMARK    6  A    between atoms: N_15  and  C_16
REMARK    7  A    between atoms: C_16  and  C_17
REMARK    8  A    between atoms: C_17  and  C_18
REMARK    9  A    between atoms: C_18  and  N_63
REMARK   10  A    between atoms: C_19  and  N_63
REMARK   11  A    between atoms: C_20  and  N_63
REMARK   12  A    between atoms: C_25  and  C_28
REMARK   13  A    between atoms: C_25  and  C_29
REMARK                            x       y       z     vdW  Elec       q    Type
REMARK                         _______ _______ _______ _____ _____    ______ ____
ROOT
ATOM      1  C   UNL     1      -6.883  -1.081   0.030  0.00  0.00    +0.048 A 
ATOM      2  C   UNL     1      -7.205   0.271   0.034  0.00  0.00    +0.003 A 
ATOM      3  C   UNL     1      -6.204   1.211   0.036  0.00  0.00    -0.026 A 
ATOM      4  C   UNL     1      -4.856   0.788   0.029  0.00  0.00    +0.037 A 
ATOM      5  C   UNL     1      -3.647   1.632   0.028  0.00  0.00    +0.093 A 
ATOM      6  C   UNL     1      -2.424   0.950   0.019  0.00  0.00    +0.080 A 
ATOM      7  C   UNL     1      -1.221   1.643   0.017  0.00  0.00    +0.136 A 
ATOM      8  N   UNL     1      -1.259   2.974   0.030  0.00  0.00    -0.220 NA
ATOM      9  C   UNL     1      -2.420   3.603   0.033  0.00  0.00    +0.224 A 
ATOM     10  N   UNL     1      -3.573   2.982   0.035  0.00  0.00    -0.234 NA
ATOM     11  S   UNL     1      -2.868  -0.765   0.013  0.00  0.00    -0.064 S 
ATOM     12  C   UNL     1      -4.636  -0.601   0.022  0.00  0.00    +0.111 A 
ATOM     13  N   UNL     1      -5.624  -1.470   0.023  0.00  0.00    -0.244 NA
ATOM     14  C   UNL     1      -6.499   2.686   0.050  0.00  0.00    +0.070 C 
ATOM     15  C   UNL     1      -7.956   2.923  -0.355  0.00  0.00    +0.068 C 
ATOM     16  O   UNL     1      -8.788   2.044   0.410  0.00  0.00    -0.369 OA
ATOM     17  C   UNL     1      -8.658   0.673   0.035  0.00  0.00    +0.197 C 
ATOM     18  C   UNL     1      -8.340   4.376  -0.067  0.00  0.00    +0.041 C 
ATOM     19  C   UNL     1      -8.130   2.627  -1.846  0.00  0.00    +0.041 C 
ENDROOT
BRANCH   7  20
ATOM     20  N   UNL     1      -0.011   0.966   0.007  0.00  0.00    -0.328 N 
ATOM     21  H   UNL     1       0.002  -0.004   0.002  0.00  0.00    +0.147 HD
BRANCH  20  22
ATOM     22  C   UNL     1       1.248   1.716  -0.001  0.00  0.00    +0.101 C 
BRANCH  22  23
ATOM     23  C   UNL     1       2.424   0.737  -0.017  0.00  0.00    +0.000 C 
BRANCH  23  24
ATOM     24  C   UNL     1       3.738   1.520  -0.025  0.00  0.00    -0.078 C 
BRANCH  24  27
ATOM     25  C   UNL     1       6.134   1.284  -0.288  0.00  0.00    -0.097 C 
ATOM     26  C   UNL     1       4.928  -0.191   1.207  0.00  0.00    -0.097 C 
ATOM     27  N   UNL     1       4.863   0.562  -0.063  0.00  0.00    +0.376 N 
ATOM     28  H   UNL     1       4.714  -0.098  -0.835  0.00  0.00    -0.083 HD
ENDBRANCH  24  27
ENDBRANCH  23  24
ENDBRANCH  22  23
ENDBRANCH  20  22
ENDBRANCH   7  20
BRANCH   1  29
ATOM     29  C   UNL     1      -7.983  -2.111   0.032  0.00  0.00    +0.058 C 
BRANCH  29  31
ATOM     30  C   UNL     1      -7.176  -3.132  -2.101  0.00  0.00    +0.007 C 
ATOM     31  C   UNL     1      -8.362  -2.456  -1.410  0.00  0.00    -0.011 C 
ATOM     32  C   UNL     1      -9.561  -3.406  -1.409  0.00  0.00    +0.007 C 
ENDBRANCH  29  31
ENDBRANCH   1  29
TORSDOF 7
