REMARK  Name = ZINC04163811
REMARK  6 active torsions:
REMARK  status: ('A' for Active; 'I' for Inactive)
REMARK    1  A    between atoms: C_4  and  C_7
REMARK    2  A    between atoms: C_7  and  C_9
REMARK    3  A    between atoms: C_11  and  C_23
REMARK    4  A    between atoms: C_17  and  C_18
REMARK    5  A    between atoms: C_17  and  O_22
REMARK    6  A    between atoms: C_26  and  C_28
REMARK                            x       y       z     vdW  Elec       q    Type
REMARK                         _______ _______ _______ _____ _____    ______ ____
ROOT
ATOM      1  C   UNL     1       3.767   1.858  -0.023  0.00  0.00    +0.147 C 
ATOM      2  C   UNL     1       4.134   2.230  -1.463  0.00  0.00    +0.156 C 
ATOM      3  N   UNL     1       4.396   1.000  -2.220  0.00  0.00    -0.289 N 
ATOM      4  C   UNL     1       4.864  -0.105  -1.620  0.00  0.00    +0.302 C 
ATOM      5  O   UNL     1       5.072  -1.093  -2.297  0.00  0.00    -0.253 OA
ATOM      6  N   UNL     1       5.109  -0.163  -0.303  0.00  0.00    -0.264 N 
ATOM      7  C   UNL     1       4.889   0.996   0.564  0.00  0.00    +0.243 C 
ATOM      8  H   UNL     1       4.228   0.986  -3.176  0.00  0.00    +0.151 HD
ATOM      9  H   UNL     1       5.438  -0.989   0.084  0.00  0.00    +0.153 HD
ENDROOT
BRANCH   2  10
ATOM     10  C   UNL     1       2.993   2.984  -2.096  0.00  0.00    +0.127 A 
ATOM     11  C   UNL     1       2.917   4.322  -2.234  0.00  0.00    +0.047 A 
ATOM     12  C   UNL     1       1.694   4.601  -2.876  0.00  0.00    +0.050 A 
ATOM     13  C   UNL     1       1.081   3.406  -3.088  0.00  0.00    +0.137 A 
ATOM     14  O   UNL     1       1.881   2.434  -2.610  0.00  0.00    -0.458 OA
BRANCH  13  15
ATOM     15  C   UNL     1      -0.234   3.208  -3.733  0.00  0.00    +0.036 A 
ATOM     16  C   UNL     1      -0.376   2.282  -4.767  0.00  0.00    +0.013 A 
ATOM     17  C   UNL     1      -1.607   2.102  -5.364  0.00  0.00    +0.001 A 
ATOM     18  C   UNL     1      -2.700   2.836  -4.940  0.00  0.00    +0.001 A 
ATOM     19  C   UNL     1      -2.567   3.756  -3.916  0.00  0.00    +0.021 A 
ATOM     20  C   UNL     1      -1.343   3.944  -3.306  0.00  0.00    +0.052 A 
ATOM     21 CL   UNL     1      -1.179   5.094  -2.016  0.00  0.00    -0.083 Cl
ENDBRANCH  13  15
ENDBRANCH   2  10
BRANCH   7  22
ATOM     22  C   UNL     1       4.491   0.520   1.963  0.00  0.00    +0.436 C 
ATOM     23  F   UNL     1       3.317  -0.237   1.881  0.00  0.00    -0.166 F 
ATOM     24  F   UNL     1       5.517  -0.266   2.498  0.00  0.00    -0.166 F 
ATOM     25  F   UNL     1       4.274   1.629   2.788  0.00  0.00    -0.166 F 
ENDBRANCH   7  22
BRANCH   1  26
ATOM     26  C   UNL     1       2.475   1.081  -0.015  0.00  0.00    +0.173 C 
ATOM     27  O   UNL     1       2.497  -0.132  -0.021  0.00  0.00    -0.292 OA
BRANCH  26  31
ATOM     28  C   UNL     1      -1.236   3.135   0.029  0.00  0.00    +0.000 A 
ATOM     29  C   UNL     1      -1.215   1.751   0.017  0.00  0.00    +0.001 A 
ATOM     30  C   UNL     1      -0.013   1.076   0.008  0.00  0.00    +0.011 A 
ATOM     31  C   UNL     1       1.188   1.793   0.000  0.00  0.00    +0.018 A 
ATOM     32  C   UNL     1       1.158   3.192   0.008  0.00  0.00    +0.011 A 
ATOM     33  C   UNL     1      -0.052   3.852   0.022  0.00  0.00    +0.001 A 
ENDBRANCH  26  31
ENDBRANCH   1  26
BRANCH   7  34
ATOM     34  O   UNL     1       6.090   1.766   0.645  0.00  0.00    -0.364 OA
ATOM     35  H   UNL     1       6.844   1.283   1.009  0.00  0.00    +0.212 HD
ENDBRANCH   7  34
TORSDOF 6
