REMARK  Name = ZINC37332429
REMARK  3 active torsions:
REMARK  status: ('A' for Active; 'I' for Inactive)
REMARK    1  A    between atoms: C_2  and  C_8
REMARK    2  A    between atoms: C_8  and  C_10
REMARK    3  A    between atoms: C_8  and  N_22
REMARK                            x       y       z     vdW  Elec       q    Type
REMARK                         _______ _______ _______ _____ _____    ______ ____
ROOT
ATOM      1  C   UNL     1       1.226   3.566   0.009  0.00  0.00    -0.011 C 
ENDROOT
BRANCH   1   2
ATOM      2  C   UNL     1       1.496   4.056   1.408  0.00  0.00    -0.040 A 
ATOM      3  C   UNL     1       2.772   4.458   1.764  0.00  0.00    +0.052 A 
ATOM      4  C   UNL     1       3.016   4.908   3.050  0.00  0.00    +0.162 A 
ATOM      5  C   UNL     1       1.986   4.954   3.978  0.00  0.00    +0.163 A 
ATOM      6  C   UNL     1       0.711   4.550   3.620  0.00  0.00    +0.065 A 
ATOM      7  C   UNL     1       0.468   4.107   2.332  0.00  0.00    +0.023 A 
ATOM      8 BR   UNL     1      -1.273   3.562   1.834  0.00  0.00    -0.050 Br
ATOM      9  O   UNL     1       2.237   5.400   5.243  0.00  0.00    -0.488 OA
ATOM     10  C   UNL     1       3.067   4.560   6.048  0.00  0.00    +0.232 C 
ATOM     11  C   UNL     1       4.537   4.836   5.779  0.00  0.00    +0.082 C 
ATOM     12  C   UNL     1       4.943   4.476   4.358  0.00  0.00    +0.232 C 
ATOM     13  O   UNL     1       4.269   5.310   3.412  0.00  0.00    -0.488 OA
ENDBRANCH   1   2
BRANCH   1  15
ATOM     14  C   UNL     1      -0.017   1.383   0.010  0.00  0.00    +0.020 A 
ATOM     15  C   UNL     1       1.194   2.059   0.002  0.00  0.00    -0.038 A 
ATOM     16  C   UNL     1       2.370   1.334  -0.013  0.00  0.00    +0.113 A 
ATOM     17  N   UNL     1       2.351   0.016  -0.020  0.00  0.00    -0.262 NA
ATOM     18  C   UNL     1       1.219  -0.661  -0.013  0.00  0.00    +0.126 A 
ATOM     19  C   UNL     1       0.002  -0.004   0.002  0.00  0.00    +0.036 A 
ATOM     20 BR   UNL     1      -1.615  -0.984   0.013  0.00  0.00    -0.049 Br
ENDBRANCH   1  15
BRANCH   1  21
ATOM     21  N   UNL     1       2.289   4.037  -0.889  0.00  0.00    +0.385 N 
ATOM     22  H   UNL     1       2.108   3.709  -1.826  0.00  0.00    -0.089 HD
ATOM     23  H   UNL     1       2.310   5.046  -0.884  0.00  0.00    -0.089 HD
ATOM     24  H   UNL     1       3.178   3.680  -0.574  0.00  0.00    -0.089 HD
ENDBRANCH   1  21
TORSDOF 3
