REMARK  Name = ZINC08883256
REMARK  5 active torsions:
REMARK  status: ('A' for Active; 'I' for Inactive)
REMARK    1  A    between atoms: C_7  and  S_11
REMARK    2  A    between atoms: S_11  and  C_12
REMARK    3  A    between atoms: C_12  and  C_13
REMARK    4  A    between atoms: C_16  and  C_26
REMARK    5  A    between atoms: C_19  and  C_21
REMARK                            x       y       z     vdW  Elec       q    Type
REMARK                         _______ _______ _______ _____ _____    ______ ____
ROOT
ATOM      1  C   UNL     1       2.263   1.843  -0.973  0.00  0.00    +0.246 C 
ATOM      2  O   UNL     1       1.978   1.174  -1.945  0.00  0.00    -0.273 OA
ATOM      3  N   UNL     1       1.352   2.039   0.000  0.00  0.00    -0.184 N 
ATOM      4  C   UNL     1      -0.018   1.503   0.010  0.00  0.00    +0.137 C 
ATOM      5  C   UNL     1      -0.604   2.030   1.335  0.00  0.00    +0.087 C 
ATOM      6  C   UNL     1       0.528   2.826   1.943  0.00  0.00    +0.075 C 
ATOM      7  N   UNL     1       1.554   2.784   1.161  0.00  0.00    -0.180 NA
ENDROOT
BRANCH   4   8
ATOM      8  C   UNL     1       0.002  -0.004   0.002  0.00  0.00    -0.025 A 
ATOM      9  C   UNL     1       0.959  -0.686   0.731  0.00  0.00    +0.008 A 
ATOM     10  C   UNL     1       0.975  -2.068   0.728  0.00  0.00    +0.038 A 
ATOM     11  C   UNL     1       0.040  -2.769  -0.014  0.00  0.00    +0.123 A 
ATOM     12  C   UNL     1      -0.914  -2.085  -0.748  0.00  0.00    +0.038 A 
ATOM     13  C   UNL     1      -0.932  -0.703  -0.739  0.00  0.00    +0.008 A 
ATOM     14  F   UNL     1       0.059  -4.120  -0.021  0.00  0.00    -0.205 F 
ENDBRANCH   4   8
BRANCH   6  15
ATOM     15  C   UNL     1       0.469   3.537   3.225  0.00  0.00    +0.035 A 
ATOM     16  C   UNL     1       1.450   4.285   3.853  0.00  0.00    +0.017 A 
ATOM     17  C   UNL     1       1.155   4.863   5.066  0.00  0.00    +0.008 A 
ATOM     18  C   UNL     1      -0.079   4.684   5.605  0.00  0.00    +0.046 A 
ATOM     19  S   UNL     1      -0.887   3.671   4.377  0.00  0.00    -0.095 S 
ENDBRANCH   6  15
BRANCH   1  20
ATOM     20  C   UNL     1       3.636   2.453  -0.855  0.00  0.00    +0.172 C 
BRANCH  20  21
ATOM     21  S   UNL     1       4.622   2.010  -2.311  0.00  0.00    -0.114 S 
BRANCH  21  28
ATOM     22  C   UNL     1       8.841   2.300  -4.720  0.00  0.00    +0.001 A 
ATOM     23  C   UNL     1       9.828   3.049  -4.095  0.00  0.00    +0.002 A 
ATOM     24  C   UNL     1       9.589   3.651  -2.879  0.00  0.00    +0.026 A 
ATOM     25  C   UNL     1       8.346   3.508  -2.269  0.00  0.00    +0.048 A 
ATOM     26  C   UNL     1       7.350   2.748  -2.908  0.00  0.00    +0.013 A 
ATOM     27  C   UNL     1       7.614   2.146  -4.139  0.00  0.00    +0.011 A 
ATOM     28  C   UNL     1       6.177   2.789  -2.026  0.00  0.00    +0.033 A 
ATOM     29  C   UNL     1       6.514   3.539  -0.960  0.00  0.00    +0.098 A 
ATOM     30  N   UNL     1       7.813   3.973  -1.089  0.00  0.00    -0.360 N 
ATOM     31  H   UNL     1       8.282   4.527  -0.446  0.00  0.00    +0.165 HD
ENDBRANCH  21  28
ENDBRANCH  20  21
ENDBRANCH   1  20
TORSDOF 5
