REMARK  Name = ZINC12885419
REMARK  7 active torsions:
REMARK  status: ('A' for Active; 'I' for Inactive)
REMARK    1  A    between atoms: C_1  and  C_2
REMARK    2  A    between atoms: C_2  and  C_3
REMARK    3  A    between atoms: C_2  and  C_4
REMARK    4  A    between atoms: C_4  and  C_6
REMARK    5  A    between atoms: C_4  and  N_15
REMARK    6  A    between atoms: N_8  and  C_9
REMARK    7  A    between atoms: C_16  and  C_18
REMARK                            x       y       z     vdW  Elec       q    Type
REMARK                         _______ _______ _______ _____ _____    ______ ____
ROOT
ATOM      1  C   UNL     1      -1.440  -0.229  -3.257  0.00  0.00    +0.167 C 
ATOM      2  C   UNL     1      -2.837  -0.673  -2.800  0.00  0.00    +0.069 C 
ATOM      3  C   UNL     1      -2.859  -2.159  -2.552  0.00  0.00    -0.015 A 
ATOM      4  C   UNL     1      -3.873  -2.915  -1.838  0.00  0.00    +0.003 A 
ATOM      5  C   UNL     1      -5.057  -2.533  -1.199  0.00  0.00    +0.010 A 
ATOM      6  C   UNL     1      -5.795  -3.533  -0.615  0.00  0.00    +0.001 A 
ATOM      7  C   UNL     1      -5.395  -4.859  -0.650  0.00  0.00    +0.002 A 
ATOM      8  C   UNL     1      -4.228  -5.264  -1.276  0.00  0.00    +0.026 A 
ATOM      9  C   UNL     1      -3.459  -4.270  -1.879  0.00  0.00    +0.047 A 
ATOM     10  N   UNL     1      -2.282  -4.314  -2.567  0.00  0.00    -0.356 N 
ATOM     11  H   UNL     1      -1.773  -5.119  -2.751  0.00  0.00    +0.166 HD
ATOM     12  C   UNL     1      -1.927  -3.051  -2.959  0.00  0.00    +0.046 A 
ATOM     13  C   UNL     1      -0.691  -2.654  -3.727  0.00  0.00    +0.155 C 
ATOM     14  N   UNL     1      -0.916  -1.255  -4.164  0.00  0.00    -0.273 N 
ATOM     15  C   UNL     1      -0.606  -1.160  -5.463  0.00  0.00    +0.248 C 
ATOM     16  O   UNL     1      -0.487  -0.119  -6.079  0.00  0.00    -0.270 OA
ATOM     17  C   UNL     1      -0.432  -2.502  -6.028  0.00  0.00    +0.042 A 
ATOM     18  C   UNL     1      -0.513  -3.441  -4.980  0.00  0.00    -0.009 A 
ATOM     19  C   UNL     1      -0.428  -4.794  -5.218  0.00  0.00    +0.006 A 
ATOM     20  C   UNL     1      -0.243  -5.195  -6.537  0.00  0.00    +0.000 A 
ATOM     21  C   UNL     1      -0.147  -4.283  -7.569  0.00  0.00    +0.001 A 
ATOM     22  C   UNL     1      -0.239  -2.917  -7.348  0.00  0.00    +0.013 A 
ENDROOT
BRANCH   1  24
ATOM     23  N   UNL     1      -0.832   0.788  -1.086  0.00  0.00    -0.302 N 
ATOM     24  C   UNL     1      -0.533  -0.092  -2.062  0.00  0.00    +0.235 C 
ATOM     25  O   UNL     1       0.467  -0.774  -1.979  0.00  0.00    -0.274 OA
ATOM     26  H   UNL     1      -1.631   1.333  -1.153  0.00  0.00    +0.150 HD
BRANCH  23  27
ATOM     27  C   UNL     1       0.051   0.921   0.076  0.00  0.00    +0.161 C 
BRANCH  27  28
ATOM     28  C   UNL     1      -0.737   1.446   1.248  0.00  0.00    +0.234 C 
ATOM     29  O   UNL     1      -1.807   1.987   1.066  0.00  0.00    -0.274 OA
ATOM     30  N   UNL     1      -0.254   1.313   2.499  0.00  0.00    -0.311 N 
ATOM     31  H   UNL     1       0.563   0.812   2.653  0.00  0.00    +0.149 HD
BRANCH  30  32
ATOM     32  C   UNL     1      -0.962   1.924   3.627  0.00  0.00    +0.073 C 
ATOM     33  C   UNL     1      -0.526   3.384   3.771  0.00  0.00    +0.022 C 
ATOM     34  C   UNL     1      -1.265   4.022   4.949  0.00  0.00    +0.002 C 
ATOM     35  C   UNL     1      -0.931   3.261   6.233  0.00  0.00    +0.000 C 
ATOM     36  C   UNL     1      -1.367   1.802   6.089  0.00  0.00    +0.002 C 
ATOM     37  C   UNL     1      -0.628   1.163   4.911  0.00  0.00    +0.022 C 
ENDBRANCH  30  32
ENDBRANCH  27  28
BRANCH  27  39
ATOM     38  C   UNL     1       2.053   1.308  -1.367  0.00  0.00    +0.009 C 
ATOM     39  C   UNL     1       1.184   1.895  -0.254  0.00  0.00    +0.012 C 
ATOM     40  C   UNL     1       0.593   3.228  -0.717  0.00  0.00    +0.009 C 
ENDBRANCH  27  39
ENDBRANCH  23  27
ENDBRANCH   1  24
TORSDOF 5
