REMARK  Name = ZINC06594319
REMARK  6 active torsions:
REMARK  status: ('A' for Active; 'I' for Inactive)
REMARK    1  A    between atoms: C_4  and  C_7
REMARK    2  A    between atoms: C_8  and  C_9
REMARK    3  A    between atoms: N_11  and  C_12
REMARK    4  A    between atoms: C_12  and  C_20
REMARK    5  A    between atoms: C_13  and  C_14
REMARK    6  A    between atoms: N_22  and  C_23
REMARK                            x       y       z     vdW  Elec       q    Type
REMARK                         _______ _______ _______ _____ _____    ______ ____
ROOT
ATOM      1  C   UNL     1       5.818  -4.774   0.343  0.00  0.00    +0.097 C 
ATOM      2  C   UNL     1       6.688  -3.992  -0.338  0.00  0.00    +0.036 C 
ENDROOT
BRANCH   2   3
ATOM      3  C   UNL     1       7.575  -4.587  -1.350  0.00  0.00    -0.023 A 
ATOM      4  C   UNL     1       7.147  -5.686  -2.102  0.00  0.00    +0.008 A 
ATOM      5  C   UNL     1       7.984  -6.237  -3.048  0.00  0.00    +0.001 A 
ATOM      6  C   UNL     1       9.245  -5.706  -3.255  0.00  0.00    +0.000 A 
ATOM      7  C   UNL     1       9.677  -4.619  -2.515  0.00  0.00    +0.001 A 
ATOM      8  C   UNL     1       8.849  -4.052  -1.569  0.00  0.00    +0.008 A 
ENDBRANCH   2   3
BRANCH   1  11
ATOM      9  C   UNL     1       4.097  -4.972   1.970  0.00  0.00    +0.241 C 
ATOM     10  O   UNL     1       4.168  -6.184   1.882  0.00  0.00    -0.270 OA
ATOM     11  N   UNL     1       4.872  -4.193   1.190  0.00  0.00    -0.278 N 
ATOM     12  H   UNL     1       4.773  -3.228   1.218  0.00  0.00    +0.155 HD
BRANCH   9  14
ATOM     13  C   UNL     1       2.393  -5.141   3.704  0.00  0.00    +0.013 C 
ATOM     14  C   UNL     1       3.169  -4.361   2.923  0.00  0.00    +0.068 C 
BRANCH  13  18
ATOM     15  C   UNL     1      -0.294  -3.371   6.467  0.00  0.00    +0.000 A 
ATOM     16  C   UNL     1      -0.217  -4.749   6.369  0.00  0.00    +0.001 A 
ATOM     17  C   UNL     1       0.654  -5.332   5.473  0.00  0.00    +0.008 A 
ATOM     18  C   UNL     1       1.460  -4.527   4.662  0.00  0.00    -0.025 A 
ATOM     19  C   UNL     1       1.376  -3.135   4.767  0.00  0.00    +0.008 A 
ATOM     20  C   UNL     1       0.500  -2.567   5.668  0.00  0.00    +0.001 A 
ENDBRANCH  13  18
ENDBRANCH   9  14
ENDBRANCH   1  11
BRANCH   1  21
ATOM     21  C   UNL     1       5.869  -6.236   0.190  0.00  0.00    +0.262 C 
ATOM     22  O   UNL     1       5.008  -6.811  -0.448  0.00  0.00    -0.268 OA
ATOM     23  N   UNL     1       6.870  -6.938   0.757  0.00  0.00    -0.280 N 
ATOM     24  H   UNL     1       7.513  -6.491   1.329  0.00  0.00    +0.155 HD
BRANCH  23  25
ATOM     25  C   UNL     1       6.982  -8.311   0.521  0.00  0.00    +0.034 A 
ATOM     26  C   UNL     1       6.621  -8.837  -0.714  0.00  0.00    +0.023 A 
ATOM     27  C   UNL     1       6.732 -10.194  -0.944  0.00  0.00    +0.002 A 
ATOM     28  C   UNL     1       7.202 -11.030   0.052  0.00  0.00    +0.000 A 
ATOM     29  C   UNL     1       7.562 -10.510   1.282  0.00  0.00    +0.002 A 
ATOM     30  C   UNL     1       7.458  -9.153   1.517  0.00  0.00    +0.023 A 
ENDBRANCH  23  25
ENDBRANCH   1  21
TORSDOF 6
