REMARK  Name = ZINC36604313
REMARK  9 active torsions:
REMARK  status: ('A' for Active; 'I' for Inactive)
REMARK    1  A    between atoms: C_4  and  C_7
REMARK    2  A    between atoms: C_7  and  O_8
REMARK    3  A    between atoms: O_8  and  C_9
REMARK    4  A    between atoms: C_15  and  C_17
REMARK    5  A    between atoms: N_19  and  C_20
REMARK    6  A    between atoms: N_19  and  C_26
REMARK    7  A    between atoms: C_26  and  C_28
REMARK    8  A    between atoms: C_26  and  C_33
REMARK    9  A    between atoms: N_35  and  C_36
REMARK                            x       y       z     vdW  Elec       q    Type
REMARK                         _______ _______ _______ _____ _____    ______ ____
ROOT
ATOM      1  C   UNL     1       6.893  -3.897   2.263  0.00  0.00    +0.241 C 
ATOM      2  O   UNL     1       5.826  -4.472   2.321  0.00  0.00    -0.273 OA
ATOM      3  N   UNL     1       8.034  -4.605   2.152  0.00  0.00    -0.251 N 
ENDROOT
BRANCH   1  10
ATOM      4  C   UNL     1       5.201  -1.997   0.553  0.00  0.00    +0.404 C 
ATOM      5  O   UNL     1       5.824  -2.656  -0.256  0.00  0.00    -0.226 OA
ATOM      6  N   UNL     1       5.683  -1.833   1.801  0.00  0.00    -0.256 N 
ATOM      7  C   UNL     1       5.031  -1.068   2.880  0.00  0.00    +0.112 C 
ATOM      8  C   UNL     1       6.184  -0.661   3.831  0.00  0.00    +0.021 C 
ATOM      9  C   UNL     1       7.091  -1.919   3.776  0.00  0.00    +0.033 C 
ATOM     10  C   UNL     1       6.942  -2.392   2.314  0.00  0.00    +0.166 C 
BRANCH   4  11
ATOM     11  O   UNL     1       4.030  -1.431   0.203  0.00  0.00    -0.445 OA
BRANCH  11  12
ATOM     12  C   UNL     1       3.580  -1.647  -1.135  0.00  0.00    +0.269 C 
BRANCH  12  16
ATOM     13  C   UNL     1      -0.152   0.346  -1.723  0.00  0.00    +0.000 A 
ATOM     14  C   UNL     1       1.034   1.009  -1.981  0.00  0.00    +0.000 A 
ATOM     15  C   UNL     1       2.241   0.364  -1.791  0.00  0.00    +0.007 A 
ATOM     16  C   UNL     1       2.264  -0.943  -1.342  0.00  0.00    -0.010 A 
ATOM     17  C   UNL     1       1.078  -1.606  -1.083  0.00  0.00    +0.007 A 
ATOM     18  C   UNL     1      -0.130  -0.961  -1.275  0.00  0.00    +0.000 A 
ENDBRANCH  12  16
ENDBRANCH  11  12
ENDBRANCH   4  11
ENDBRANCH   1  10
BRANCH   3  19
ATOM     19  C   UNL     1       9.270  -3.950   2.188  0.00  0.00    +0.038 A 
ATOM     20  C   UNL     1       9.904  -3.594   1.004  0.00  0.00    +0.023 A 
ATOM     21  C   UNL     1      11.123  -2.947   1.043  0.00  0.00    +0.002 A 
ATOM     22  C   UNL     1      11.714  -2.655   2.259  0.00  0.00    +0.000 A 
ATOM     23  C   UNL     1      11.086  -3.009   3.439  0.00  0.00    +0.002 A 
ATOM     24  C   UNL     1       9.863  -3.650   3.407  0.00  0.00    +0.023 A 
ENDBRANCH   3  19
BRANCH   3  25
ATOM     25  C   UNL     1       7.981  -6.061   1.994  0.00  0.00    +0.233 C 
BRANCH  25  26
ATOM     26  C   UNL     1       8.772  -6.463   0.775  0.00  0.00    +0.135 A 
ATOM     27  C   UNL     1       8.341  -7.269  -0.212  0.00  0.00    +0.047 A 
ATOM     28  C   UNL     1       9.398  -7.375  -1.145  0.00  0.00    +0.041 A 
ATOM     29  C   UNL     1      10.411  -6.628  -0.672  0.00  0.00    +0.195 A 
ATOM     30  O   UNL     1      10.025  -6.073   0.488  0.00  0.00    -0.465 OA
ENDBRANCH  25  26
BRANCH  25  31
ATOM     31  C   UNL     1       8.569  -6.721   3.214  0.00  0.00    +0.242 C 
ATOM     32  O   UNL     1       8.991  -6.042   4.127  0.00  0.00    -0.273 OA
ATOM     33  N   UNL     1       8.626  -8.065   3.292  0.00  0.00    -0.311 N 
ATOM     34  H   UNL     1       8.289  -8.608   2.563  0.00  0.00    +0.149 HD
BRANCH  33  35
ATOM     35  C   UNL     1       9.197  -8.706   4.479  0.00  0.00    +0.073 C 
ATOM     36  C   UNL     1      10.717  -8.797   4.328  0.00  0.00    +0.022 C 
ATOM     37  C   UNL     1      11.314  -9.467   5.567  0.00  0.00    +0.002 C 
ATOM     38  C   UNL     1      10.731 -10.874   5.717  0.00  0.00    +0.000 C 
ATOM     39  C   UNL     1       9.211 -10.783   5.868  0.00  0.00    +0.002 C 
ATOM     40  C   UNL     1       8.615 -10.113   4.629  0.00  0.00    +0.022 C 
ENDBRANCH  33  35
ENDBRANCH  25  31
ENDBRANCH   3  25
TORSDOF 9
