REMARK  Name = ZINC14466437
REMARK  4 active torsions:
REMARK  status: ('A' for Active; 'I' for Inactive)
REMARK    1  A    between atoms: C_5  and  C_7
REMARK    2  A    between atoms: C_18  and  O_23
REMARK    3  A    between atoms: O_23  and  C_24
REMARK    4  A    between atoms: C_24  and  C_25
REMARK                            x       y       z     vdW  Elec       q    Type
REMARK                         _______ _______ _______ _____ _____    ______ ____
ROOT
ATOM      1  C   UNL     1       0.996   0.916  -7.247  0.00  0.00    +0.106 C 
ATOM      2  C   UNL     1      -0.328   1.006  -8.011  0.00  0.00    +0.029 C 
ATOM      3  C   UNL     1      -0.066   1.848  -9.295  0.00  0.00    +0.033 C 
ATOM      4  C   UNL     1      -0.153   3.279  -8.800  0.00  0.00    -0.030 C 
ATOM      5  C   UNL     1      -0.837   3.337  -7.684  0.00  0.00    -0.023 C 
ATOM      6  C   UNL     1      -1.295   1.956  -7.278  0.00  0.00    +0.049 C 
ATOM      7  C   UNL     1      -1.267   1.785  -5.792  0.00  0.00    -0.016 A 
ATOM      8  C   UNL     1      -2.261   2.389  -5.034  0.00  0.00    +0.051 A 
ATOM      9  C   UNL     1      -2.277   2.250  -3.657  0.00  0.00    +0.121 A 
ATOM     10  C   UNL     1      -1.293   1.509  -3.020  0.00  0.00    +0.047 A 
ATOM     11  C   UNL     1      -0.304   0.902  -3.768  0.00  0.00    +0.027 A 
ATOM     12  C   UNL     1      -0.289   1.043  -5.149  0.00  0.00    +0.032 A 
ATOM     13  N   UNL     1       0.729   0.426  -5.891  0.00  0.00    -0.336 N 
ATOM     14  H   UNL     1       1.243  -0.305  -5.517  0.00  0.00    +0.147 HD
ENDROOT
BRANCH   1  19
ATOM     15  C   UNL     1       1.862   4.408  -6.103  0.00  0.00    +0.000 A 
ATOM     16  C   UNL     1       2.803   4.782  -7.043  0.00  0.00    +0.001 A 
ATOM     17  C   UNL     1       3.161   3.906  -8.050  0.00  0.00    +0.020 A 
ATOM     18  C   UNL     1       2.576   2.653  -8.117  0.00  0.00    +0.046 A 
ATOM     19  C   UNL     1       1.634   2.280  -7.175  0.00  0.00    -0.009 A 
ATOM     20  C   UNL     1       1.273   3.159  -6.172  0.00  0.00    +0.007 A 
ATOM     21 CL   UNL     1       3.025   1.551  -9.381  0.00  0.00    -0.083 Cl
ENDBRANCH   1  19
BRANCH   9  22
ATOM     22  O   UNL     1      -3.256   2.847  -2.926  0.00  0.00    -0.489 OA
BRANCH  22  23
ATOM     23  C   UNL     1      -3.213   2.663  -1.510  0.00  0.00    +0.260 C 
BRANCH  23  24
ATOM     24  C   UNL     1      -4.386   3.403  -0.863  0.00  0.00    +0.156 C 
ATOM     25  C   UNL     1      -4.289   3.322   0.677  0.00  0.00    +0.037 C 
ATOM     26  C   UNL     1      -5.757   3.178   1.138  0.00  0.00    +0.031 C 
ATOM     27  C   UNL     1      -6.566   3.187  -0.177  0.00  0.00    +0.160 C 
ATOM     28  O   UNL     1      -5.633   2.750  -1.189  0.00  0.00    -0.373 OA
ENDBRANCH  23  24
ENDBRANCH  22  23
ENDBRANCH   9  22
TORSDOF 4
