REMARK  Name = ZINC50249292
REMARK  5 active torsions:
REMARK  status: ('A' for Active; 'I' for Inactive)
REMARK    1  A    between atoms: C_3  and  C_11
REMARK    2  A    between atoms: C_6  and  N_7
REMARK    3  A    between atoms: C_11  and  N_12
REMARK    4  A    between atoms: C_15  and  C_18
REMARK    5  A    between atoms: C_18  and  N_19
REMARK                            x       y       z     vdW  Elec       q    Type
REMARK                         _______ _______ _______ _____ _____    ______ ____
ROOT
ATOM      1  C   UNL     1       3.672   2.184  -0.022  0.00  0.00    -0.042 C 
ENDROOT
BRANCH   1   4
ATOM      2  C   UNL     1      -0.017   1.378   0.010  0.00  0.00    +0.033 A 
ATOM      3  C   UNL     1       1.171   2.086   0.002  0.00  0.00    +0.005 A 
ATOM      4  C   UNL     1       2.377   1.412  -0.013  0.00  0.00    -0.050 A 
ATOM      5  C   UNL     1       2.397   0.029  -0.021  0.00  0.00    +0.021 A 
ATOM      6  C   UNL     1       1.208  -0.679  -0.013  0.00  0.00    +0.048 A 
ATOM      7  C   UNL     1       0.002  -0.004   0.002  0.00  0.00    +0.127 A 
ATOM      8 BR   UNL     1       4.047  -0.894  -0.042  0.00  0.00    -0.050 Br
BRANCH   7   9
ATOM      9  N   UNL     1      -1.270  -0.761   0.010  0.00  0.00    +0.056 N 
ATOM     10  O   UNL     1      -2.325  -0.171   0.023  0.00  0.00    -0.126 OA
ATOM     11  O   UNL     1      -1.253  -1.970   0.004  0.00  0.00    -0.126 OA
ENDBRANCH   7   9
ENDBRANCH   1   4
BRANCH   1  12
ATOM     12  N   UNL     1       4.289   2.120   1.310  0.00  0.00    +0.383 N 
ATOM     13  C   UNL     1       3.439   2.833   2.287  0.00  0.00    -0.078 C 
ATOM     14  C   UNL     1       4.436   3.508   3.261  0.00  0.00    -0.019 C 
ATOM     15  C   UNL     1       5.580   3.925   2.299  0.00  0.00    -0.047 C 
ATOM     16  C   UNL     1       5.611   2.771   1.275  0.00  0.00    -0.077 C 
ATOM     17  H   UNL     1       4.392   1.156   1.591  0.00  0.00    -0.081 HD
BRANCH  15  18
ATOM     18  C   UNL     1       6.909   4.024   3.050  0.00  0.00    -0.085 C 
BRANCH  18  19
ATOM     19  N   UNL     1       6.847   5.132   4.012  0.00  0.00    +0.378 N 
ATOM     20  H   UNL     1       6.674   5.996   3.520  0.00  0.00    -0.090 HD
ATOM     21  H   UNL     1       6.101   4.965   4.670  0.00  0.00    -0.090 HD
ATOM     22  H   UNL     1       7.724   5.197   4.507  0.00  0.00    -0.090 HD
ENDBRANCH  18  19
ENDBRANCH  15  18
ENDBRANCH   1  12
TORSDOF 5
