REMARK  Name = ZINC62347128
REMARK  4 active torsions:
REMARK  status: ('A' for Active; 'I' for Inactive)
REMARK    1  A    between atoms: C_1  and  C_2
REMARK    2  A    between atoms: C_12  and  C_14
REMARK    3  A    between atoms: C_14  and  C_16
REMARK    4  A    between atoms: C_16  and  N_17
REMARK                            x       y       z     vdW  Elec       q    Type
REMARK                         _______ _______ _______ _____ _____    ______ ____
ROOT
ATOM      1  C   UNL     1       1.232  -0.899   0.002  0.00  0.00    +0.109 C 
ATOM      2  C   UNL     1      -0.076  -0.151  -0.004  0.00  0.00    +0.217 C 
ATOM      3  O   UNL     1      -0.087   1.052   0.151  0.00  0.00    -0.276 OA
ATOM      4  N   UNL     1      -1.233  -0.819  -0.182  0.00  0.00    -0.271 N 
ATOM      5  C   UNL     1      -1.242  -2.284  -0.281  0.00  0.00    +0.114 C 
ATOM      6  C   UNL     1      -2.160  -2.670  -1.448  0.00  0.00    +0.024 C 
ATOM      7  C   UNL     1      -3.584  -2.213  -1.128  0.00  0.00    +0.038 C 
ATOM      8  C   UNL     1      -3.594  -0.761  -0.728  0.00  0.00    -0.026 A 
ATOM      9  C   UNL     1      -2.449  -0.127  -0.271  0.00  0.00    +0.039 A 
ATOM     10  C   UNL     1      -2.494   1.212   0.101  0.00  0.00    +0.024 A 
ATOM     11  C   UNL     1      -3.682   1.912   0.019  0.00  0.00    +0.007 A 
ATOM     12  C   UNL     1      -4.825   1.280  -0.434  0.00  0.00    -0.031 A 
ATOM     13  C   UNL     1      -4.780  -0.051  -0.815  0.00  0.00    +0.010 A 
ENDROOT
BRANCH  12  14
ATOM     14  C   UNL     1      -6.121   2.043  -0.525  0.00  0.00    +0.094 C 
ATOM     15 CL   UNL     1      -6.501   2.775   1.079  0.00  0.00    -0.119 Cl
BRANCH  14  16
ATOM     16  C   UNL     1      -5.987   3.151  -1.572  0.00  0.00    -0.055 C 
BRANCH  16  17
ATOM     17  N   UNL     1      -7.213   3.961  -1.587  0.00  0.00    +0.381 N 
ATOM     18  C   UNL     1      -7.082   5.071  -2.565  0.00  0.00    -0.079 C 
ATOM     19  C   UNL     1      -8.553   5.446  -2.875  0.00  0.00    -0.020 C 
ATOM     20  C   UNL     1      -9.266   4.075  -2.878  0.00  0.00    -0.020 C 
ATOM     21  C   UNL     1      -8.357   3.146  -2.052  0.00  0.00    -0.079 C 
ATOM     22  H   UNL     1      -7.400   4.328  -0.666  0.00  0.00    -0.082 HD
ENDBRANCH  16  17
ENDBRANCH  14  16
ENDBRANCH  12  14
TORSDOF 3
