REMARK  Name = ZINC09113548
REMARK  10 active torsions:
REMARK  status: ('A' for Active; 'I' for Inactive)
REMARK    1  A    between atoms: C_1  and  C_2
REMARK    2  A    between atoms: C_2  and  C_3
REMARK    3  A    between atoms: C_2  and  C_4
REMARK    4  A    between atoms: C_4  and  C_6
REMARK    5  A    between atoms: C_4  and  S_12
REMARK    6  A    between atoms: S_12  and  C_13
REMARK    7  A    between atoms: C_16  and  S_19
REMARK    8  A    between atoms: S_19  and  N_22
REMARK    9  A    between atoms: N_22  and  C_23
REMARK   10  A    between atoms: N_22  and  C_24
REMARK                            x       y       z     vdW  Elec       q    Type
REMARK                         _______ _______ _______ _____ _____    ______ ____
ROOT
ATOM      1  C   UNL     1      -5.241   0.289   0.650  0.00  0.00    +0.098 A 
ATOM      2  C   UNL     1      -6.542   0.494   1.101  0.00  0.00    +0.037 A 
ATOM      3  C   UNL     1      -7.476  -0.513   0.941  0.00  0.00    +0.032 A 
ATOM      4  C   UNL     1      -7.077  -1.697   0.334  0.00  0.00    +0.124 A 
ATOM      5  C   UNL     1      -5.770  -1.833  -0.088  0.00  0.00    +0.140 A 
ATOM      6  N   UNL     1      -4.901  -0.853   0.072  0.00  0.00    -0.247 NA
ENDROOT
BRANCH   4   7
ATOM      7  S   UNL     1      -8.227  -3.012   0.107  0.00  0.00    +0.062 S 
ATOM      8  O   UNL     1      -7.464  -4.207   0.011  0.00  0.00    -0.153 OA
ATOM      9  O   UNL     1      -9.245  -2.835   1.083  0.00  0.00    -0.153 OA
BRANCH   7  10
ATOM     10  N   UNL     1      -8.943  -2.787  -1.369  0.00  0.00    -0.177 NA
ATOM     11  C   UNL     1      -8.353  -3.387  -2.568  0.00  0.00    +0.132 C 
BRANCH  10  12
ATOM     12  C   UNL     1     -10.167  -1.989  -1.475  0.00  0.00    +0.080 C 
ATOM     13  C   UNL     1     -11.291  -2.853  -2.049  0.00  0.00    +0.020 C 
ATOM     14  C   UNL     1     -12.569  -2.020  -2.160  0.00  0.00    +0.002 C 
ATOM     15  C   UNL     1     -12.321  -0.827  -3.085  0.00  0.00    +0.000 C 
ATOM     16  C   UNL     1     -11.196   0.038  -2.512  0.00  0.00    +0.002 C 
ATOM     17  C   UNL     1      -9.918  -0.796  -2.401  0.00  0.00    +0.020 C 
ENDBRANCH  10  12
ENDBRANCH   7  10
ENDBRANCH   4   7
BRANCH   1  18
ATOM     18  S   UNL     1      -4.038   1.562   0.846  0.00  0.00    -0.093 S 
BRANCH  18  19
ATOM     19  C   UNL     1      -2.548   0.879   0.070  0.00  0.00    +0.141 C 
BRANCH  19  20
ATOM     20  C   UNL     1      -1.376   1.784   0.351  0.00  0.00    +0.234 C 
ATOM     21  O   UNL     1      -1.564   2.936   0.678  0.00  0.00    -0.274 OA
ATOM     22  N   UNL     1      -0.118   1.312   0.239  0.00  0.00    -0.239 N 
ATOM     23  C   UNL     1       0.930   2.123   0.486  0.00  0.00    +0.303 C 
ATOM     24  O   UNL     1       0.741   3.278   0.813  0.00  0.00    -0.253 OA
ATOM     25  N   UNL     1       2.188   1.653   0.369  0.00  0.00    -0.313 N 
ATOM     26  H   UNL     1       0.033   0.390  -0.022  0.00  0.00    +0.159 HD
ATOM     27  H   UNL     1       2.338   0.731   0.107  0.00  0.00    +0.146 HD
ATOM     28  H   UNL     1       2.942   2.236   0.546  0.00  0.00    +0.146 HD
ENDBRANCH  19  20
BRANCH  19  30
ATOM     29  C   UNL     1      -2.922   2.179  -2.031  0.00  0.00    +0.009 C 
ATOM     30  C   UNL     1      -2.761   0.776  -1.442  0.00  0.00    +0.005 C 
ATOM     31  C   UNL     1      -1.553   0.090  -2.082  0.00  0.00    +0.009 C 
ENDBRANCH  19  30
ENDBRANCH  18  19
ENDBRANCH   1  18
TORSDOF 7
