REMARK  Name = ZINC03463246
REMARK  4 active torsions:
REMARK  status: ('A' for Active; 'I' for Inactive)
REMARK    1  A    between atoms: C_1  and  C_2
REMARK    2  A    between atoms: C_8  and  N_10
REMARK    3  A    between atoms: C_11  and  C_13
REMARK    4  A    between atoms: C_13  and  N_14
REMARK                            x       y       z     vdW  Elec       q    Type
REMARK                         _______ _______ _______ _____ _____    ______ ____
ROOT
ATOM      1  N   UNL     1       4.721   0.698   3.747  0.00  0.00    -0.215 N 
ATOM      2  C   UNL     1       4.625   1.783   4.555  0.00  0.00    +0.247 C 
ATOM      3  O   UNL     1       4.343   2.894   4.194  0.00  0.00    -0.273 OA
ATOM      4  C   UNL     1       4.930   1.234   5.944  0.00  0.00    +0.113 C 
ATOM      5  C   UNL     1       3.595   0.878   6.619  0.00  0.00    +0.035 C 
ATOM      6  C   UNL     1       3.296   1.838   7.778  0.00  0.00    +0.003 C 
ATOM      7  C   UNL     1       2.361   2.967   7.356  0.00  0.00    +0.000 C 
ATOM      8  C   UNL     1       3.164   4.009   6.560  0.00  0.00    +0.000 C 
ATOM      9  C   UNL     1       4.501   4.259   7.257  0.00  0.00    +0.000 C 
ATOM     10  C   UNL     1       5.640   3.623   6.465  0.00  0.00    +0.003 C 
ATOM     11  C   UNL     1       5.814   2.142   6.763  0.00  0.00    +0.035 C 
ATOM     12  N   UNL     1       5.640  -0.025   5.641  0.00  0.00    -0.285 N 
ATOM     13  C   UNL     1       5.365  -0.305   4.354  0.00  0.00    +0.310 C 
ATOM     14  O   UNL     1       5.669  -1.346   3.807  0.00  0.00    -0.252 OA
ATOM     15  H   UNL     1       6.187  -0.540   6.251  0.00  0.00    +0.151 HD
ENDROOT
BRANCH   1  16
ATOM     16  C   UNL     1       4.209   0.649   2.377  0.00  0.00    +0.213 C 
BRANCH  16  18
ATOM     17  N   UNL     1       2.116  -0.004   1.231  0.00  0.00    -0.311 N 
ATOM     18  C   UNL     1       2.795   0.128   2.388  0.00  0.00    +0.231 C 
ATOM     19  O   UNL     1       2.268  -0.174   3.438  0.00  0.00    -0.274 OA
ATOM     20  H   UNL     1       2.538   0.237   0.392  0.00  0.00    +0.149 HD
BRANCH  17  27
ATOM     21  C   UNL     1      -0.019   1.526   0.010  0.00  0.00    +0.009 C 
ATOM     22  C   UNL     1       0.002  -0.004   0.002  0.00  0.00    +0.006 C 
ATOM     23  C   UNL     1       0.718  -0.497  -1.257  0.00  0.00    +0.005 C 
ATOM     24  C   UNL     1       0.739  -2.027  -1.265  0.00  0.00    +0.000 C 
ATOM     25  C   UNL     1       1.479  -2.534  -0.026  0.00  0.00    +0.002 C 
ATOM     26  C   UNL     1       0.763  -2.041   1.233  0.00  0.00    +0.022 C 
ATOM     27  C   UNL     1       0.742  -0.511   1.242  0.00  0.00    +0.076 C 
ENDBRANCH  17  27
ENDBRANCH  16  18
ENDBRANCH   1  16
TORSDOF 3
