REMARK  Name = ZINC66348599
REMARK  8 active torsions:
REMARK  status: ('A' for Active; 'I' for Inactive)
REMARK    1  A    between atoms: C_1  and  C_2
REMARK    2  A    between atoms: C_6  and  C_29
REMARK    3  A    between atoms: C_8  and  O_11
REMARK    4  A    between atoms: O_11  and  C_12
REMARK    5  A    between atoms: C_12  and  C_14
REMARK    6  A    between atoms: C_14  and  N_21
REMARK    7  A    between atoms: C_29  and  C_30
REMARK    8  A    between atoms: C_29  and  C_31
REMARK                            x       y       z     vdW  Elec       q    Type
REMARK                         _______ _______ _______ _____ _____    ______ ____
ROOT
ATOM      1  C   UNL     1       1.356   3.541   3.036  0.00  0.00    +0.301 C 
ATOM      2  O   UNL     1       0.262   3.970   3.880  0.00  0.00    -0.301 OA
ATOM      3  C   UNL     1      -0.244   5.268   3.543  0.00  0.00    +0.310 C 
ATOM      4  C   UNL     1      -0.511   5.322   2.007  0.00  0.00    +0.141 C 
ATOM      5  S   UNL     1       0.969   4.375   1.439  0.00  0.00    -0.087 S 
ATOM      6  F   UNL     1      -1.438   5.501   4.234  0.00  0.00    -0.214 F 
ENDROOT
BRANCH   1   7
ATOM      7  N   UNL     1       2.641   4.002   3.567  0.00  0.00    -0.252 N 
ATOM      8  C   UNL     1       2.697   4.581   4.799  0.00  0.00    +0.098 A 
ATOM      9  C   UNL     1       3.891   5.003   5.279  0.00  0.00    +0.061 A 
ATOM     10  C   UNL     1       5.045   4.830   4.487  0.00  0.00    +0.123 A 
ATOM     11  N   UNL     1       4.942   4.262   3.293  0.00  0.00    -0.178 NA
ATOM     12  C   UNL     1       3.761   3.848   2.837  0.00  0.00    +0.353 A 
ATOM     13  O   UNL     1       3.693   3.323   1.738  0.00  0.00    -0.244 OA
ATOM     14  N   UNL     1       6.271   5.250   4.950  0.00  0.00    -0.343 N 
ATOM     15  H   UNL     1       6.343   5.666   5.823  0.00  0.00    +0.144 HD
ATOM     16  H   UNL     1       7.063   5.130   4.403  0.00  0.00    +0.144 HD
ENDBRANCH   1   7
BRANCH   1  17
ATOM     17  C   UNL     1       1.352   2.043   2.873  0.00  0.00    +0.373 C 
ATOM     18  O   UNL     1       2.311   1.395   3.220  0.00  0.00    -0.244 OA
BRANCH  17  19
ATOM     19  O   UNL     1       0.283   1.428   2.343  0.00  0.00    -0.457 OA
BRANCH  19  25
ATOM     20  C   UNL     1      -0.009   1.732  -0.122  0.00  0.00    +0.007 C 
ATOM     21  C   UNL     1       0.061   0.210  -0.255  0.00  0.00    -0.011 C 
ATOM     22  C   UNL     1      -1.347  -0.377  -0.139  0.00  0.00    +0.004 C 
ATOM     23  C   UNL     1      -1.943  -0.011   1.222  0.00  0.00    +0.007 C 
ATOM     24  C   UNL     1      -1.060  -0.581   2.334  0.00  0.00    +0.032 C 
ATOM     25  C   UNL     1       0.348   0.006   2.219  0.00  0.00    +0.180 C 
ATOM     26  C   UNL     1       0.943  -0.360   0.858  0.00  0.00    +0.048 C 
BRANCH  24  27
ATOM     27  C   UNL     1      -1.655  -0.215   3.695  0.00  0.00    -0.011 C 
ATOM     28  C   UNL     1      -3.063  -0.802   3.811  0.00  0.00    +0.007 C 
ATOM     29  C   UNL     1      -0.772  -0.784   4.808  0.00  0.00    +0.007 C 
ENDBRANCH  24  27
ENDBRANCH  19  25
ENDBRANCH  17  19
ENDBRANCH   1  17
TORSDOF 5
