REMARK  Name = ZINC19777870
REMARK  10 active torsions:
REMARK  status: ('A' for Active; 'I' for Inactive)
REMARK    1  A    between atoms: C_1  and  C_2
REMARK    2  A    between atoms: C_5  and  C_22
REMARK    3  A    between atoms: C_6  and  O_8
REMARK    4  A    between atoms: O_8  and  C_9
REMARK    5  A    between atoms: C_9  and  C_10
REMARK    6  A    between atoms: C_10  and  O_11
REMARK    7  A    between atoms: O_11  and  C_12
REMARK    8  A    between atoms: C_17  and  C_18
REMARK    9  A    between atoms: C_18  and  N_19
REMARK   10  A    between atoms: N_19  and  C_20
REMARK                            x       y       z     vdW  Elec       q    Type
REMARK                         _______ _______ _______ _____ _____    ______ ____
ROOT
ATOM      1  O   UNL     1       4.282   5.571  -1.229  0.00  0.00    -0.488 OA
ENDROOT
BRANCH   1   2
ATOM      2  C   UNL     1       5.548   6.036  -1.399  0.00  0.00    +0.122 A 
ATOM      3  C   UNL     1       6.149   6.793  -0.404  0.00  0.00    +0.047 A 
ATOM      4  C   UNL     1       7.436   7.264  -0.579  0.00  0.00    +0.023 A 
ATOM      5  C   UNL     1       8.124   6.983  -1.746  0.00  0.00    +0.041 A 
ATOM      6  C   UNL     1       7.526   6.229  -2.740  0.00  0.00    +0.025 A 
ATOM      7  C   UNL     1       6.241   5.751  -2.566  0.00  0.00    -0.021 A 
ATOM      8 CL   UNL     1       9.741   7.577  -1.964  0.00  0.00    -0.084 Cl
BRANCH   7   9
ATOM      9  C   UNL     1       5.592   4.924  -3.646  0.00  0.00    -0.043 C 
BRANCH   9  10
ATOM     10  N   UNL     1       4.688   5.771  -4.435  0.00  0.00    +0.380 N 
ATOM     11  C   UNL     1       4.036   4.998  -5.499  0.00  0.00    -0.100 C 
ATOM     12  H   UNL     1       3.912   6.191  -3.777  0.00  0.00    -0.086 HD
ATOM     13  H   UNL     1       5.261   6.590  -4.894  0.00  0.00    -0.086 HD
ENDBRANCH   9  10
ENDBRANCH   7   9
ENDBRANCH   1   2
BRANCH   1  14
ATOM     14  C   UNL     1       3.630   5.898   0.000  0.00  0.00    +0.270 C 
BRANCH  14  15
ATOM     15  C   UNL     1       2.226   5.292   0.010  0.00  0.00    +0.270 C 
BRANCH  15  16
ATOM     16  O   UNL     1       2.322   3.866   0.001  0.00  0.00    -0.488 OA
BRANCH  16  22
ATOM     17  C   UNL     1      -2.559   3.865   0.047  0.00  0.00    +0.044 C 
ATOM     18  C   UNL     1      -1.242   3.133   0.031  0.00  0.00    -0.047 A 
ATOM     19  C   UNL     1      -1.219   1.750   0.017  0.00  0.00    +0.004 A 
ATOM     20  C   UNL     1      -0.013   1.076   0.008  0.00  0.00    +0.007 A 
ATOM     21  C   UNL     1       1.175   1.782   0.000  0.00  0.00    -0.009 A 
ATOM     22  C   UNL     1       1.155   3.169   0.008  0.00  0.00    +0.124 A 
ATOM     23  C   UNL     1      -0.057   3.844   0.023  0.00  0.00    +0.049 A 
ATOM     24  C   UNL     1       2.490   1.047  -0.017  0.00  0.00    +0.047 C 
ENDBRANCH  16  22
ENDBRANCH  15  16
ENDBRANCH  14  15
ENDBRANCH   1  14
TORSDOF 7
