REMARK  Name = ZINC15678403
REMARK  8 active torsions:
REMARK  status: ('A' for Active; 'I' for Inactive)
REMARK    1  A    between atoms: C_1  and  C_2
REMARK    2  A    between atoms: C_7  and  C_8
REMARK    3  A    between atoms: C_8  and  N_9
REMARK    4  A    between atoms: C_11  and  C_18
REMARK    5  A    between atoms: C_18  and  C_19
REMARK    6  A    between atoms: C_19  and  C_20
REMARK    7  A    between atoms: N_22  and  C_23
REMARK    8  A    between atoms: C_29  and  C_31
REMARK                            x       y       z     vdW  Elec       q    Type
REMARK                         _______ _______ _______ _____ _____    ______ ____
ROOT
ATOM      1  N   UNL     1       2.577   1.425  -0.011  0.00  0.00    -0.342 N 
ATOM      2  C   UNL     1       3.421   2.502   0.019  0.00  0.00    +0.090 A 
ATOM      3  C   UNL     1       2.711   3.641   0.019  0.00  0.00    -0.022 A 
ATOM      4  C   UNL     1       1.296   3.263  -0.014  0.00  0.00    +0.003 A 
ATOM      5  C   UNL     1       1.270   1.856  -0.032  0.00  0.00    +0.050 A 
ATOM      6  C   UNL     1       0.045   1.198  -0.064  0.00  0.00    +0.026 A 
ATOM      7  C   UNL     1      -1.124   1.928  -0.084  0.00  0.00    +0.002 A 
ATOM      8  C   UNL     1      -1.093   3.315  -0.060  0.00  0.00    +0.001 A 
ATOM      9  C   UNL     1       0.100   3.982  -0.028  0.00  0.00    +0.010 A 
ENDROOT
BRANCH   1  10
ATOM     10  C   UNL     1       3.002   0.023  -0.021  0.00  0.00    +0.157 C 
BRANCH  10  17
ATOM     11  C   UNL     1       5.244   0.326  -1.817  0.00  0.00    +0.044 C 
ATOM     12  C   UNL     1       3.993  -0.372  -2.285  0.00  0.00    -0.046 A 
ATOM     13  C   UNL     1       3.918  -0.867  -3.573  0.00  0.00    +0.004 A 
ATOM     14  C   UNL     1       2.771  -1.508  -4.002  0.00  0.00    +0.000 A 
ATOM     15  C   UNL     1       1.698  -1.653  -3.142  0.00  0.00    +0.000 A 
ATOM     16  C   UNL     1       1.774  -1.162  -1.853  0.00  0.00    +0.005 A 
ATOM     17  C   UNL     1       2.920  -0.517  -1.425  0.00  0.00    -0.025 A 
ENDBRANCH  10  17
ENDBRANCH   1  10
BRANCH   3  18
ATOM     18  C   UNL     1       3.264   5.042   0.048  0.00  0.00    +0.046 C 
BRANCH  18  19
ATOM     19  C   UNL     1       3.306   5.545   1.492  0.00  0.00    +0.100 C 
BRANCH  19  20
ATOM     20  C   UNL     1       3.859   6.947   1.520  0.00  0.00    +0.214 C 
ATOM     21  O   UNL     1       4.188   7.490   0.487  0.00  0.00    -0.276 OA
ATOM     22  N   UNL     1       3.988   7.596   2.694  0.00  0.00    -0.312 N 
ATOM     23  H   UNL     1       3.725   7.162   3.521  0.00  0.00    +0.149 HD
BRANCH  22  24
ATOM     24  C   UNL     1       4.526   8.959   2.722  0.00  0.00    +0.076 C 
ATOM     25  C   UNL     1       6.055   8.903   2.752  0.00  0.00    +0.022 C 
ATOM     26  C   UNL     1       6.616  10.326   2.780  0.00  0.00    +0.002 C 
ATOM     27  C   UNL     1       6.108  11.050   4.029  0.00  0.00    +0.000 C 
ATOM     28  C   UNL     1       4.579  11.106   3.999  0.00  0.00    +0.005 C 
ATOM     29  C   UNL     1       4.017   9.683   3.970  0.00  0.00    +0.006 C 
ATOM     30  C   UNL     1       2.489   9.739   3.940  0.00  0.00    +0.009 C 
ENDBRANCH  22  24
ENDBRANCH  19  20
ENDBRANCH  18  19
ENDBRANCH   3  18
TORSDOF 6
