REMARK  Name = ZINC03264568
REMARK  4 active torsions:
REMARK  status: ('A' for Active; 'I' for Inactive)
REMARK    1  A    between atoms: C_1  and  C_2
REMARK    2  A    between atoms: C_5  and  C_7
REMARK    3  A    between atoms: C_10  and  C_30
REMARK    4  A    between atoms: N_12  and  C_23
REMARK                            x       y       z     vdW  Elec       q    Type
REMARK                         _______ _______ _______ _____ _____    ______ ____
ROOT
ATOM      1  C   UNL     1       1.767   2.157   1.444  0.00  0.00    +0.106 C 
ATOM      2  C   UNL     1       2.823   3.232   1.470  0.00  0.00    +0.027 A 
ATOM      3  C   UNL     1       3.785   3.474   2.446  0.00  0.00    +0.066 A 
ATOM      4  N   UNL     1       4.498   4.511   2.076  0.00  0.00    -0.170 NA
ATOM      5  N   UNL     1       4.012   4.969   0.841  0.00  0.00    -0.218 N 
ATOM      6  C   UNL     1       2.985   4.169   0.486  0.00  0.00    +0.130 A 
ATOM      7  N   UNL     1       2.177   4.209  -0.654  0.00  0.00    -0.302 N 
ATOM      8  C   UNL     1       1.064   3.343  -0.621  0.00  0.00    +0.017 C 
ATOM      9  C   UNL     1      -0.069   3.752  -1.125  0.00  0.00    -0.007 C 
ATOM     10  C   UNL     1      -1.321   2.925  -1.162  0.00  0.00    +0.036 C 
ATOM     11  C   UNL     1      -1.327   1.954   0.019  0.00  0.00    +0.079 C 
ATOM     12  C   UNL     1      -0.014   1.203   0.009  0.00  0.00    +0.143 C 
ATOM     13  O   UNL     1       0.002  -0.004   0.002  0.00  0.00    -0.297 OA
ATOM     14  C   UNL     1       1.272   1.986   0.001  0.00  0.00    +0.114 C 
ATOM     15  C   UNL     1       3.974   2.680   3.712  0.00  0.00    +0.068 C 
ATOM     16  H   UNL     1       2.366   4.788  -1.409  0.00  0.00    +0.153 HD
ENDROOT
BRANCH   5  17
ATOM     17  C   UNL     1       4.504   6.060   0.110  0.00  0.00    +0.068 A 
ATOM     18  C   UNL     1       4.517   6.017  -1.278  0.00  0.00    +0.030 A 
ATOM     19  C   UNL     1       4.997   7.094  -1.997  0.00  0.00    +0.040 A 
ATOM     20  C   UNL     1       5.475   8.212  -1.334  0.00  0.00    +0.124 A 
ATOM     21  C   UNL     1       5.469   8.254   0.050  0.00  0.00    +0.040 A 
ATOM     22  C   UNL     1       4.985   7.181   0.772  0.00  0.00    +0.030 A 
ATOM     23  F   UNL     1       5.949   9.263  -2.039  0.00  0.00    -0.205 F 
ENDBRANCH   5  17
BRANCH   1  28
ATOM     24  C   UNL     1       4.737  -1.905   1.788  0.00  0.00    +0.086 C 
ATOM     25  C   UNL     1       3.647  -0.908   2.084  0.00  0.00    +0.102 A 
ATOM     26  C   UNL     1       2.757  -0.989   3.089  0.00  0.00    +0.044 A 
ATOM     27  C   UNL     1       1.924   0.149   2.993  0.00  0.00    +0.045 A 
ATOM     28  C   UNL     1       2.355   0.859   1.934  0.00  0.00    +0.114 A 
ATOM     29  O   UNL     1       3.395   0.211   1.384  0.00  0.00    -0.464 OA
ENDBRANCH   1  28
TORSDOF 2
