REMARK  Name = ZINC24210278
REMARK  10 active torsions:
REMARK  status: ('A' for Active; 'I' for Inactive)
REMARK    1  A    between atoms: C_1  and  C_2
REMARK    2  A    between atoms: C_2  and  C_3
REMARK    3  A    between atoms: C_3  and  C_5
REMARK    4  A    between atoms: C_8  and  O_11
REMARK    5  A    between atoms: O_11  and  C_12
REMARK    6  A    between atoms: C_12  and  C_13
REMARK    7  A    between atoms: C_13  and  C_15
REMARK    8  A    between atoms: C_13  and  O_31
REMARK    9  A    between atoms: C_15  and  S_16
REMARK   10  A    between atoms: S_16  and  C_17
REMARK                            x       y       z     vdW  Elec       q    Type
REMARK                         _______ _______ _______ _____ _____    ______ ____
ROOT
ATOM      1  S   UNL     1      -7.909   8.124  -0.453  0.00  0.00    -0.083 S 
ENDROOT
BRANCH   1   2
ATOM      2  C   UNL     1      -7.542   9.845  -0.362  0.00  0.00    +0.191 A 
ATOM      3  N   UNL     1      -6.277  10.245  -0.428  0.00  0.00    -0.207 NA
ATOM      4  C   UNL     1      -5.941  11.523  -0.370  0.00  0.00    +0.129 A 
ATOM      5  C   UNL     1      -6.961  12.505  -0.223  0.00  0.00    +0.051 A 
ATOM      6  C   UNL     1      -6.824  13.960  -0.133  0.00  0.00    -0.025 A 
ATOM      7  C   UNL     1      -7.958  14.674   0.005  0.00  0.00    -0.004 A 
ATOM      8  S   UNL     1      -9.262  13.473   0.024  0.00  0.00    -0.073 S 
ATOM      9  C   UNL     1      -8.278  12.008  -0.154  0.00  0.00    +0.115 A 
ATOM     10  N   UNL     1      -8.533  10.715  -0.224  0.00  0.00    -0.215 NA
ATOM     11  C   UNL     1      -8.086  16.163   0.117  0.00  0.00    +0.043 C 
ATOM     12  C   UNL     1      -6.699  16.747   0.425  0.00  0.00    +0.005 C 
ATOM     13  C   UNL     1      -5.682  16.129  -0.538  0.00  0.00    +0.005 C 
ATOM     14  C   UNL     1      -5.466  14.656  -0.191  0.00  0.00    +0.037 C 
ATOM     15  N   UNL     1      -4.613  11.901  -0.448  0.00  0.00    -0.343 N 
ATOM     16  H   UNL     1      -4.340  12.965  -0.399  0.00  0.00    +0.144 HD
ATOM     17  H   UNL     1      -3.829  11.136  -0.557  0.00  0.00    +0.144 HD
ENDBRANCH   1   2
BRANCH   1  18
ATOM     18  C   UNL     1      -6.237   7.455  -0.630  0.00  0.00    +0.112 C 
BRANCH  18  19
ATOM     19  C   UNL     1      -6.306   5.929  -0.730  0.00  0.00    +0.162 C 
BRANCH  19  20
ATOM     20  O   UNL     1      -6.908   5.401   0.454  0.00  0.00    -0.388 OA
ATOM     21  H   UNL     1      -7.931   5.696   0.729  0.00  0.00    +0.210 HD
ENDBRANCH  19  20
BRANCH  19  22
ATOM     22  C   UNL     1      -4.893   5.364  -0.880  0.00  0.00    +0.261 C 
BRANCH  22  23
ATOM     23  O   UNL     1      -4.964   3.952  -1.090  0.00  0.00    -0.489 OA
BRANCH  23  27
ATOM     24  C   UNL     1      -1.393   1.945  -1.557  0.00  0.00    +0.018 A 
ATOM     25  C   UNL     1      -1.398   3.328  -1.341  0.00  0.00    +0.015 A 
ATOM     26  C   UNL     1      -2.589   3.992  -1.192  0.00  0.00    +0.046 A 
ATOM     27  C   UNL     1      -3.789   3.292  -1.244  0.00  0.00    +0.121 A 
ATOM     28  C   UNL     1      -3.789   1.916  -1.452  0.00  0.00    +0.046 A 
ATOM     29  C   UNL     1      -2.604   1.244  -1.608  0.00  0.00    +0.015 A 
BRANCH  24  30
ATOM     30  C   UNL     1      -0.121   1.230  -1.723  0.00  0.00    +0.163 C 
ATOM     31  O   UNL     1      -0.118   0.030  -1.904  0.00  0.00    -0.292 OA
BRANCH  30  33
ATOM     32  C   UNL     1       2.345   1.015  -1.880  0.00  0.00    +0.012 C 
ATOM     33  C   UNL     1       1.181   1.987  -1.674  0.00  0.00    +0.076 C 
ENDBRANCH  30  33
ENDBRANCH  24  30
ENDBRANCH  23  27
ENDBRANCH  22  23
ENDBRANCH  19  22
ENDBRANCH  18  19
ENDBRANCH   1  18
TORSDOF 9
