REMARK  Name = ZINC36601699
REMARK  9 active torsions:
REMARK  status: ('A' for Active; 'I' for Inactive)
REMARK    1  A    between atoms: C_1  and  C_2
REMARK    2  A    between atoms: C_2  and  C_3
REMARK    3  A    between atoms: C_2  and  C_4
REMARK    4  A    between atoms: C_4  and  C_5
REMARK    5  A    between atoms: C_5  and  C_7
REMARK    6  A    between atoms: C_5  and  N_11
REMARK    7  A    between atoms: C_7  and  O_9
REMARK    8  A    between atoms: O_9  and  C_10
REMARK    9  A    between atoms: C_23  and  C_25
REMARK                            x       y       z     vdW  Elec       q    Type
REMARK                         _______ _______ _______ _____ _____    ______ ____
ROOT
ATOM      1  N   UNL     1       1.943   1.139   1.619  0.00  0.00    -0.286 N 
ATOM      2  C   UNL     1       2.622   0.046   1.219  0.00  0.00    +0.304 C 
ATOM      3  O   UNL     1       2.529  -0.341   0.070  0.00  0.00    -0.253 OA
ATOM      4  N   UNL     1       3.405  -0.619   2.092  0.00  0.00    -0.273 N 
ATOM      5  C   UNL     1       4.247  -1.739   1.647  0.00  0.00    +0.116 C 
ATOM      6  C   UNL     1       3.767  -3.028   2.326  0.00  0.00    +0.074 C 
ATOM      7  C   UNL     1       3.529  -2.748   3.787  0.00  0.00    +0.040 A 
ATOM      8  C   UNL     1       3.378  -1.517   4.321  0.00  0.00    +0.062 A 
ATOM      9  N   UNL     1       3.181  -1.655   5.634  0.00  0.00    -0.348 N 
ATOM     10  C   UNL     1       3.208  -2.927   5.939  0.00  0.00    +0.171 A 
ATOM     11  N   UNL     1       3.425  -3.640   4.810  0.00  0.00    -0.349 N 
ATOM     12  H   UNL     1       3.492  -4.606   4.743  0.00  0.00    +0.166 HD
ATOM     13  C   UNL     1       3.442  -0.237   3.515  0.00  0.00    +0.156 C 
ATOM     14  H   UNL     1       1.955   1.402   2.553  0.00  0.00    +0.151 HD
ATOM     15  H   UNL     1       3.041  -0.929   6.262  0.00  0.00    +0.167 HD
ENDROOT
BRANCH  13  16
ATOM     16  C   UNL     1       4.722   0.500   3.815  0.00  0.00    -0.021 A 
ATOM     17  C   UNL     1       5.938  -0.142   3.673  0.00  0.00    +0.007 A 
ATOM     18  C   UNL     1       7.112   0.533   3.948  0.00  0.00    +0.020 A 
ATOM     19  C   UNL     1       7.070   1.851   4.366  0.00  0.00    +0.041 A 
ATOM     20  C   UNL     1       5.853   2.493   4.508  0.00  0.00    +0.020 A 
ATOM     21  C   UNL     1       4.679   1.819   4.228  0.00  0.00    +0.007 A 
ATOM     22 CL   UNL     1       8.545   2.700   4.712  0.00  0.00    -0.084 Cl
ENDBRANCH  13  16
BRANCH   1  23
ATOM     23  C   UNL     1       1.188   1.930   0.645  0.00  0.00    +0.183 C 
BRANCH  23  24
ATOM     24  C   UNL     1       0.077   2.667   1.349  0.00  0.00    +0.327 C 
ATOM     25  O   UNL     1      -0.068   2.545   2.542  0.00  0.00    -0.249 OA
BRANCH  24  26
ATOM     26  O   UNL     1      -0.750   3.460   0.650  0.00  0.00    -0.467 OA
ATOM     27  C   UNL     1      -1.780   4.128   1.382  0.00  0.00    +0.280 C 
ENDBRANCH  24  26
ENDBRANCH  23  24
BRANCH  23  28
ATOM     28  C   UNL     1       2.122   2.937  -0.029  0.00  0.00    +0.036 C 
BRANCH  28  30
ATOM     29  C   UNL     1       2.494   1.438  -1.992  0.00  0.00    +0.007 C 
ATOM     30  C   UNL     1       3.176   2.188  -0.846  0.00  0.00    -0.015 C 
ATOM     31  C   UNL     1       4.183   3.187  -1.418  0.00  0.00    +0.007 C 
ENDBRANCH  28  30
ENDBRANCH  23  28
ENDBRANCH   1  23
TORSDOF 6
