REMARK  Name = ZINC16533925
REMARK  15 active torsions:
REMARK  status: ('A' for Active; 'I' for Inactive)
REMARK    1  A    between atoms: C_1  and  C_2
REMARK    2  A    between atoms: C_2  and  C_3
REMARK    3  A    between atoms: C_3  and  N_4
REMARK    4  A    between atoms: N_4  and  C_5
REMARK    5  A    between atoms: C_5  and  C_6
REMARK    6  A    between atoms: N_10  and  C_11
REMARK    7  A    between atoms: C_11  and  C_12
REMARK    8  A    between atoms: C_15  and  C_17
REMARK    9  A    between atoms: N_19  and  C_20
REMARK   10  A    between atoms: C_25  and  C_26
REMARK   11  A    between atoms: C_25  and  N_80
REMARK   12  A    between atoms: C_32  and  C_34
REMARK   13  A    between atoms: C_34  and  C_35
REMARK   14  A    between atoms: C_35  and  C_36
REMARK   15  A    between atoms: C_35  and  C_37
REMARK                            x       y       z     vdW  Elec       q    Type
REMARK                         _______ _______ _______ _____ _____    ______ ____
ROOT
ATOM      1  C   UNL     1       0.409   4.103  -0.177  0.00  0.00    +0.126 A 
ATOM      2  C   UNL     1      -0.922   4.322  -0.103  0.00  0.00    +0.047 A 
ATOM      3  C   UNL     1      -1.553   3.072  -0.206  0.00  0.00    +0.055 A 
ATOM      4  C   UNL     1      -0.562   2.142  -0.329  0.00  0.00    +0.190 A 
ATOM      5  O   UNL     1       0.622   2.788  -0.313  0.00  0.00    -0.453 OA
ENDROOT
BRANCH   4   6
ATOM      6  C   UNL     1      -0.751   0.693  -0.462  0.00  0.00    +0.280 C 
ATOM      7  O   UNL     1      -1.867   0.215  -0.374  0.00  0.00    -0.267 OA
ATOM      8  N   UNL     1       0.310  -0.108  -0.682  0.00  0.00    -0.306 N 
ATOM      9  H   UNL     1       1.206   0.263  -0.680  0.00  0.00    +0.149 HD
BRANCH   8  10
ATOM     10  C   UNL     1       0.110  -1.539  -0.924  0.00  0.00    +0.070 C 
ATOM     11  C   UNL     1      -0.088  -2.261   0.412  0.00  0.00    +0.004 C 
ATOM     12  C   UNL     1      -0.236  -3.763   0.157  0.00  0.00    -0.077 C 
ATOM     13  C   UNL     1       1.151  -3.622  -1.825  0.00  0.00    -0.077 C 
ATOM     14  C   UNL     1       1.340  -2.115  -1.630  0.00  0.00    +0.004 C 
ATOM     15  N   UNL     1       0.990  -4.261  -0.502  0.00  0.00    +0.382 N 
ATOM     16  H   UNL     1       1.801  -4.025   0.082  0.00  0.00    -0.081 HD
BRANCH  15  17
ATOM     17  C   UNL     1       0.920  -5.728  -0.655  0.00  0.00    -0.043 C 
BRANCH  17  18
ATOM     18  C   UNL     1       0.977  -6.363   0.711  0.00  0.00    -0.064 A 
ATOM     19  C   UNL     1       2.198  -6.691   1.270  0.00  0.00    +0.002 A 
ATOM     20  C   UNL     1       2.251  -7.267   2.525  0.00  0.00    +0.000 A 
ATOM     21  C   UNL     1       1.083  -7.526   3.216  0.00  0.00    +0.000 A 
ATOM     22  C   UNL     1      -0.139  -7.204   2.655  0.00  0.00    +0.000 A 
ATOM     23  C   UNL     1      -0.191  -6.622   1.402  0.00  0.00    +0.002 A 
ENDBRANCH  17  18
ENDBRANCH  15  17
ENDBRANCH   8  10
ENDBRANCH   4   6
BRANCH   1  24
ATOM     24  C   UNL     1       1.478   5.164  -0.116  0.00  0.00    +0.195 C 
BRANCH  24  29
ATOM     25  C   UNL     1       2.631   6.443   1.719  0.00  0.00    +0.036 A 
ATOM     26  C   UNL     1       2.667   6.402   3.066  0.00  0.00    +0.024 A 
ATOM     27  C   UNL     1       1.821   5.353   3.478  0.00  0.00    +0.019 A 
ATOM     28  C   UNL     1       1.296   4.797   2.367  0.00  0.00    +0.086 A 
ATOM     29  N   UNL     1       1.794   5.458   1.284  0.00  0.00    -0.342 N 
BRANCH  25  30
ATOM     30  C   UNL     1       3.387   7.410   0.844  0.00  0.00    +0.161 C 
BRANCH  30  31
ATOM     31  N   UNL     1       4.649   6.801   0.419  0.00  0.00    -0.296 N 
ATOM     32  C   UNL     1       4.731   6.184  -0.777  0.00  0.00    +0.216 C 
ATOM     33  O   UNL     1       3.788   6.213  -1.539  0.00  0.00    -0.276 OA
BRANCH  31  34
ATOM     34  C   UNL     1       5.823   6.862   1.294  0.00  0.00    +0.108 C 
BRANCH  34  36
ATOM     35  C   UNL     1       7.064   5.702   3.126  0.00  0.00    +0.005 C 
ATOM     36  C   UNL     1       5.838   5.638   2.213  0.00  0.00    +0.016 C 
ENDBRANCH  34  36
ENDBRANCH  31  34
BRANCH  32  37
ATOM     37  C   UNL     1       5.994   5.460  -1.166  0.00  0.00    +0.099 C 
BRANCH  37  38
ATOM     38  C   UNL     1       5.874   4.966  -2.609  0.00  0.00    -0.008 C 
ATOM     39  C   UNL     1       5.823   6.167  -3.557  0.00  0.00    +0.008 C 
ATOM     40  C   UNL     1       7.085   4.097  -2.953  0.00  0.00    +0.008 C 
ENDBRANCH  37  38
ENDBRANCH  32  37
ENDBRANCH  30  31
ENDBRANCH  25  30
ENDBRANCH  24  29
ENDBRANCH   1  24
TORSDOF 12
