REMARK  Name = ZINC67060545
REMARK  7 active torsions:
REMARK  status: ('A' for Active; 'I' for Inactive)
REMARK    1  A    between atoms: C_1  and  C_2
REMARK    2  A    between atoms: C_2  and  C_3
REMARK    3  A    between atoms: C_3  and  C_5
REMARK    4  A    between atoms: C_3  and  N_15
REMARK    5  A    between atoms: N_18  and  C_19
REMARK    6  A    between atoms: C_19  and  C_20
REMARK    7  A    between atoms: C_25  and  N_26
REMARK                            x       y       z     vdW  Elec       q    Type
REMARK                         _______ _______ _______ _____ _____    ______ ____
ROOT
ATOM      1  N   UNL     1      -0.008  -0.140   2.444  0.00  0.00    -0.290 N 
ATOM      2  C   UNL     1       0.164   1.077   2.997  0.00  0.00    +0.300 C 
ATOM      3  O   UNL     1       0.943   1.867   2.499  0.00  0.00    -0.253 OA
ATOM      4  N   UNL     1      -0.526   1.418   4.104  0.00  0.00    -0.295 N 
ATOM      5  H   UNL     1      -0.629  -0.770   2.842  0.00  0.00    +0.151 HD
ATOM      6  H   UNL     1      -1.147   0.788   4.501  0.00  0.00    +0.151 HD
ENDROOT
BRANCH   1   7
ATOM      7  C   UNL     1       0.742  -0.511   1.242  0.00  0.00    +0.140 C 
BRANCH   7   8
ATOM      8  C   UNL     1       0.870  -2.011   1.172  0.00  0.00    +0.129 A 
ATOM      9  N   UNL     1       2.041  -2.698   1.262  0.00  0.00    -0.340 N 
ATOM     10  H   UNL     1       2.924  -2.316   1.381  0.00  0.00    +0.167 HD
ATOM     11  C   UNL     1       1.738  -4.041   1.154  0.00  0.00    +0.066 A 
ATOM     12  C   UNL     1       2.491  -5.206   1.172  0.00  0.00    +0.028 A 
ATOM     13  C   UNL     1       1.865  -6.427   1.035  0.00  0.00    +0.002 A 
ATOM     14  C   UNL     1       0.488  -6.497   0.879  0.00  0.00    +0.002 A 
ATOM     15  C   UNL     1      -0.270  -5.361   0.859  0.00  0.00    +0.030 A 
ATOM     16  C   UNL     1       0.343  -4.112   0.997  0.00  0.00    +0.089 A 
ATOM     17  N   UNL     1      -0.124  -2.837   1.022  0.00  0.00    -0.231 NA
ENDBRANCH   7   8
BRANCH   7  19
ATOM     18  C   UNL     1      -0.019   1.526   0.010  0.00  0.00    +0.006 C 
ATOM     19  C   UNL     1       0.002  -0.004   0.002  0.00  0.00    +0.027 C 
ENDBRANCH   7  19
ENDBRANCH   1   7
BRANCH   4  20
ATOM     20  C   UNL     1      -0.339   2.740   4.705  0.00  0.00    +0.143 C 
BRANCH  20  21
ATOM     21  C   UNL     1      -1.220   2.869   5.921  0.00  0.00    -0.000 A 
ATOM     22  C   UNL     1      -2.423   3.545   5.835  0.00  0.00    +0.007 A 
ATOM     23  C   UNL     1      -3.231   3.662   6.950  0.00  0.00    +0.000 A 
ATOM     24  C   UNL     1      -2.836   3.103   8.152  0.00  0.00    +0.002 A 
ATOM     25  C   UNL     1      -1.634   2.427   8.237  0.00  0.00    +0.033 A 
ATOM     26  C   UNL     1      -0.828   2.305   7.121  0.00  0.00    +0.131 A 
BRANCH  26  27
ATOM     27  N   UNL     1       0.457   1.576   7.212  0.00  0.00    +0.057 N 
ATOM     28  O   UNL     1       0.800   1.084   8.261  0.00  0.00    -0.126 OA
ATOM     29  O   UNL     1       1.164   1.473   6.236  0.00  0.00    -0.126 OA
ENDBRANCH  26  27
ENDBRANCH  20  21
ENDBRANCH   4  20
TORSDOF 6
