REMARK  Name = ZINC12659138
REMARK  6 active torsions:
REMARK  status: ('A' for Active; 'I' for Inactive)
REMARK    1  A    between atoms: C_1  and  C_2
REMARK    2  A    between atoms: C_5  and  S_8
REMARK    3  A    between atoms: S_8  and  O_11
REMARK    4  A    between atoms: O_11  and  C_12
REMARK    5  A    between atoms: C_16  and  C_36
REMARK    6  A    between atoms: C_28  and  C_35
REMARK                            x       y       z     vdW  Elec       q    Type
REMARK                         _______ _______ _______ _____ _____    ______ ____
ROOT
ATOM      1  C   UNL     1      -1.937   1.009   1.518  0.00  0.00    +0.150 C 
ATOM      2  C   UNL     1      -1.549  -0.075   2.524  0.00  0.00    +0.034 C 
ATOM      3  C   UNL     1      -2.759  -0.954   2.835  0.00  0.00    +0.010 C 
ATOM      4  C   UNL     1      -3.911  -0.115   3.393  0.00  0.00    -0.026 C 
ATOM      5  C   UNL     1      -4.269   0.985   2.412  0.00  0.00    -0.002 C 
ATOM      6  C   UNL     1      -3.066   1.867   2.093  0.00  0.00    +0.038 C 
ATOM      7  C   UNL     1      -5.409   1.832   2.974  0.00  0.00    +0.004 C 
ATOM      8  C   UNL     1      -6.638   0.956   3.138  0.00  0.00    +0.004 C 
ATOM      9  C   UNL     1      -6.403  -0.286   3.983  0.00  0.00    -0.003 C 
ATOM     10  C   UNL     1      -5.090  -0.997   3.739  0.00  0.00    -0.001 C 
ATOM     11  C   UNL     1      -5.243  -2.175   2.789  0.00  0.00    +0.005 C 
ATOM     12  C   UNL     1      -6.123  -3.276   3.397  0.00  0.00    +0.015 C 
ATOM     13  C   UNL     1      -7.232  -2.660   4.218  0.00  0.00    +0.029 C 
ATOM     14  C   UNL     1      -7.546  -1.249   3.681  0.00  0.00    +0.006 C 
ATOM     15  C   UNL     1      -8.861  -0.920   4.408  0.00  0.00    +0.012 C 
ATOM     16  C   UNL     1      -9.604  -2.282   4.423  0.00  0.00    +0.075 C 
ATOM     17  C   UNL     1      -8.574  -3.349   4.077  0.00  0.00    +0.139 C 
ATOM     18  O   UNL     1      -8.773  -4.492   3.760  0.00  0.00    -0.297 OA
ATOM     19  C   UNL     1      -6.864  -2.639   5.701  0.00  0.00    +0.019 C 
ATOM     20  C   UNL     1      -3.433   0.510   4.710  0.00  0.00    +0.012 C 
ENDROOT
BRANCH   1  21
ATOM     21  O   UNL     1      -0.803   1.834   1.245  0.00  0.00    -0.231 OA
BRANCH  21  22
ATOM     22  S   UNL     1      -0.017   1.417   0.010  0.00  0.00    +0.112 S 
ATOM     23  O   UNL     1       0.002  -0.004   0.002  0.00  0.00    -0.142 OA
ATOM     24  O   UNL     1       1.172   2.195   0.003  0.00  0.00    -0.142 OA
BRANCH  22  29
ATOM     25  C   UNL     1      -3.223   3.124  -4.808  0.00  0.00    +0.044 C 
ATOM     26  C   UNL     1      -2.423   2.698  -3.604  0.00  0.00    -0.050 A 
ATOM     27  C   UNL     1      -1.494   3.559  -3.052  0.00  0.00    +0.005 A 
ATOM     28  C   UNL     1      -0.759   3.168  -1.948  0.00  0.00    +0.030 A 
ATOM     29  C   UNL     1      -0.954   1.915  -1.397  0.00  0.00    +0.117 A 
ATOM     30  C   UNL     1      -1.879   1.052  -1.952  0.00  0.00    +0.030 A 
ATOM     31  C   UNL     1      -2.618   1.445  -3.053  0.00  0.00    +0.005 A 
ENDBRANCH  22  29
ENDBRANCH  21  22
ENDBRANCH   1  21
TORSDOF 3
