REMARK  Name = ZINC14956094
REMARK  9 active torsions:
REMARK  status: ('A' for Active; 'I' for Inactive)
REMARK    1  A    between atoms: C_1  and  C_2
REMARK    2  A    between atoms: C_2  and  C_3
REMARK    3  A    between atoms: C_2  and  C_4
REMARK    4  A    between atoms: C_2  and  N_54
REMARK    5  A    between atoms: C_4  and  O_5
REMARK    6  A    between atoms: C_6  and  N_54
REMARK    7  A    between atoms: N_17  and  C_20
REMARK    8  A    between atoms: C_20  and  C_21
REMARK    9  A    between atoms: C_21  and  C_22
REMARK                            x       y       z     vdW  Elec       q    Type
REMARK                         _______ _______ _______ _____ _____    ______ ____
ROOT
ATOM      1  C   UNL     1      -0.625   1.600   3.545  0.00  0.00    -0.066 C 
ATOM      2  C   UNL     1       0.422   1.786   4.646  0.00  0.00    -0.011 C 
ATOM      3  C   UNL     1      -0.196   2.531   5.830  0.00  0.00    +0.035 C 
ATOM      4  C   UNL     1      -1.472   1.809   6.256  0.00  0.00    -0.023 A 
ATOM      5  C   UNL     1      -2.088   0.948   5.413  0.00  0.00    -0.006 A 
ATOM      6  S   UNL     1      -3.501   0.353   6.309  0.00  0.00    -0.073 S 
ATOM      7  C   UNL     1      -3.263   1.258   7.805  0.00  0.00    +0.116 A 
ATOM      8  C   UNL     1      -2.085   1.997   7.558  0.00  0.00    +0.076 A 
ATOM      9  C   UNL     1      -1.619   2.853   8.613  0.00  0.00    +0.262 A 
ATOM     10  O   UNL     1      -0.613   3.532   8.501  0.00  0.00    -0.267 OA
ATOM     11  N   UNL     1      -2.369   2.856   9.741  0.00  0.00    -0.298 N 
ATOM     12  C   UNL     1      -3.490   2.109   9.885  0.00  0.00    +0.203 A 
ATOM     13  N   UNL     1      -3.948   1.314   8.943  0.00  0.00    -0.230 NA
ATOM     14  C   UNL     1      -1.666   0.578   4.025  0.00  0.00    +0.027 C 
ENDROOT
BRANCH   1  15
ATOM     15  N   UNL     1       0.032   1.096   2.324  0.00  0.00    +0.386 N 
ATOM     16  H   UNL     1       1.051   1.142   2.444  0.00  0.00    -0.085 HD
ATOM     17  H   UNL     1      -0.250   0.122   2.165  0.00  0.00    -0.085 HD
BRANCH  15  19
ATOM     18  C   UNL     1      -1.882   1.927   1.028  0.00  0.00    -0.008 C 
ATOM     19  C   UNL     1      -0.358   1.912   1.159  0.00  0.00    -0.050 C 
ATOM     20  C   UNL     1       0.256   1.307  -0.105  0.00  0.00    -0.008 C 
BRANCH  19  21
ATOM     21  C   UNL     1       0.152   3.343   1.339  0.00  0.00    +0.143 C 
BRANCH  21  22
ATOM     22  O   UNL     1      -0.223   4.129   0.206  0.00  0.00    -0.396 OA
ATOM     23  H   UNL     1       0.069   5.050   0.252  0.00  0.00    +0.209 HD
ENDBRANCH  21  22
ENDBRANCH  19  21
ENDBRANCH  15  19
ENDBRANCH   1  15
BRANCH  11  24
ATOM     24  C   UNL     1      -1.948   3.707  10.856  0.00  0.00    +0.131 C 
BRANCH  24  25
ATOM     25  C   UNL     1      -1.011   2.919  11.774  0.00  0.00    +0.057 C 
BRANCH  25  26
ATOM     26  C   UNL     1      -0.578   3.795  12.921  0.00  0.00    -0.046 A 
ATOM     27  C   UNL     1       0.565   4.565  12.809  0.00  0.00    +0.006 A 
ATOM     28  C   UNL     1       0.960   5.372  13.859  0.00  0.00    +0.038 A 
ATOM     29  C   UNL     1       0.217   5.401  15.027  0.00  0.00    +0.123 A 
ATOM     30  C   UNL     1      -0.924   4.625  15.140  0.00  0.00    +0.038 A 
ATOM     31  C   UNL     1      -1.320   3.822  14.087  0.00  0.00    +0.006 A 
ATOM     32  F   UNL     1       0.605   6.186  16.056  0.00  0.00    -0.205 F 
ENDBRANCH  25  26
ENDBRANCH  24  25
ENDBRANCH  11  24
TORSDOF 7
