REMARK  Name = ZINC39431111
REMARK  7 active torsions:
REMARK  status: ('A' for Active; 'I' for Inactive)
REMARK    1  A    between atoms: C_1  and  C_2
REMARK    2  A    between atoms: C_2  and  C_4
REMARK    3  A    between atoms: C_2  and  S_16
REMARK    4  A    between atoms: S_16  and  C_17
REMARK    5  A    between atoms: C_21  and  C_31
REMARK    6  A    between atoms: N_23  and  C_24
REMARK    7  A    between atoms: C_24  and  C_25
REMARK                            x       y       z     vdW  Elec       q    Type
REMARK                         _______ _______ _______ _____ _____    ______ ____
ROOT
ATOM      1  C   UNL     1       2.582  -0.025   1.234  0.00  0.00    +0.139 C 
ATOM      2  N   UNL     1       2.607   1.434   1.071  0.00  0.00    -0.198 NA
ATOM      3  N   UNL     1       3.342   1.766   0.136  0.00  0.00    -0.201 NA
ATOM      4  C   UNL     1       3.949   0.593  -0.506  0.00  0.00    +0.147 C 
ATOM      5  N   UNL     1       3.138  -0.560  -0.035  0.00  0.00    +0.425 N 
ATOM      6  H   UNL     1       2.401  -0.776  -0.690  0.00  0.00    -0.073 HD
ENDROOT
BRANCH   4   7
ATOM      7  C   UNL     1       3.871   0.716  -2.006  0.00  0.00    +0.114 A 
ATOM      8  C   UNL     1       3.912   1.865  -2.704  0.00  0.00    +0.045 A 
ATOM      9  C   UNL     1       3.808   1.517  -4.071  0.00  0.00    +0.041 A 
ATOM     10  C   UNL     1       3.710   0.177  -4.126  0.00  0.00    +0.195 A 
ATOM     11  O   UNL     1       3.754  -0.304  -2.873  0.00  0.00    -0.468 OA
ENDBRANCH   4   7
BRANCH   1  12
ATOM     12  S   UNL     1       0.879  -0.605   1.472  0.00  0.00    -0.140 S 
BRANCH  12  14
ATOM     13  C   UNL     1      -0.019   1.526   0.010  0.00  0.00    +0.027 C 
ATOM     14  C   UNL     1       0.002  -0.004   0.002  0.00  0.00    +0.109 C 
BRANCH  14  15
ATOM     15  C   UNL     1      -1.412  -0.526   0.013  0.00  0.00    +0.123 A 
ATOM     16  N   UNL     1      -2.261  -0.104  -0.960  0.00  0.00    -0.309 N 
ATOM     17  H   UNL     1      -1.948   0.517  -1.636  0.00  0.00    +0.170 HD
ATOM     18  C   UNL     1      -3.541  -0.543  -0.995  0.00  0.00    +0.259 A 
ATOM     19  O   UNL     1      -4.313  -0.175  -1.861  0.00  0.00    -0.267 OA
ATOM     20  C   UNL     1      -3.963  -1.484   0.054  0.00  0.00    +0.065 A 
ATOM     21  C   UNL     1      -5.258  -1.995   0.109  0.00  0.00    +0.015 A 
ATOM     22  C   UNL     1      -5.599  -2.873   1.114  0.00  0.00    +0.001 A 
ATOM     23  C   UNL     1      -4.665  -3.251   2.069  0.00  0.00    +0.002 A 
ATOM     24  C   UNL     1      -3.380  -2.757   2.034  0.00  0.00    +0.028 A 
ATOM     25  C   UNL     1      -3.010  -1.866   1.024  0.00  0.00    +0.078 A 
ATOM     26  N   UNL     1      -1.754  -1.359   0.948  0.00  0.00    -0.233 NA
ENDBRANCH  14  15
ENDBRANCH  12  14
ENDBRANCH   1  12
BRANCH   5  27
ATOM     27  C   UNL     1       3.983  -1.736   0.214  0.00  0.00    -0.035 C 
BRANCH  27  28
ATOM     28  C   UNL     1       3.130  -2.868   0.727  0.00  0.00    -0.064 A 
ATOM     29  C   UNL     1       2.920  -3.013   2.086  0.00  0.00    +0.002 A 
ATOM     30  C   UNL     1       2.138  -4.051   2.557  0.00  0.00    +0.000 A 
ATOM     31  C   UNL     1       1.566  -4.944   1.669  0.00  0.00    +0.000 A 
ATOM     32  C   UNL     1       1.776  -4.798   0.311  0.00  0.00    +0.000 A 
ATOM     33  C   UNL     1       2.554  -3.757  -0.161  0.00  0.00    +0.002 A 
ENDBRANCH  27  28
ENDBRANCH   5  27
TORSDOF 6
