REMARK  Name = ZINC00743276
REMARK  8 active torsions:
REMARK  status: ('A' for Active; 'I' for Inactive)
REMARK    1  A    between atoms: C_4  and  C_7
REMARK    2  A    between atoms: C_7  and  C_8
REMARK    3  A    between atoms: C_13  and  N_14
REMARK    4  A    between atoms: C_15  and  C_17
REMARK    5  A    between atoms: C_17  and  C_19
REMARK    6  A    between atoms: C_17  and  N_26
REMARK    7  A    between atoms: C_19  and  C_20
REMARK    8  A    between atoms: C_27  and  C_29
REMARK                            x       y       z     vdW  Elec       q    Type
REMARK                         _______ _______ _______ _____ _____    ______ ____
ROOT
ATOM      1  C   UNL     1       1.585  -5.106   1.373  0.00  0.00    +0.164 C 
ENDROOT
BRANCH   1   3
ATOM      2  N   UNL     1       2.817  -2.962   1.449  0.00  0.00    -0.284 N 
ATOM      3  C   UNL     1       2.449  -4.094   2.081  0.00  0.00    +0.238 C 
ATOM      4  O   UNL     1       2.812  -4.299   3.220  0.00  0.00    -0.273 OA
ATOM      5  H   UNL     1       2.461  -2.760   0.570  0.00  0.00    +0.155 HD
BRANCH   2  11
ATOM      6  C   UNL     1       3.714  -0.735   1.710  0.00  0.00    -0.022 A 
ATOM      7  C   UNL     1       4.594   0.136   2.321  0.00  0.00    +0.006 A 
ATOM      8  C   UNL     1       5.477  -0.329   3.278  0.00  0.00    +0.000 A 
ATOM      9  C   UNL     1       5.481  -1.667   3.628  0.00  0.00    +0.002 A 
ATOM     10  C   UNL     1       4.603  -2.543   3.021  0.00  0.00    +0.023 A 
ATOM     11  C   UNL     1       3.712  -2.078   2.062  0.00  0.00    +0.037 A 
BRANCH   6  12
ATOM     12  C   UNL     1       2.752  -0.227   0.667  0.00  0.00    +0.072 C 
BRANCH  12  16
ATOM     13  C   UNL     1      -0.995   0.685   2.504  0.00  0.00    +0.000 A 
ATOM     14  C   UNL     1      -0.016   1.657   2.410  0.00  0.00    +0.000 A 
ATOM     15  C   UNL     1       1.196   1.361   1.815  0.00  0.00    +0.004 A 
ATOM     16  C   UNL     1       1.431   0.094   1.316  0.00  0.00    -0.043 A 
ATOM     17  C   UNL     1       0.453  -0.878   1.411  0.00  0.00    +0.004 A 
ATOM     18  C   UNL     1      -0.761  -0.583   2.004  0.00  0.00    +0.000 A 
ENDBRANCH  12  16
ENDBRANCH   6  12
ENDBRANCH   2  11
ENDBRANCH   1   3
BRANCH   1  19
ATOM     19  N   UNL     1       1.326  -6.238   2.266  0.00  0.00    -0.300 N 
ATOM     20  C   UNL     1       0.226  -6.997   2.092  0.00  0.00    +0.245 C 
ATOM     21  O   UNL     1      -0.552  -6.741   1.193  0.00  0.00    -0.270 OA
ATOM     22  H   UNL     1       1.947  -6.441   2.983  0.00  0.00    +0.150 HD
BRANCH  20  23
ATOM     23  C   UNL     1      -0.035  -8.138   2.992  0.00  0.00    +0.037 A 
ATOM     24  C   UNL     1       0.854  -8.430   4.029  0.00  0.00    +0.016 A 
ATOM     25  C   UNL     1       0.606  -9.496   4.867  0.00  0.00    +0.039 A 
ATOM     26  C   UNL     1      -0.523 -10.279   4.681  0.00  0.00    +0.123 A 
ATOM     27  C   UNL     1      -1.409  -9.994   3.653  0.00  0.00    +0.039 A 
ATOM     28  C   UNL     1      -1.174  -8.926   2.814  0.00  0.00    +0.016 A 
ATOM     29  F   UNL     1      -0.761 -11.323   5.504  0.00  0.00    -0.205 F 
ENDBRANCH  20  23
ENDBRANCH   1  19
BRANCH   1  30
ATOM     30  C   UNL     1       2.305  -5.601   0.117  0.00  0.00    +0.067 C 
BRANCH  30  31
ATOM     31  C   UNL     1       1.393  -6.519  -0.656  0.00  0.00    -0.045 A 
ATOM     32  C   UNL     1       1.394  -7.876  -0.394  0.00  0.00    +0.004 A 
ATOM     33  C   UNL     1       0.557  -8.717  -1.103  0.00  0.00    +0.000 A 
ATOM     34  C   UNL     1      -0.281  -8.202  -2.073  0.00  0.00    +0.000 A 
ATOM     35  C   UNL     1      -0.283  -6.844  -2.335  0.00  0.00    +0.000 A 
ATOM     36  C   UNL     1       0.550  -6.002  -1.623  0.00  0.00    +0.004 A 
ENDBRANCH  30  31
ENDBRANCH   1  30
TORSDOF 8
