REMARK  Name = ZINC20289593
REMARK  16 active torsions:
REMARK  status: ('A' for Active; 'I' for Inactive)
REMARK    1  A    between atoms: C_1  and  C_2
REMARK    2  A    between atoms: C_2  and  N_3
REMARK    3  A    between atoms: N_3  and  C_4
REMARK    4  A    between atoms: N_3  and  C_6
REMARK    5  A    between atoms: C_4  and  C_5
REMARK    6  A    between atoms: C_6  and  C_7
REMARK    7  A    between atoms: C_7  and  N_8
REMARK    8  A    between atoms: C_9  and  C_11
REMARK    9  A    between atoms: N_13  and  C_14
REMARK   10  A    between atoms: C_14  and  C_16
REMARK   11  A    between atoms: C_14  and  C_17
REMARK   12  A    between atoms: C_17  and  C_19
REMARK   13  A    between atoms: C_17  and  N_24
REMARK   14  A    between atoms: N_27  and  C_30
REMARK   15  A    between atoms: C_35  and  O_36
REMARK   16  A    between atoms: O_36  and  C_37
REMARK                            x       y       z     vdW  Elec       q    Type
REMARK                         _______ _______ _______ _____ _____    ______ ____
ROOT
ATOM      1  C   UNL     1       2.401   2.374  -0.699  0.00  0.00    +0.114 C 
ENDROOT
BRANCH   1   2
ATOM      2  N   UNL     1       2.560   1.063  -1.342  0.00  0.00    -0.290 NA
ATOM      3  C   UNL     1       3.109   0.077  -0.400  0.00  0.00    +0.104 C 
ATOM      4  C   UNL     1       3.185  -1.290  -1.083  0.00  0.00    +0.120 C 
ATOM      5  N   UNL     1       4.025  -1.189  -2.284  0.00  0.00    -0.325 N 
ATOM      6  C   UNL     1       3.476  -0.204  -3.226  0.00  0.00    +0.120 C 
ATOM      7  C   UNL     1       3.401   1.164  -2.543  0.00  0.00    +0.104 C 
BRANCH   5   8
ATOM      8  C   UNL     1       4.177  -2.439  -2.897  0.00  0.00    +0.072 A 
ATOM      9  C   UNL     1       3.405  -3.514  -2.483  0.00  0.00    +0.027 A 
ATOM     10  C   UNL     1       3.553  -4.746  -3.093  0.00  0.00    +0.002 A 
ATOM     11  C   UNL     1       4.476  -4.912  -4.109  0.00  0.00    +0.004 A 
ATOM     12  C   UNL     1       5.253  -3.845  -4.523  0.00  0.00    +0.047 A 
ATOM     13  C   UNL     1       5.107  -2.607  -3.920  0.00  0.00    +0.141 A 
BRANCH  13  14
ATOM     14  O   UNL     1       5.871  -1.557  -4.326  0.00  0.00    -0.493 OA
ATOM     15  C   UNL     1       6.804  -1.803  -5.380  0.00  0.00    +0.277 C 
ENDBRANCH  13  14
ENDBRANCH   5   8
ENDBRANCH   1   2
BRANCH   1  16
ATOM     16  C   UNL     1       3.759   2.947  -0.385  0.00  0.00    +0.009 A 
ATOM     17  C   UNL     1       4.251   4.179  -0.665  0.00  0.00    +0.013 A 
ATOM     18  C   UNL     1       5.541   4.490  -0.276  0.00  0.00    +0.008 A 
ATOM     19  C   UNL     1       6.275   3.554   0.374  0.00  0.00    +0.045 A 
ATOM     20  S   UNL     1       5.134   2.183   0.460  0.00  0.00    -0.100 S 
ENDBRANCH   1  16
BRANCH   1  21
ATOM     21  C   UNL     1       1.603   2.213   0.596  0.00  0.00    +0.092 C 
ATOM     22  C   UNL     1       0.225   1.631   0.277  0.00  0.00    +0.030 C 
BRANCH  21  25
ATOM     23  C   UNL     1       1.247   3.599   2.568  0.00  0.00    +0.299 C 
ATOM     24  O   UNL     1       1.200   2.587   3.236  0.00  0.00    -0.265 OA
ATOM     25  N   UNL     1       1.445   3.521   1.238  0.00  0.00    -0.303 N 
ATOM     26  H   UNL     1       1.488   4.439   0.633  0.00  0.00    +0.149 HD
BRANCH  23  28
ATOM     27  N   UNL     1       0.887   5.011   4.553  0.00  0.00    -0.309 N 
ATOM     28  C   UNL     1       1.085   4.933   3.223  0.00  0.00    +0.299 C 
ATOM     29  O   UNL     1       1.132   5.946   2.555  0.00  0.00    -0.265 OA
ATOM     30  H   UNL     1       0.844   4.093   5.158  0.00  0.00    +0.149 HD
BRANCH  27  31
ATOM     31  C   UNL     1       0.728   6.319   5.195  0.00  0.00    +0.086 C 
BRANCH  31  32
ATOM     32  C   UNL     1       0.518   6.128   6.698  0.00  0.00    -0.060 C 
BRANCH  32  33
ATOM     33  N   UNL     1       0.359   7.439   7.341  0.00  0.00    +0.380 N 
ATOM     34  H   UNL     1       1.207   8.070   7.036  0.00  0.00    -0.082 HD
BRANCH  33  36
ATOM     35  C   UNL     1      -2.082   7.244   7.298  0.00  0.00    -0.017 C 
ATOM     36  C   UNL     1      -0.877   8.097   6.896  0.00  0.00    -0.082 C 
ENDBRANCH  33  36
BRANCH  33  37
ATOM     37  C   UNL     1       0.393   7.315   8.805  0.00  0.00    -0.082 C 
ATOM     38  C   UNL     1       0.495   8.707   9.432  0.00  0.00    -0.017 C 
ENDBRANCH  33  37
ENDBRANCH  32  33
ENDBRANCH  31  32
ENDBRANCH  27  31
ENDBRANCH  23  28
ENDBRANCH  21  25
ENDBRANCH   1  21
TORSDOF 12
