REMARK  Name = ZINC04684123
REMARK  7 active torsions:
REMARK  status: ('A' for Active; 'I' for Inactive)
REMARK    1  A    between atoms: C_1  and  C_2
REMARK    2  A    between atoms: C_5  and  C_8
REMARK    3  A    between atoms: C_8  and  N_9
REMARK    4  A    between atoms: N_9  and  C_10
REMARK    5  A    between atoms: C_13  and  N_19
REMARK    6  A    between atoms: C_15  and  N_16
REMARK    7  A    between atoms: C_26  and  C_33
REMARK                            x       y       z     vdW  Elec       q    Type
REMARK                         _______ _______ _______ _____ _____    ______ ____
ROOT
ATOM      1  C   UNL     1       1.762  -6.135   0.216  0.00  0.00    +0.058 A 
ATOM      2  C   UNL     1       0.722  -7.051   0.316  0.00  0.00    +0.027 A 
ATOM      3  C   UNL     1       0.950  -8.386   0.052  0.00  0.00    +0.026 A 
ATOM      4  C   UNL     1       2.219  -8.815  -0.313  0.00  0.00    +0.046 A 
ATOM      5  C   UNL     1       3.259  -7.901  -0.413  0.00  0.00    +0.058 A 
ATOM      6  C   UNL     1       3.030  -6.564  -0.155  0.00  0.00    +0.149 A 
ENDROOT
BRANCH   4   7
ATOM      7  N   UNL     1       2.451 -10.173  -0.580  0.00  0.00    -0.210 N 
ATOM      8  C   UNL     1       3.668 -10.667  -0.936  0.00  0.00    +0.230 C 
ATOM      9  O   UNL     1       4.735 -10.096  -0.870  0.00  0.00    -0.275 OA
ATOM     10  C   UNL     1       3.421 -12.058  -1.426  0.00  0.00    +0.088 C 
ATOM     11  C   UNL     1       4.464 -13.127  -1.203  0.00  0.00    +0.014 C 
ATOM     12  C   UNL     1       3.883 -14.437  -1.767  0.00  0.00    +0.004 C 
ATOM     13  C   UNL     1       2.541 -14.789  -1.134  0.00  0.00    -0.013 C 
ATOM     14  C   UNL     1       1.538 -13.622  -1.228  0.00  0.00    +0.016 C 
ATOM     15  C   UNL     1       2.191 -12.441  -0.549  0.00  0.00    +0.088 C 
ATOM     16  C   UNL     1       1.483 -11.126  -0.502  0.00  0.00    +0.230 C 
ATOM     17  O   UNL     1       0.287 -10.944  -0.414  0.00  0.00    -0.275 OA
ATOM     18  C   UNL     1       1.956 -16.006  -1.854  0.00  0.00    +0.007 C 
ENDBRANCH   4   7
BRANCH   6  19
ATOM     19  N   UNL     1       4.138  -5.588  -0.268  0.00  0.00    +0.058 N 
ATOM     20  O   UNL     1       3.927  -4.483  -0.711  0.00  0.00    -0.126 OA
ATOM     21  O   UNL     1       5.253  -5.896   0.083  0.00  0.00    -0.126 OA
ENDBRANCH   6  19
BRANCH   1  22
ATOM     22  N   UNL     1       1.531  -4.782   0.483  0.00  0.00    -0.338 N 
ATOM     23  H   UNL     1       2.273  -4.157   0.496  0.00  0.00    +0.146 HD
BRANCH  22  24
ATOM     24  C   UNL     1       0.169  -4.309   0.742  0.00  0.00    +0.137 C 
BRANCH  24  29
ATOM     25  C   UNL     1       0.261   1.385   1.728  0.00  0.00    +0.044 C 
ATOM     26  C   UNL     1       0.237  -0.100   1.471  0.00  0.00    -0.050 A 
ATOM     27  C   UNL     1       0.076  -0.576   0.183  0.00  0.00    +0.003 A 
ATOM     28  C   UNL     1       0.054  -1.938  -0.053  0.00  0.00    +0.005 A 
ATOM     29  C   UNL     1       0.194  -2.824   0.999  0.00  0.00    -0.030 A 
ATOM     30  C   UNL     1       0.356  -2.348   2.287  0.00  0.00    +0.005 A 
ATOM     31  C   UNL     1       0.383  -0.986   2.522  0.00  0.00    +0.003 A 
ENDBRANCH  24  29
ENDBRANCH  22  24
ENDBRANCH   1  22
TORSDOF 5
