REMARK  Name = ZINC37087192
REMARK  7 active torsions:
REMARK  status: ('A' for Active; 'I' for Inactive)
REMARK    1  A    between atoms: C_1  and  C_2
REMARK    2  A    between atoms: C_5  and  C_9
REMARK    3  A    between atoms: C_6  and  O_8
REMARK    4  A    between atoms: C_9  and  C_11
REMARK    5  A    between atoms: C_9  and  N_12
REMARK    6  A    between atoms: N_12  and  C_13
REMARK    7  A    between atoms: N_22  and  C_23
REMARK                            x       y       z     vdW  Elec       q    Type
REMARK                         _______ _______ _______ _____ _____    ______ ____
ROOT
ATOM      1  N   UNL     1      -0.360  -4.812  -1.380  0.00  0.00    +0.388 N 
ATOM      2  H   UNL     1      -1.171  -4.334  -1.743  0.00  0.00    -0.084 HD
ATOM      3  H   UNL     1       0.430  -4.640  -1.984  0.00  0.00    -0.084 HD
ENDROOT
BRANCH   1   4
ATOM      4  C   UNL     1      -0.626  -6.255  -1.321  0.00  0.00    -0.037 C 
ATOM      5  C   UNL     1      -1.921  -6.510  -0.539  0.00  0.00    -0.011 C 
ATOM      6  C   UNL     1      -2.333  -7.976  -0.697  0.00  0.00    +0.005 C 
ATOM      7  C   UNL     1      -2.811  -8.222  -2.133  0.00  0.00    +0.055 C 
ATOM      8  C   UNL     1      -1.774  -7.671  -3.080  0.00  0.00    +0.040 A 
ATOM      9  C   UNL     1      -0.799  -6.797  -2.718  0.00  0.00    -0.021 A 
ATOM     10  C   UNL     1      -0.032  -6.516  -3.846  0.00  0.00    +0.136 A 
ATOM     11  N   UNL     1      -0.524  -7.196  -4.853  0.00  0.00    -0.179 NA
ATOM     12  N   UNL     1      -1.628  -7.931  -4.390  0.00  0.00    -0.271 N 
ATOM     13  C   UNL     1      -2.469  -8.823  -5.191  0.00  0.00    +0.172 C 
ENDBRANCH   1   4
BRANCH   1  14
ATOM     14  C   UNL     1      -0.061  -4.313  -0.031  0.00  0.00    -0.040 C 
ATOM     15  C   UNL     1       1.255  -4.922   0.458  0.00  0.00    -0.009 C 
BRANCH  14  20
ATOM     16  C   UNL     1       0.413   1.448  -0.170  0.00  0.00    +0.044 C 
ATOM     17  C   UNL     1       0.289  -0.054  -0.131  0.00  0.00    -0.047 A 
ATOM     18  C   UNL     1       0.423  -0.789  -1.295  0.00  0.00    +0.004 A 
ATOM     19  C   UNL     1       0.310  -2.166  -1.262  0.00  0.00    +0.006 A 
ATOM     20  C   UNL     1       0.063  -2.812  -0.066  0.00  0.00    -0.020 A 
ATOM     21  C   UNL     1      -0.072  -2.077   1.103  0.00  0.00    +0.119 A 
ATOM     22  C   UNL     1       0.048  -0.695   1.068  0.00  0.00    +0.049 A 
BRANCH  21  23
ATOM     23  O   UNL     1      -0.315  -2.710   2.281  0.00  0.00    -0.507 OA
ATOM     24  H   UNL     1       0.483  -2.961   2.765  0.00  0.00    +0.292 HD
ENDBRANCH  21  23
ENDBRANCH  14  20
ENDBRANCH   1  14
TORSDOF 4
