REMARK  Name = ZINC28055525
REMARK  5 active torsions:
REMARK  status: ('A' for Active; 'I' for Inactive)
REMARK    1  A    between atoms: C_1  and  C_2
REMARK    2  A    between atoms: C_10  and  C_18
REMARK    3  A    between atoms: C_21  and  O_24
REMARK    4  A    between atoms: O_24  and  C_25
REMARK    5  A    between atoms: C_26  and  C_29
REMARK                            x       y       z     vdW  Elec       q    Type
REMARK                         _______ _______ _______ _____ _____    ______ ____
ROOT
ATOM      1  C   UNL     1      -1.610   0.129   0.135  0.00  0.00    +0.044 C 
ATOM      2  C   UNL     1      -0.493   1.139   0.098  0.00  0.00    -0.050 A 
ATOM      3  C   UNL     1       0.822   0.711   0.040  0.00  0.00    +0.007 A 
ATOM      4  C   UNL     1       1.858   1.626  -0.000  0.00  0.00    +0.046 A 
ATOM      5  C   UNL     1       1.579   2.980   0.023  0.00  0.00    +0.131 A 
ATOM      6  C   UNL     1       0.249   3.416   0.090  0.00  0.00    +0.038 A 
ATOM      7  C   UNL     1      -0.786   2.490   0.128  0.00  0.00    +0.016 A 
ATOM      8  C   UNL     1      -0.013   4.874   0.120  0.00  0.00    +0.050 C 
ATOM      9  C   UNL     1       0.964   5.703  -0.252  0.00  0.00    +0.025 C 
ATOM     10  C   UNL     1       0.796   7.203  -0.246  0.00  0.00    +0.174 C 
ATOM     11  N   UNL     1      -0.412   7.570   0.478  0.00  0.00    -0.201 N 
ATOM     12  C   UNL     1      -1.379   6.685   0.837  0.00  0.00    +0.240 A 
ATOM     13  N   UNL     1      -2.309   7.354   1.454  0.00  0.00    -0.092 NA
ATOM     14  N   UNL     1      -1.994   8.603   1.516  0.00  0.00    -0.021 NA
ATOM     15  N   UNL     1      -0.851   8.808   0.944  0.00  0.00    -0.042 NA
ATOM     16  N   UNL     1      -1.266   5.336   0.543  0.00  0.00    -0.282 N 
ATOM     17  C   UNL     1       2.285   5.127  -0.709  0.00  0.00    +0.234 C 
ATOM     18  O   UNL     1       2.567   3.910  -0.019  0.00  0.00    -0.479 OA
ATOM     19  H   UNL     1      -2.109   4.635   0.630  0.00  0.00    +0.155 HD
ENDROOT
BRANCH  10  20
ATOM     20  C   UNL     1       0.698   7.700  -1.666  0.00  0.00    -0.018 A 
ATOM     21  C   UNL     1      -0.317   7.246  -2.487  0.00  0.00    +0.009 A 
ATOM     22  C   UNL     1      -0.412   7.705  -3.787  0.00  0.00    +0.046 A 
ATOM     23  C   UNL     1       0.518   8.612  -4.271  0.00  0.00    +0.120 A 
ATOM     24  C   UNL     1       1.540   9.061  -3.446  0.00  0.00    +0.046 A 
ATOM     25  C   UNL     1       1.627   8.604  -2.146  0.00  0.00    +0.009 A 
BRANCH  23  26
ATOM     26  O   UNL     1       0.430   9.060  -5.551  0.00  0.00    -0.495 OA
ATOM     27  C   UNL     1      -0.647   8.555  -6.342  0.00  0.00    +0.277 C 
ENDBRANCH  23  26
ENDBRANCH  10  20
BRANCH  17  28
ATOM     28  C   UNL     1       2.223   4.855  -2.190  0.00  0.00    -0.003 A 
ATOM     29  C   UNL     1       1.497   3.779  -2.665  0.00  0.00    +0.007 A 
ATOM     30  C   UNL     1       1.436   3.531  -4.023  0.00  0.00    +0.000 A 
ATOM     31  C   UNL     1       2.109   4.355  -4.906  0.00  0.00    +0.000 A 
ATOM     32  C   UNL     1       2.839   5.428  -4.431  0.00  0.00    +0.000 A 
ATOM     33  C   UNL     1       2.896   5.678  -3.073  0.00  0.00    +0.007 A 
ENDBRANCH  17  28
TORSDOF 3
