REMARK  Name = ZINC05248533
REMARK  10 active torsions:
REMARK  status: ('A' for Active; 'I' for Inactive)
REMARK    1  A    between atoms: C_1  and  O_2
REMARK    2  A    between atoms: O_2  and  C_3
REMARK    3  A    between atoms: C_7  and  C_9
REMARK    4  A    between atoms: C_16  and  N_32
REMARK    5  A    between atoms: C_17  and  C_30
REMARK    6  A    between atoms: C_18  and  C_20
REMARK    7  A    between atoms: C_23  and  O_28
REMARK    8  A    between atoms: C_24  and  O_26
REMARK    9  A    between atoms: O_26  and  C_27
REMARK   10  A    between atoms: O_28  and  C_29
REMARK                            x       y       z     vdW  Elec       q    Type
REMARK                         _______ _______ _______ _____ _____    ______ ____
ROOT
ATOM      1  C   UNL     1      -2.672  -4.502  -0.195  0.00  0.00    +0.100 A 
ATOM      2  C   UNL     1      -3.552  -5.120   0.698  0.00  0.00    +0.054 A 
ATOM      3  C   UNL     1      -3.403  -6.471   0.572  0.00  0.00    +0.223 A 
ATOM      4  N   UNL     1      -2.461  -6.694  -0.368  0.00  0.00    -0.246 N 
ATOM      5  H   UNL     1      -2.148  -7.562  -0.667  0.00  0.00    +0.192 HD
ATOM      6  N   UNL     1      -2.018  -5.449  -0.842  0.00  0.00    -0.171 NA
ATOM      7  O   UNL     1      -4.117  -7.358   1.308  0.00  0.00    -0.423 OA
ATOM      8  C   UNL     1      -4.795  -6.884   2.374  0.00  0.00    +0.200 C 
ATOM      9  C   UNL     1      -5.018  -5.571   2.599  0.00  0.00    +0.098 C 
ATOM     10  C   UNL     1      -4.527  -4.495   1.662  0.00  0.00    +0.102 C 
ENDROOT
BRANCH   1  15
ATOM     11  C   UNL     1      -2.332  -0.825   0.531  0.00  0.00    +0.121 A 
ATOM     12  C   UNL     1      -2.195  -0.309  -0.751  0.00  0.00    +0.045 A 
ATOM     13  C   UNL     1      -2.213  -1.154  -1.845  0.00  0.00    +0.004 A 
ATOM     14  C   UNL     1      -2.368  -2.514  -1.669  0.00  0.00    +0.010 A 
ATOM     15  C   UNL     1      -2.506  -3.040  -0.386  0.00  0.00    +0.006 A 
ATOM     16  C   UNL     1      -2.482  -2.189   0.716  0.00  0.00    +0.055 A 
BRANCH  11  18
ATOM     17  C   UNL     1      -2.156   1.404   1.339  0.00  0.00    +0.277 C 
ATOM     18  O   UNL     1      -2.313   0.008   1.604  0.00  0.00    -0.495 OA
ENDBRANCH  11  18
ENDBRANCH   1  15
BRANCH  10  19
ATOM     19  C   UNL     1      -5.691  -3.913   0.902  0.00  0.00    -0.031 A 
ATOM     20  C   UNL     1      -6.450  -4.721   0.077  0.00  0.00    +0.008 A 
ATOM     21  C   UNL     1      -7.519  -4.192  -0.622  0.00  0.00    +0.050 A 
ATOM     22  C   UNL     1      -7.832  -2.848  -0.496  0.00  0.00    +0.162 A 
ATOM     23  C   UNL     1      -7.068  -2.034   0.335  0.00  0.00    +0.162 A 
ATOM     24  C   UNL     1      -6.001  -2.572   1.036  0.00  0.00    +0.054 A 
BRANCH  23  25
ATOM     25  O   UNL     1      -7.371  -0.714   0.461  0.00  0.00    -0.491 OA
ATOM     26  C   UNL     1      -6.512   0.072   1.290  0.00  0.00    +0.277 C 
ENDBRANCH  23  25
BRANCH  22  27
ATOM     27  O   UNL     1      -8.882  -2.325  -1.184  0.00  0.00    -0.491 OA
ATOM     28  C   UNL     1      -9.621  -3.220  -2.018  0.00  0.00    +0.277 C 
ENDBRANCH  22  27
ENDBRANCH  10  19
BRANCH   8  29
ATOM     29  N   UNL     1      -5.286  -7.788   3.282  0.00  0.00    -0.328 N 
ATOM     30  H   UNL     1      -5.141  -8.738   3.148  0.00  0.00    +0.145 HD
ATOM     31  H   UNL     1      -5.777  -7.478   4.059  0.00  0.00    +0.145 HD
ENDBRANCH   8  29
BRANCH   9  32
ATOM     32  C   UNL     1      -5.748  -5.185   3.769  0.00  0.00    +0.101 C 
ATOM     33  N   UNL     1      -6.327  -4.880   4.697  0.00  0.00    -0.191 NA
ENDBRANCH   9  32
TORSDOF 7
