REMARK  Name = ZINC40058133
REMARK  8 active torsions:
REMARK  status: ('A' for Active; 'I' for Inactive)
REMARK    1  A    between atoms: C_1  and  C_2
REMARK    2  A    between atoms: C_2  and  O_3
REMARK    3  A    between atoms: O_3  and  C_4
REMARK    4  A    between atoms: C_6  and  C_11
REMARK    5  A    between atoms: C_9  and  O_10
REMARK    6  A    between atoms: C_17  and  C_38
REMARK    7  A    between atoms: C_19  and  C_37
REMARK    8  A    between atoms: C_32  and  C_36
REMARK                            x       y       z     vdW  Elec       q    Type
REMARK                         _______ _______ _______ _____ _____    ______ ____
ROOT
ATOM      1  C   UNL     1      -0.217  -4.963  -0.535  0.00  0.00    +0.152 C 
ATOM      2  C   UNL     1       0.855  -5.469  -1.443  0.00  0.00    +0.072 A 
ATOM      3  C   UNL     1       1.766  -4.764  -2.351  0.00  0.00    +0.199 A 
ATOM      4  O   UNL     1       1.886  -3.552  -2.365  0.00  0.00    -0.287 OA
ATOM      5  C   UNL     1       2.528  -5.668  -3.249  0.00  0.00    +0.067 A 
ATOM      6  C   UNL     1       3.283  -5.147  -4.300  0.00  0.00    -0.036 A 
ATOM      7  C   UNL     1       3.974  -5.993  -5.122  0.00  0.00    +0.007 A 
ATOM      8  C   UNL     1       3.927  -7.364  -4.913  0.00  0.00    -0.047 A 
ATOM      9  C   UNL     1       3.188  -7.895  -3.880  0.00  0.00    +0.050 A 
ATOM     10  C   UNL     1       2.475  -7.053  -3.026  0.00  0.00    +0.140 A 
ATOM     11  O   UNL     1       1.764  -7.596  -2.011  0.00  0.00    -0.450 OA
ATOM     12  C   UNL     1       0.894  -6.830  -1.323  0.00  0.00    +0.199 A 
ATOM     13  C   UNL     1      -0.138  -7.238  -0.356  0.00  0.00    +0.289 C 
ATOM     14  O   UNL     1      -0.368  -8.385  -0.025  0.00  0.00    -0.266 OA
ATOM     15  N   UNL     1      -0.793  -6.154   0.111  0.00  0.00    -0.232 N 
ATOM     16  C   UNL     1      -1.824  -6.159   1.034  0.00  0.00    +0.169 A 
ATOM     17  N   UNL     1      -2.500  -5.144   1.519  0.00  0.00    -0.224 NA
ATOM     18  C   UNL     1      -3.491  -5.297   2.424  0.00  0.00    +0.080 A 
ATOM     19  C   UNL     1      -4.290  -4.295   3.022  0.00  0.00    +0.029 A 
ATOM     20  C   UNL     1      -5.262  -4.625   3.931  0.00  0.00    +0.005 A 
ATOM     21  C   UNL     1      -5.496  -5.943   4.296  0.00  0.00    -0.049 A 
ATOM     22  C   UNL     1      -4.734  -6.948   3.730  0.00  0.00    +0.020 A 
ATOM     23  C   UNL     1      -3.759  -6.628   2.819  0.00  0.00    +0.041 A 
ATOM     24  S   UNL     1      -2.580  -7.551   1.862  0.00  0.00    -0.052 S 
ATOM     25  C   UNL     1      -6.571  -6.275   5.299  0.00  0.00    +0.044 C 
ATOM     26  C   UNL     1       4.693  -8.284  -5.828  0.00  0.00    +0.044 C 
ATOM     27  C   UNL     1       3.335  -3.659  -4.529  0.00  0.00    +0.044 C 
ENDROOT
BRANCH   1  30
ATOM     28  C   UNL     1       0.802  -1.825   1.306  0.00  0.00    +0.162 A 
ATOM     29  C   UNL     1       0.261  -2.673   0.353  0.00  0.00    +0.055 A 
ATOM     30  C   UNL     1       0.372  -4.043   0.502  0.00  0.00    -0.018 A 
ATOM     31  C   UNL     1       1.024  -4.570   1.602  0.00  0.00    +0.009 A 
ATOM     32  C   UNL     1       1.566  -3.730   2.557  0.00  0.00    +0.049 A 
ATOM     33  C   UNL     1       1.462  -2.356   2.410  0.00  0.00    +0.158 A 
BRANCH  33  34
ATOM     34  O   UNL     1       2.000  -1.528   3.345  0.00  0.00    -0.503 OA
ATOM     35  H   UNL     1       1.395  -1.301   4.064  0.00  0.00    +0.292 HD
ENDBRANCH  33  34
BRANCH  28  36
ATOM     36  O   UNL     1       0.693  -0.477   1.160  0.00  0.00    -0.489 OA
BRANCH  36  38
ATOM     37  C   UNL     1      -0.019   1.526   0.010  0.00  0.00    +0.048 C 
ATOM     38  C   UNL     1       0.002  -0.004   0.002  0.00  0.00    +0.226 C 
ENDBRANCH  36  38
ENDBRANCH  28  36
ENDBRANCH   1  30
TORSDOF 4
