REMARK  Name = ZINC52884270
REMARK  6 active torsions:
REMARK  status: ('A' for Active; 'I' for Inactive)
REMARK    1  A    between atoms: C_1  and  C_2
REMARK    2  A    between atoms: C_2  and  C_3
REMARK    3  A    between atoms: C_2  and  C_4
REMARK    4  A    between atoms: N_7  and  C_9
REMARK    5  A    between atoms: C_18  and  C_19
REMARK    6  A    between atoms: C_19  and  N_21
REMARK                            x       y       z     vdW  Elec       q    Type
REMARK                         _______ _______ _______ _____ _____    ______ ____
ROOT
ATOM      1  C   UNL     1       1.063  -1.499   4.640  0.00  0.00    +0.085 A 
ATOM      2  C   UNL     1      -0.217  -1.517   5.237  0.00  0.00    +0.026 A 
ATOM      3  C   UNL     1      -1.304  -0.854   4.647  0.00  0.00    +0.012 A 
ATOM      4  C   UNL     1      -2.525  -0.892   5.250  0.00  0.00    +0.001 A 
ATOM      5  C   UNL     1      -2.708  -1.581   6.446  0.00  0.00    +0.002 A 
ATOM      6  C   UNL     1      -1.674  -2.235   7.045  0.00  0.00    +0.028 A 
ATOM      7  C   UNL     1      -0.400  -2.219   6.453  0.00  0.00    +0.073 A 
ATOM      8  N   UNL     1       0.629  -2.857   7.025  0.00  0.00    -0.254 NA
ATOM      9  C   UNL     1       1.825  -2.857   6.494  0.00  0.00    +0.123 A 
ATOM     10  C   UNL     1       2.095  -2.190   5.287  0.00  0.00    +0.047 A 
ENDROOT
BRANCH   1  14
ATOM     11  C   UNL     1       1.544  -0.442   1.299  0.00  0.00    +0.066 A 
ATOM     12  C   UNL     1       1.706   0.762   1.996  0.00  0.00    +0.045 A 
ATOM     13  C   UNL     1       1.547   0.506   3.314  0.00  0.00    +0.115 A 
ATOM     14  N   UNL     1       1.290  -0.823   3.446  0.00  0.00    -0.238 N 
ATOM     15  N   UNL     1       1.289  -1.389   2.164  0.00  0.00    -0.171 NA
BRANCH  11  17
ATOM     16  C   UNL     1       0.289  -0.284  -0.834  0.00  0.00    +0.014 C 
ATOM     17  C   UNL     1       1.639  -0.615  -0.195  0.00  0.00    +0.033 C 
ATOM     18  C   UNL     1       2.710   0.326  -0.750  0.00  0.00    +0.014 C 
ENDBRANCH  11  17
ENDBRANCH   1  14
BRANCH  10  19
ATOM     19  C   UNL     1       3.450  -2.213   4.711  0.00  0.00    +0.080 C 
ATOM     20  S   UNL     1       3.732  -1.545   3.160  0.00  0.00    -0.035 S 
BRANCH  19  21
ATOM     21  N   UNL     1       4.467  -2.761   5.405  0.00  0.00    -0.352 N 
ATOM     22  H   UNL     1       4.307  -3.139   6.283  0.00  0.00    +0.143 HD
ATOM     23  H   UNL     1       5.360  -2.776   5.025  0.00  0.00    +0.143 HD
ENDBRANCH  19  21
ENDBRANCH  10  19
TORSDOF 4
