REMARK  Name = ZINC08927850
REMARK  8 active torsions:
REMARK  status: ('A' for Active; 'I' for Inactive)
REMARK    1  A    between atoms: C_1  and  C_2
REMARK    2  A    between atoms: C_5  and  C_29
REMARK    3  A    between atoms: C_6  and  C_8
REMARK    4  A    between atoms: C_8  and  N_9
REMARK    5  A    between atoms: C_16  and  C_19
REMARK    6  A    between atoms: C_16  and  O_28
REMARK    7  A    between atoms: C_19  and  C_20
REMARK    8  A    between atoms: C_20  and  C_22
REMARK                            x       y       z     vdW  Elec       q    Type
REMARK                         _______ _______ _______ _____ _____    ______ ____
ROOT
ATOM      1  N   UNL     1       1.204   1.901  -0.003  0.00  0.00    -0.264 N 
ATOM      2  C   UNL     1      -0.113   1.439   0.002  0.00  0.00    +0.043 A 
ATOM      3  C   UNL     1      -1.322   2.132   0.017  0.00  0.00    +0.024 A 
ATOM      4  C   UNL     1      -2.516   1.442   0.016  0.00  0.00    +0.002 A 
ATOM      5  C   UNL     1      -2.524   0.059   0.008  0.00  0.00    +0.000 A 
ATOM      6  C   UNL     1      -1.327  -0.636  -0.003  0.00  0.00    +0.009 A 
ATOM      7  C   UNL     1      -0.134   0.050  -0.006  0.00  0.00    +0.015 A 
ATOM      8  C   UNL     1       1.310  -0.397  -0.017  0.00  0.00    +0.175 C 
ATOM      9  C   UNL     1       2.096   0.896  -0.014  0.00  0.00    +0.257 C 
ATOM     10  O   UNL     1       3.304   1.005  -0.019  0.00  0.00    -0.272 OA
ENDROOT
BRANCH   8  11
ATOM     11  O   UNL     1       1.590  -1.155  -1.195  0.00  0.00    -0.374 OA
ATOM     12  H   UNL     1       2.504  -1.467  -1.254  0.00  0.00    +0.211 HD
ENDBRANCH   8  11
BRANCH   1  13
ATOM     13  C   UNL     1       1.571   3.320   0.002  0.00  0.00    +0.149 C 
BRANCH  13  19
ATOM     14  C   UNL     1       1.249   2.455   4.920  0.00  0.00    +0.044 C 
ATOM     15  C   UNL     1       1.443   3.413   3.774  0.00  0.00    -0.050 A 
ATOM     16  C   UNL     1       1.644   4.758   4.023  0.00  0.00    +0.003 A 
ATOM     17  C   UNL     1       1.823   5.637   2.972  0.00  0.00    +0.004 A 
ATOM     18  C   UNL     1       1.803   5.171   1.670  0.00  0.00    -0.046 A 
ATOM     19  C   UNL     1       1.597   3.827   1.420  0.00  0.00    -0.027 A 
ATOM     20  C   UNL     1       1.420   2.948   2.472  0.00  0.00    +0.008 A 
ATOM     21  C   UNL     1       2.002   6.128   0.524  0.00  0.00    +0.044 C 
ENDBRANCH  13  19
ENDBRANCH   1  13
BRANCH   8  22
ATOM     22  C   UNL     1       1.625  -1.219   1.235  0.00  0.00    +0.129 C 
BRANCH  22  23
ATOM     23  C   UNL     1       3.095  -1.549   1.262  0.00  0.00    +0.173 C 
ATOM     24  O   UNL     1       3.821  -1.163   0.367  0.00  0.00    -0.291 OA
BRANCH  23  25
ATOM     25  C   UNL     1       3.629  -2.304   2.327  0.00  0.00    +0.056 A 
ATOM     26  C   UNL     1       4.943  -2.713   2.540  0.00  0.00    +0.020 A 
ATOM     27  C   UNL     1       5.190  -3.446   3.670  0.00  0.00    +0.028 A 
ATOM     28  C   UNL     1       4.161  -3.736   4.515  0.00  0.00    +0.079 A 
ATOM     29  S   UNL     1       2.799  -2.979   3.754  0.00  0.00    -0.074 S 
ATOM     30 CL   UNL     1       4.204  -4.637   5.997  0.00  0.00    -0.076 Cl
ENDBRANCH  23  25
ENDBRANCH  22  23
ENDBRANCH   8  22
TORSDOF 6
