REMARK  Name = ZINC22821986
REMARK  9 active torsions:
REMARK  status: ('A' for Active; 'I' for Inactive)
REMARK    1  A    between atoms: C_1  and  O_2
REMARK    2  A    between atoms: O_2  and  C_3
REMARK    3  A    between atoms: C_7  and  C_9
REMARK    4  A    between atoms: C_14  and  C_19
REMARK    5  A    between atoms: C_22  and  O_27
REMARK    6  A    between atoms: C_23  and  O_25
REMARK    7  A    between atoms: O_25  and  C_26
REMARK    8  A    between atoms: O_27  and  C_28
REMARK    9  A    between atoms: C_33  and  C_35
REMARK                            x       y       z     vdW  Elec       q    Type
REMARK                         _______ _______ _______ _____ _____    ______ ____
ROOT
ATOM      1  C   UNL     1      -2.513   0.980   0.020  0.00  0.00    +0.176 C 
ATOM      2  C   UNL     1      -3.297   1.319   1.268  0.00  0.00    +0.041 C 
ATOM      3  C   UNL     1      -4.395   2.103   1.236  0.00  0.00    +0.020 C 
ATOM      4  C   UNL     1      -5.142   2.445   2.504  0.00  0.00    +0.060 C 
ATOM      5  C   UNL     1      -5.026   1.287   3.497  0.00  0.00    +0.032 C 
ATOM      6  C   UNL     1      -3.541   1.040   3.781  0.00  0.00    +0.088 C 
ATOM      7  C   UNL     1      -2.832   0.778   2.481  0.00  0.00    +0.164 C 
ATOM      8  O   UNL     1      -1.835   0.083   2.478  0.00  0.00    -0.292 OA
ATOM      9  N   UNL     1      -4.878   2.626   0.060  0.00  0.00    -0.287 N 
ATOM     10  C   UNL     1      -4.394   2.110  -1.131  0.00  0.00    +0.219 A 
ATOM     11  N   UNL     1      -3.286   1.329  -1.165  0.00  0.00    -0.220 N 
ATOM     12  N   UNL     1      -3.089   0.979  -2.500  0.00  0.00    -0.143 NA
ATOM     13  C   UNL     1      -4.050   1.548  -3.185  0.00  0.00    +0.256 A 
ATOM     14  N   UNL     1      -4.838   2.233  -2.351  0.00  0.00    -0.189 NA
ATOM     15  H   UNL     1      -5.628   3.431   0.083  0.00  0.00    +0.155 HD
ENDROOT
BRANCH   1  20
ATOM     16  C   UNL     1       1.179   1.786   0.000  0.00  0.00    +0.120 A 
ATOM     17  C   UNL     1       1.157   3.174   0.008  0.00  0.00    +0.045 A 
ATOM     18  C   UNL     1      -0.051   3.844   0.022  0.00  0.00    +0.004 A 
ATOM     19  C   UNL     1      -1.237   3.133   0.030  0.00  0.00    +0.006 A 
ATOM     20  C   UNL     1      -1.218   1.751   0.017  0.00  0.00    -0.015 A 
ATOM     21  C   UNL     1      -0.013   1.076   0.008  0.00  0.00    +0.051 A 
BRANCH  16  23
ATOM     22  C   UNL     1       3.552   1.921  -0.021  0.00  0.00    +0.277 C 
ATOM     23  O   UNL     1       2.366   1.125  -0.014  0.00  0.00    -0.495 OA
ENDBRANCH  16  23
ENDBRANCH   1  20
BRANCH   5  24
ATOM     24  C   UNL     1      -5.736   1.643   4.778  0.00  0.00    -0.040 A 
ATOM     25  C   UNL     1      -5.328   2.743   5.509  0.00  0.00    +0.008 A 
ATOM     26  C   UNL     1      -5.979   3.078   6.682  0.00  0.00    +0.049 A 
ATOM     27  C   UNL     1      -7.037   2.304   7.132  0.00  0.00    +0.161 A 
ATOM     28  C   UNL     1      -7.444   1.193   6.399  0.00  0.00    +0.162 A 
ATOM     29  C   UNL     1      -6.790   0.867   5.221  0.00  0.00    +0.053 A 
BRANCH  28  30
ATOM     30  O   UNL     1      -8.481   0.431   6.836  0.00  0.00    -0.491 OA
ATOM     31  C   UNL     1      -8.844  -0.694   6.032  0.00  0.00    +0.277 C 
ENDBRANCH  28  30
BRANCH  27  32
ATOM     32  O   UNL     1      -7.675   2.628   8.288  0.00  0.00    -0.491 OA
ATOM     33  C   UNL     1      -7.203   3.781   8.988  0.00  0.00    +0.277 C 
ENDBRANCH  27  32
ENDBRANCH   5  24
BRANCH  13  34
ATOM     34  C   UNL     1      -4.237   1.446  -4.677  0.00  0.00    +0.454 C 
ATOM     35  F   UNL     1      -5.299   0.580  -4.956  0.00  0.00    -0.163 F 
ATOM     36  F   UNL     1      -4.519   2.713  -5.199  0.00  0.00    -0.163 F 
ATOM     37  F   UNL     1      -3.066   0.952  -5.261  0.00  0.00    -0.163 F 
ENDBRANCH  13  34
TORSDOF 6
