REMARK  Name = ZINC57049735
REMARK  6 active torsions:
REMARK  status: ('A' for Active; 'I' for Inactive)
REMARK    1  A    between atoms: C_6  and  C_7
REMARK    2  A    between atoms: N_18  and  C_24
REMARK    3  A    between atoms: C_24  and  C_25
REMARK    4  A    between atoms: C_25  and  C_27
REMARK    5  A    between atoms: C_25  and  O_35
REMARK    6  A    between atoms: C_27  and  N_28
REMARK                            x       y       z     vdW  Elec       q    Type
REMARK                         _______ _______ _______ _____ _____    ______ ____
ROOT
ATOM      1  C   UNL     1      -0.017   1.381   0.010  0.00  0.00    +0.006 A 
ATOM      2  C   UNL     1       1.144   2.133   0.003  0.00  0.00    +0.027 A 
ATOM      3  C   UNL     1       2.353   1.441  -0.012  0.00  0.00    +0.050 A 
ATOM      4  C   UNL     1       2.367   0.013  -0.018  0.00  0.00    +0.004 A 
ATOM      5  C   UNL     1       1.175  -0.717  -0.012  0.00  0.00    +0.014 A 
ATOM      6  C   UNL     1       0.002  -0.004   0.002  0.00  0.00    -0.044 A 
ATOM      7  C   UNL     1       3.753  -0.370  -0.026  0.00  0.00    -0.017 A 
ATOM      8  C   UNL     1       4.467   0.773  -0.005  0.00  0.00    +0.040 A 
ATOM      9  N   UNL     1       3.647   1.866  -0.027  0.00  0.00    -0.341 N 
ATOM     10  C   UNL     1       4.196   3.230  -0.078  0.00  0.00    +0.137 C 
ATOM     11  C   UNL     1       5.678   3.162   0.309  0.00  0.00    +0.106 C 
ATOM     12  N   UNL     1       6.381   2.120  -0.453  0.00  0.00    -0.290 NA
ATOM     13  C   UNL     1       5.979   0.773   0.004  0.00  0.00    +0.104 C 
ATOM     14  C   UNL     1       6.459  -0.287  -0.973  0.00  0.00    +0.025 C 
ATOM     15  C   UNL     1       5.670  -1.572  -1.008  0.00  0.00    +0.007 C 
ATOM     16  C   UNL     1       4.484  -1.683  -0.062  0.00  0.00    +0.037 C 
ENDROOT
BRANCH   6  17
ATOM     17  C   UNL     1      -1.306  -0.752   0.009  0.00  0.00    +0.019 C 
ATOM     18  C   UNL     1      -2.118  -0.372  -1.231  0.00  0.00    +0.008 C 
ATOM     19  C   UNL     1      -3.446  -1.131  -1.223  0.00  0.00    +0.001 C 
ATOM     20  C   UNL     1      -4.236  -0.764   0.035  0.00  0.00    +0.000 C 
ATOM     21  C   UNL     1      -3.424  -1.144   1.275  0.00  0.00    +0.001 C 
ATOM     22  C   UNL     1      -2.096  -0.385   1.268  0.00  0.00    +0.008 C 
ENDBRANCH   6  17
BRANCH  12  23
ATOM     23  C   UNL     1       7.837   2.293  -0.363  0.00  0.00    +0.114 C 
BRANCH  23  24
ATOM     24  C   UNL     1       8.240   3.592  -1.064  0.00  0.00    +0.112 C 
BRANCH  24  25
ATOM     25  O   UNL     1       7.852   3.532  -2.438  0.00  0.00    -0.392 OA
ATOM     26  H   UNL     1       8.257   2.804  -2.930  0.00  0.00    +0.210 HD
ENDBRANCH  24  25
BRANCH  24  27
ATOM     27  C   UNL     1       9.756   3.773  -0.970  0.00  0.00    -0.046 C 
BRANCH  27  28
ATOM     28  N   UNL     1      10.130   5.075  -1.538  0.00  0.00    +0.381 N 
ATOM     29  C   UNL     1       9.608   6.138  -0.710  0.00  0.00    -0.079 C 
ATOM     30  C   UNL     1       9.147   7.333  -1.562  0.00  0.00    -0.019 C 
ATOM     31  C   UNL     1      10.115   7.646  -2.720  0.00  0.00    -0.002 C 
ATOM     32  C   UNL     1      11.566   7.569  -2.321  0.00  0.00    -0.002 C 
ATOM     33  C   UNL     1      12.088   6.134  -2.577  0.00  0.00    -0.019 C 
ATOM     34  C   UNL     1      11.598   5.207  -1.561  0.00  0.00    -0.079 C 
ATOM     35  H   UNL     1       9.764   5.158  -2.474  0.00  0.00    -0.082 HD
ENDBRANCH  27  28
ENDBRANCH  24  27
ENDBRANCH  23  24
ENDBRANCH  12  23
TORSDOF 6
