REMARK  Name = ZINC66895548
REMARK  7 active torsions:
REMARK  status: ('A' for Active; 'I' for Inactive)
REMARK    1  A    between atoms: C_4  and  O_7
REMARK    2  A    between atoms: O_7  and  C_8
REMARK    3  A    between atoms: N_10  and  C_11
REMARK    4  A    between atoms: N_14  and  C_17
REMARK    5  A    between atoms: C_17  and  C_18
REMARK    6  A    between atoms: C_18  and  C_20
REMARK    7  A    between atoms: C_18  and  O_27
REMARK                            x       y       z     vdW  Elec       q    Type
REMARK                         _______ _______ _______ _____ _____    ______ ____
ROOT
ATOM      1  C   UNL     1       4.689  -4.126   0.255  0.00  0.00    +0.073 C 
ATOM      2  C   UNL     1       4.515  -4.531   1.721  0.00  0.00    +0.004 C 
ATOM      3  C   UNL     1       4.568  -6.056   1.834  0.00  0.00    -0.077 C 
ATOM      4  N   UNL     1       5.863  -6.542   1.341  0.00  0.00    +0.382 N 
ATOM      5  C   UNL     1       6.006  -6.220  -0.084  0.00  0.00    -0.077 C 
ATOM      6  C   UNL     1       6.008  -4.701  -0.270  0.00  0.00    +0.004 C 
ATOM      7  H   UNL     1       6.606  -6.100   1.861  0.00  0.00    -0.082 HD
ENDROOT
BRANCH   1  10
ATOM      8  C   UNL     1       3.562  -1.975   0.060  0.00  0.00    +0.406 C 
ATOM      9  O   UNL     1       2.499  -2.565   0.066  0.00  0.00    -0.226 OA
ATOM     10  N   UNL     1       4.716  -2.665   0.150  0.00  0.00    -0.278 N 
ATOM     11  H   UNL     1       5.564  -2.195   0.145  0.00  0.00    +0.152 HD
BRANCH   8  12
ATOM     12  O   UNL     1       3.586  -0.632  -0.037  0.00  0.00    -0.412 OA
BRANCH  12  16
ATOM     13  C   UNL     1      -0.012   1.384   0.070  0.00  0.00    +0.000 A 
ATOM     14  C   UNL     1       0.471   0.774   1.212  0.00  0.00    +0.004 A 
ATOM     15  C   UNL     1       1.676   0.098   1.179  0.00  0.00    +0.046 A 
ATOM     16  C   UNL     1       2.400   0.032  -0.002  0.00  0.00    +0.133 A 
ATOM     17  C   UNL     1       1.913   0.644  -1.147  0.00  0.00    +0.046 A 
ATOM     18  C   UNL     1       0.708   1.319  -1.109  0.00  0.00    +0.004 A 
ENDBRANCH  12  16
ENDBRANCH   8  12
ENDBRANCH   1  10
BRANCH   4  19
ATOM     19  C   UNL     1       5.939  -7.997   1.523  0.00  0.00    -0.042 C 
BRANCH  19  20
ATOM     20  C   UNL     1       7.333  -8.489   1.127  0.00  0.00    +0.128 C 
BRANCH  20  21
ATOM     21  C   UNL     1       7.374  -9.993   1.196  0.00  0.00    -0.021 A 
ATOM     22  C   UNL     1       7.530 -10.625   2.415  0.00  0.00    +0.009 A 
ATOM     23  C   UNL     1       7.567 -12.005   2.480  0.00  0.00    +0.039 A 
ATOM     24  C   UNL     1       7.448 -12.755   1.322  0.00  0.00    +0.123 A 
ATOM     25  C   UNL     1       7.292 -12.121   0.101  0.00  0.00    +0.039 A 
ATOM     26  C   UNL     1       7.250 -10.741   0.040  0.00  0.00    +0.009 A 
ATOM     27  F   UNL     1       7.485 -14.104   1.384  0.00  0.00    -0.205 F 
ENDBRANCH  20  21
BRANCH  20  28
ATOM     28  O   UNL     1       8.303  -7.944   2.024  0.00  0.00    -0.389 OA
ATOM     29  H   UNL     1       8.166  -8.191   2.949  0.00  0.00    +0.210 HD
ENDBRANCH  20  28
ENDBRANCH  19  20
ENDBRANCH   4  19
TORSDOF 7
