REMARK  Name = ZINC13329587
REMARK  9 active torsions:
REMARK  status: ('A' for Active; 'I' for Inactive)
REMARK    1  A    between atoms: C_1  and  C_2
REMARK    2  A    between atoms: C_2  and  C_3
REMARK    3  A    between atoms: C_4  and  C_9
REMARK    4  A    between atoms: C_5  and  C_8
REMARK    5  A    between atoms: N_11  and  C_12
REMARK    6  A    between atoms: C_13  and  C_19
REMARK    7  A    between atoms: C_14  and  C_18
REMARK    8  A    between atoms: C_15  and  C_17
REMARK    9  A    between atoms: N_21  and  C_22
REMARK                            x       y       z     vdW  Elec       q    Type
REMARK                         _______ _______ _______ _____ _____    ______ ____
ROOT
ATOM      1  C   UNL     1      -2.692   2.251   2.457  0.00  0.00    +0.085 A 
ATOM      2  C   UNL     1      -2.142   1.808   1.260  0.00  0.00    +0.068 A 
ATOM      3  C   UNL     1      -0.718   1.572   1.248  0.00  0.00    -0.027 A 
ATOM      4  C   UNL     1      -0.047   1.809   2.389  0.00  0.00    -0.008 A 
ATOM      5  S   UNL     1      -1.321   2.349   3.510  0.00  0.00    -0.078 S 
ATOM      6  C   UNL     1       1.428   1.653   2.655  0.00  0.00    +0.052 C 
ATOM      7  C   UNL     1      -0.013   1.086   0.008  0.00  0.00    +0.045 C 
ENDROOT
BRANCH   1  10
ATOM      8  C   UNL     1      -4.365   2.973   3.969  0.00  0.00    +0.254 C 
ATOM      9  O   UNL     1      -3.517   3.098   4.832  0.00  0.00    -0.270 OA
ATOM     10  N   UNL     1      -4.016   2.547   2.739  0.00  0.00    -0.275 N 
ATOM     11  H   UNL     1      -4.693   2.447   2.050  0.00  0.00    +0.156 HD
BRANCH   8  13
ATOM     12  C   UNL     1      -6.824   2.393   4.777  0.00  0.00    +0.096 A 
ATOM     13  C   UNL     1      -5.773   3.288   4.268  0.00  0.00    +0.102 A 
ATOM     14  C   UNL     1      -6.429   4.487   4.136  0.00  0.00    +0.147 A 
ATOM     15  O   UNL     1      -7.686   4.273   4.531  0.00  0.00    -0.359 OA
ATOM     16  N   UNL     1      -7.887   3.136   4.879  0.00  0.00    -0.082 NA
ATOM     17  C   UNL     1      -5.846   5.786   3.643  0.00  0.00    +0.090 C 
BRANCH  12  19
ATOM     18  C   UNL     1      -6.289   0.776   6.579  0.00  0.00    +0.010 C 
ATOM     19  C   UNL     1      -6.696   0.930   5.112  0.00  0.00    +0.056 C 
ENDBRANCH  12  19
ENDBRANCH   8  13
ENDBRANCH   1  10
BRANCH   2  20
ATOM     20  C   UNL     1      -2.968   1.588   0.069  0.00  0.00    +0.247 C 
ATOM     21  O   UNL     1      -3.474   0.499  -0.128  0.00  0.00    -0.270 OA
ATOM     22  N   UNL     1      -3.167   2.592  -0.809  0.00  0.00    -0.308 N 
ATOM     23  H   UNL     1      -2.763   3.460  -0.652  0.00  0.00    +0.149 HD
BRANCH  22  24
ATOM     24  C   UNL     1      -3.992   2.372  -1.999  0.00  0.00    +0.073 C 
ATOM     25  C   UNL     1      -3.133   1.767  -3.111  0.00  0.00    +0.022 C 
ATOM     26  C   UNL     1      -3.995   1.537  -4.354  0.00  0.00    +0.002 C 
ATOM     27  C   UNL     1      -4.574   2.872  -4.826  0.00  0.00    +0.000 C 
ATOM     28  C   UNL     1      -5.434   3.477  -3.714  0.00  0.00    +0.002 C 
ATOM     29  C   UNL     1      -4.572   3.707  -2.471  0.00  0.00    +0.022 C 
ENDBRANCH  22  24
ENDBRANCH   2  20
TORSDOF 5
