REMARK  Name = ZINC38660855
REMARK  11 active torsions:
REMARK  status: ('A' for Active; 'I' for Inactive)
REMARK    1  A    between atoms: C_1  and  C_2
REMARK    2  A    between atoms: C_6  and  O_8
REMARK    3  A    between atoms: O_8  and  C_9
REMARK    4  A    between atoms: C_9  and  C_10
REMARK    5  A    between atoms: C_10  and  O_12
REMARK    6  A    between atoms: O_12  and  C_13
REMARK    7  A    between atoms: C_20  and  N_39
REMARK    8  A    between atoms: C_21  and  C_37
REMARK    9  A    between atoms: C_22  and  C_24
REMARK   10  A    between atoms: C_28  and  O_30
REMARK   11  A    between atoms: O_30  and  C_31
REMARK                            x       y       z     vdW  Elec       q    Type
REMARK                         _______ _______ _______ _____ _____    ______ ____
ROOT
ATOM      1  C   UNL     1       0.399  -7.003   5.154  0.00  0.00    +0.135 A 
ATOM      2  C   UNL     1       0.340  -6.178   6.269  0.00  0.00    +0.047 A 
ATOM      3  C   UNL     1       0.328  -6.729   7.535  0.00  0.00    +0.012 A 
ATOM      4  C   UNL     1       0.374  -8.102   7.699  0.00  0.00    +0.008 A 
ATOM      5  C   UNL     1       0.432  -8.931   6.589  0.00  0.00    +0.138 A 
ATOM      6  C   UNL     1       0.439  -8.379   5.314  0.00  0.00    +0.093 A 
ATOM      7  O   UNL     1       0.478 -10.278   6.729  0.00  0.00    -0.441 OA
ATOM      8  C   UNL     1       0.851 -10.818   7.902  0.00  0.00    +0.199 C 
ATOM      9  C   UNL     1       0.818 -10.114   9.057  0.00  0.00    +0.098 C 
ATOM     10  C   UNL     1       0.359  -8.683   9.088  0.00  0.00    +0.098 C 
ENDROOT
BRANCH  10  11
ATOM     11  C   UNL     1      -1.041  -8.619   9.641  0.00  0.00    -0.031 A 
ATOM     12  C   UNL     1      -2.070  -9.280   8.995  0.00  0.00    +0.005 A 
ATOM     13  C   UNL     1      -3.355  -9.223   9.500  0.00  0.00    +0.004 A 
ATOM     14  C   UNL     1      -3.616  -8.507  10.652  0.00  0.00    +0.046 A 
ATOM     15  C   UNL     1      -2.585  -7.843  11.302  0.00  0.00    +0.129 A 
ATOM     16  C   UNL     1      -1.294  -7.906  10.796  0.00  0.00    +0.050 A 
BRANCH  15  17
ATOM     17  O   UNL     1      -2.839  -7.137  12.435  0.00  0.00    -0.456 OA
BRANCH  17  18
ATOM     18  C   UNL     1      -1.828  -6.401  12.967  0.00  0.00    +0.128 A 
ATOM     19  C   UNL     1      -1.348  -5.289  12.291  0.00  0.00    +0.046 A 
ATOM     20  C   UNL     1      -0.321  -4.542  12.834  0.00  0.00    +0.004 A 
ATOM     21  C   UNL     1       0.229  -4.902  14.051  0.00  0.00    +0.000 A 
ATOM     22  C   UNL     1      -0.247  -6.010  14.727  0.00  0.00    +0.004 A 
ATOM     23  C   UNL     1      -1.279  -6.757  14.191  0.00  0.00    +0.046 A 
ENDBRANCH  17  18
ENDBRANCH  15  17
ENDBRANCH  10  11
BRANCH   8  24
ATOM     24  N   UNL     1       1.277 -12.123   7.929  0.00  0.00    -0.328 N 
ATOM     25  H   UNL     1       1.306 -12.640   7.109  0.00  0.00    +0.145 HD
ATOM     26  H   UNL     1       1.550 -12.527   8.768  0.00  0.00    +0.145 HD
ENDBRANCH   8  24
BRANCH   9  27
ATOM     27  C   UNL     1       1.228 -10.745  10.276  0.00  0.00    +0.101 C 
ATOM     28  N   UNL     1       1.554 -11.245  11.242  0.00  0.00    -0.191 NA
ENDBRANCH   9  27
BRANCH   1  29
ATOM     29  O   UNL     1       0.411  -6.463   3.907  0.00  0.00    -0.423 OA
BRANCH  29  30
ATOM     30  C   UNL     1       1.551  -5.901   3.474  0.00  0.00    +0.350 C 
ATOM     31  O   UNL     1       2.498  -5.806   4.219  0.00  0.00    -0.247 OA
BRANCH  30  32
ATOM     32  C   UNL     1       1.650  -5.389   2.060  0.00  0.00    +0.349 C 
BRANCH  32  33
ATOM     33  O   UNL     1       2.952  -4.841   1.842  0.00  0.00    -0.481 OA
BRANCH  33  39
ATOM     34  C   UNL     1       6.059  -2.672  -1.234  0.00  0.00    +0.044 C 
ATOM     35  C   UNL     1       4.709  -3.268  -0.928  0.00  0.00    -0.047 A 
ATOM     36  C   UNL     1       3.729  -3.297  -1.903  0.00  0.00    +0.003 A 
ATOM     37  C   UNL     1       2.490  -3.843  -1.626  0.00  0.00    +0.004 A 
ATOM     38  C   UNL     1       2.227  -4.361  -0.372  0.00  0.00    +0.045 A 
ATOM     39  C   UNL     1       3.208  -4.333   0.608  0.00  0.00    +0.122 A 
ATOM     40  C   UNL     1       4.453  -3.790   0.325  0.00  0.00    +0.049 A 
ENDBRANCH  33  39
ENDBRANCH  32  33
ENDBRANCH  30  32
ENDBRANCH  29  30
ENDBRANCH   1  29
TORSDOF 10
