REMARK  Name = ZINC14595746
REMARK  4 active torsions:
REMARK  status: ('A' for Active; 'I' for Inactive)
REMARK    1  A    between atoms: C_3  and  C_8
REMARK    2  A    between atoms: N_10  and  N_11
REMARK    3  A    between atoms: C_12  and  C_14
REMARK    4  A    between atoms: C_14  and  C_15
REMARK                            x       y       z     vdW  Elec       q    Type
REMARK                         _______ _______ _______ _____ _____    ______ ____
ROOT
ATOM      1  N   UNL     1       1.583  -3.835  -2.727  0.00  0.00    -0.234 N 
ATOM      2  C   UNL     1       1.444  -2.513  -2.505  0.00  0.00    +0.230 C 
ATOM      3  O   UNL     1       1.887  -1.715  -3.303  0.00  0.00    -0.274 OA
ATOM      4  H   UNL     1       1.229  -4.474  -2.088  0.00  0.00    +0.173 HD
ENDROOT
BRANCH   1   7
ATOM      5  C   UNL     1       2.378  -5.609  -4.101  0.00  0.00    +0.232 C 
ATOM      6  O   UNL     1       1.936  -6.408  -3.303  0.00  0.00    -0.274 OA
ATOM      7  N   UNL     1       2.239  -4.287  -3.880  0.00  0.00    -0.234 N 
ATOM      8  H   UNL     1       2.593  -3.648  -4.518  0.00  0.00    +0.173 HD
BRANCH   5  11
ATOM      9  C   UNL     1       3.665  -8.094  -6.700  0.00  0.00    +0.027 C 
ATOM     10  C   UNL     1       3.107  -7.629  -5.354  0.00  0.00    +0.017 C 
ATOM     11  C   UNL     1       3.084  -6.095  -5.341  0.00  0.00    +0.080 C 
ATOM     12  C   UNL     1       4.528  -5.590  -5.343  0.00  0.00    +0.039 C 
ATOM     13  C   UNL     1       5.314  -6.275  -6.422  0.00  0.00    -0.030 C 
ATOM     14  C   UNL     1       4.941  -7.366  -7.009  0.00  0.00    -0.031 C 
ENDBRANCH   5  11
ENDBRANCH   1   7
BRANCH   2  15
ATOM     15  C   UNL     1       0.739  -2.027  -1.265  0.00  0.00    +0.104 C 
BRANCH  15  16
ATOM     16  C   UNL     1       0.718  -0.497  -1.257  0.00  0.00    -0.020 C 
ATOM     17  C   UNL     1       0.002  -0.004   0.002  0.00  0.00    +0.011 C 
ATOM     18  C   UNL     1      -0.019   1.526   0.010  0.00  0.00    -0.010 C 
ATOM     19  C   UNL     1       1.417   2.055  -0.000  0.00  0.00    +0.007 C 
ATOM     20  C   UNL     1       2.133   1.562  -1.259  0.00  0.00    -0.010 C 
ATOM     21  C   UNL     1       2.154   0.032  -1.268  0.00  0.00    +0.011 C 
ATOM     22  C   UNL     1       1.393   2.069  -2.499  0.00  0.00    +0.007 C 
ATOM     23  C   UNL     1      -0.043   1.539  -2.488  0.00  0.00    -0.010 C 
ATOM     24  C   UNL     1      -0.759   2.033  -1.229  0.00  0.00    +0.007 C 
ATOM     25  C   UNL     1      -0.022   0.009  -2.496  0.00  0.00    +0.011 C 
ENDBRANCH  15  16
ENDBRANCH   2  15
TORSDOF 4
