REMARK  Name = ZINC14552333
REMARK  7 active torsions:
REMARK  status: ('A' for Active; 'I' for Inactive)
REMARK    1  A    between atoms: C_1  and  S_2
REMARK    2  A    between atoms: S_2  and  C_3
REMARK    3  A    between atoms: C_6  and  C_9
REMARK    4  A    between atoms: C_20  and  N_25
REMARK    5  A    between atoms: C_26  and  C_28
REMARK    6  A    between atoms: C_28  and  C_29
REMARK    7  A    between atoms: C_29  and  C_30
REMARK                            x       y       z     vdW  Elec       q    Type
REMARK                         _______ _______ _______ _____ _____    ______ ____
ROOT
ATOM      1  C   UNL     1      -0.167   2.916   1.608  0.00  0.00    +0.105 C 
ATOM      2  C   UNL     1      -0.309   1.393   1.535  0.00  0.00    +0.029 C 
ATOM      3  C   UNL     1       0.754   0.877   0.521  0.00  0.00    +0.033 C 
ATOM      4  C   UNL     1       0.092   1.092  -0.827  0.00  0.00    -0.030 C 
ATOM      5  C   UNL     1      -1.209   1.167  -0.692  0.00  0.00    -0.023 C 
ATOM      6  C   UNL     1      -1.593   1.020   0.761  0.00  0.00    +0.049 C 
ATOM      7  C   UNL     1      -2.747   1.904   1.114  0.00  0.00    -0.018 A 
ATOM      8  C   UNL     1      -4.023   1.512   0.698  0.00  0.00    +0.029 A 
ATOM      9  C   UNL     1      -5.129   2.289   1.004  0.00  0.00    +0.034 A 
ATOM     10  C   UNL     1      -4.978   3.459   1.737  0.00  0.00    +0.025 A 
ATOM     11  C   UNL     1      -3.721   3.843   2.157  0.00  0.00    +0.025 A 
ATOM     12  C   UNL     1      -2.614   3.062   1.849  0.00  0.00    +0.031 A 
ATOM     13  N   UNL     1      -1.345   3.470   2.283  0.00  0.00    -0.336 N 
ATOM     14  H   UNL     1      -1.249   4.103   3.012  0.00  0.00    +0.147 HD
ENDROOT
BRANCH   1  18
ATOM     15  C   UNL     1       0.106   4.521  -2.344  0.00  0.00    +0.008 A 
ATOM     16  C   UNL     1      -1.135   4.370  -1.737  0.00  0.00    +0.015 A 
ATOM     17  C   UNL     1      -1.220   3.851  -0.460  0.00  0.00    +0.006 A 
ATOM     18  C   UNL     1      -0.071   3.482   0.215  0.00  0.00    -0.027 A 
ATOM     19  C   UNL     1       1.167   3.635  -0.383  0.00  0.00    +0.006 A 
ATOM     20  C   UNL     1       1.258   4.149  -1.662  0.00  0.00    +0.015 A 
BRANCH  15  22
ATOM     21  C   UNL     1       1.998   5.185  -4.324  0.00  0.00    +0.090 C 
ATOM     22  S   UNL     1       0.218   5.182  -3.973  0.00  0.00    -0.129 S 
ENDBRANCH  15  22
ENDBRANCH   1  18
BRANCH   9  23
ATOM     23  N   UNL     1      -6.402   1.894   0.573  0.00  0.00    -0.285 N 
ATOM     24  C   UNL     1      -7.479   2.123   1.351  0.00  0.00    +0.218 C 
ATOM     25  O   UNL     1      -7.358   2.746   2.384  0.00  0.00    -0.275 OA
ATOM     26  H   UNL     1      -6.509   1.455  -0.286  0.00  0.00    +0.155 HD
BRANCH  24  27
ATOM     27  C   UNL     1      -8.832   1.605   0.936  0.00  0.00    +0.101 C 
BRANCH  27  28
ATOM     28  C   UNL     1      -9.872   2.000   1.987  0.00  0.00    +0.044 C 
BRANCH  28  29
ATOM     29  C   UNL     1     -11.226   1.482   1.572  0.00  0.00    -0.047 A 
ATOM     30  C   UNL     1     -12.058   2.268   0.797  0.00  0.00    +0.003 A 
ATOM     31  C   UNL     1     -13.298   1.791   0.413  0.00  0.00    +0.000 A 
ATOM     32  C   UNL     1     -13.709   0.533   0.813  0.00  0.00    +0.000 A 
ATOM     33  C   UNL     1     -12.879  -0.250   1.593  0.00  0.00    +0.000 A 
ATOM     34  C   UNL     1     -11.637   0.225   1.973  0.00  0.00    +0.003 A 
ENDBRANCH  28  29
ENDBRANCH  27  28
ENDBRANCH  24  27
ENDBRANCH   9  23
TORSDOF 6
