REMARK  Name = ZINC64084011
REMARK  9 active torsions:
REMARK  status: ('A' for Active; 'I' for Inactive)
REMARK    1  A    between atoms: C_1  and  C_2
REMARK    2  A    between atoms: C_2  and  C_3
REMARK    3  A    between atoms: C_5  and  C_19
REMARK    4  A    between atoms: C_10  and  C_18
REMARK    5  A    between atoms: N_11  and  C_12
REMARK    6  A    between atoms: C_12  and  C_13
REMARK    7  A    between atoms: N_21  and  C_22
REMARK    8  A    between atoms: C_22  and  C_23
REMARK    9  A    between atoms: C_23  and  C_24
REMARK                            x       y       z     vdW  Elec       q    Type
REMARK                         _______ _______ _______ _____ _____    ______ ____
ROOT
ATOM      1  C   UNL     1      -0.626  -2.571  -1.003  0.00  0.00    +0.225 C 
ATOM      2  O   UNL     1      -1.021  -2.702   0.136  0.00  0.00    -0.275 OA
ATOM      3  N   UNL     1      -1.423  -2.908  -2.036  0.00  0.00    -0.315 N 
ATOM      4  H   UNL     1      -1.107  -2.803  -2.947  0.00  0.00    +0.149 HD
ENDROOT
BRANCH   1   6
ATOM      5  C   UNL     1       0.702  -0.500  -1.348  0.00  0.00    +0.093 C 
ATOM      6  C   UNL     1       0.756  -2.031  -1.263  0.00  0.00    +0.165 C 
ATOM      7  C   UNL     1       1.676  -2.427  -0.136  0.00  0.00    +0.171 C 
ATOM      8  O   UNL     1       1.505  -3.484   0.438  0.00  0.00    -0.292 OA
ATOM      9  C   UNL     1       2.726  -1.587   0.254  0.00  0.00    +0.065 C 
ATOM     10  C   UNL     1       2.926  -0.394  -0.356  0.00  0.00    +0.007 C 
ATOM     11  N   UNL     1       2.083   0.008  -1.354  0.00  0.00    -0.324 N 
ATOM     12  C   UNL     1       4.072   0.488   0.066  0.00  0.00    +0.060 C 
BRANCH   5  14
ATOM     13  C   UNL     1      -0.159   1.578  -0.261  0.00  0.00    +0.006 C 
ATOM     14  C   UNL     1      -0.048   0.058  -0.137  0.00  0.00    +0.020 C 
ENDBRANCH   5  14
BRANCH  11  15
ATOM     15  C   UNL     1       2.542   0.920  -2.404  0.00  0.00    +0.147 C 
BRANCH  15  16
ATOM     16  C   UNL     1       2.293   2.344  -1.977  0.00  0.00    +0.007 A 
ATOM     17  C   UNL     1       3.109   3.185  -1.294  0.00  0.00    +0.013 A 
ATOM     18  C   UNL     1       2.667   4.463  -1.009  0.00  0.00    +0.008 A 
ATOM     19  C   UNL     1       1.431   4.838  -1.421  0.00  0.00    +0.045 A 
ATOM     20  S   UNL     1       0.853   3.364  -2.244  0.00  0.00    -0.100 S 
ENDBRANCH  15  16
ENDBRANCH  11  15
ENDBRANCH   1   6
BRANCH   3  21
ATOM     21  C   UNL     1      -2.768  -3.433  -1.783  0.00  0.00    +0.108 C 
BRANCH  21  22
ATOM     22  C   UNL     1      -3.457  -3.734  -3.115  0.00  0.00    +0.065 C 
BRANCH  22  23
ATOM     23  C   UNL     1      -4.861  -4.282  -2.851  0.00  0.00    +0.175 C 
ATOM     24  N   UNL     1      -4.776  -5.555  -2.124  0.00  0.00    -0.363 N 
ATOM     25  C   UNL     1      -5.326  -6.468  -2.870  0.00  0.00    +0.060 A 
ATOM     26  C   UNL     1      -5.540  -7.911  -2.689  0.00  0.00    +0.027 A 
ATOM     27  C   UNL     1      -6.155  -8.619  -3.658  0.00  0.00    +0.002 A 
ATOM     28  C   UNL     1      -6.608  -8.033  -4.853  0.00  0.00    +0.002 A 
ATOM     29  C   UNL     1      -6.462  -6.720  -5.120  0.00  0.00    +0.027 A 
ATOM     30  C   UNL     1      -5.807  -5.848  -4.135  0.00  0.00    +0.060 A 
ATOM     31  N   UNL     1      -5.535  -4.575  -4.122  0.00  0.00    -0.363 N 
ATOM     32  H   UNL     1      -4.381  -5.690  -1.248  0.00  0.00    +0.162 HD
ATOM     33  H   UNL     1      -5.740  -3.938  -4.823  0.00  0.00    +0.162 HD
ENDBRANCH  22  23
ENDBRANCH  21  22
ENDBRANCH   3  21
TORSDOF 7
