REMARK  Name = ZINC51397539
REMARK  5 active torsions:
REMARK  status: ('A' for Active; 'I' for Inactive)
REMARK    1  A    between atoms: C_1  and  N_2
REMARK    2  A    between atoms: N_2  and  C_3
REMARK    3  A    between atoms: C_3  and  C_4
REMARK    4  A    between atoms: C_12  and  C_20
REMARK    5  A    between atoms: C_20  and  N_21
REMARK                            x       y       z     vdW  Elec       q    Type
REMARK                         _______ _______ _______ _____ _____    ______ ____
ROOT
ATOM      1  C   UNL     1      -0.018   1.461   0.010  0.00  0.00    +0.131 C 
ATOM      2  N   UNL     1       0.002  -0.004   0.002  0.00  0.00    -0.313 N 
ATOM      3  C   UNL     1       0.000  -0.691  -1.203  0.00  0.00    +0.122 A 
ATOM      4  C   UNL     1       0.091   0.030  -2.402  0.00  0.00    +0.046 A 
ATOM      5  C   UNL     1       0.091  -0.631  -3.593  0.00  0.00    -0.052 A 
ATOM      6  C   UNL     1      -0.003  -2.038  -3.576  0.00  0.00    +0.002 A 
ATOM      7  C   UNL     1      -0.008  -2.782  -4.766  0.00  0.00    +0.010 A 
ATOM      8  C   UNL     1      -0.099  -4.140  -4.712  0.00  0.00    +0.001 A 
ATOM      9  C   UNL     1      -0.188  -4.801  -3.489  0.00  0.00    +0.002 A 
ATOM     10  C   UNL     1      -0.186  -4.110  -2.316  0.00  0.00    +0.028 A 
ATOM     11  C   UNL     1      -0.092  -2.708  -2.332  0.00  0.00    +0.073 A 
ATOM     12  N   UNL     1      -0.082  -2.005  -1.194  0.00  0.00    -0.232 NA
ENDROOT
BRANCH   2  13
ATOM     13  C   UNL     1       0.024  -0.743   1.267  0.00  0.00    +0.148 C 
BRANCH  13  14
ATOM     14  C   UNL     1      -1.389  -1.016   1.714  0.00  0.00    +0.008 A 
ATOM     15  C   UNL     1      -2.180  -2.082   1.440  0.00  0.00    +0.028 A 
ATOM     16  C   UNL     1      -3.459  -2.120   1.964  0.00  0.00    +0.025 A 
ATOM     17  C   UNL     1      -3.883  -1.090   2.737  0.00  0.00    +0.060 A 
ATOM     18  S   UNL     1      -2.452  -0.023   2.748  0.00  0.00    -0.099 S 
ATOM     19 BR   UNL     1      -4.599  -3.587   1.609  0.00  0.00    -0.050 Br
ENDBRANCH  13  14
ENDBRANCH   2  13
BRANCH   5  20
ATOM     20  C   UNL     1       0.188   0.121  -4.895  0.00  0.00    -0.050 C 
BRANCH  20  21
ATOM     21  N   UNL     1      -1.150   0.248  -5.488  0.00  0.00    +0.381 N 
ATOM     22  H   UNL     1      -1.531  -0.671  -5.658  0.00  0.00    -0.090 HD
ATOM     23  H   UNL     1      -1.754   0.749  -4.854  0.00  0.00    -0.090 HD
ATOM     24  H   UNL     1      -1.086   0.751  -6.360  0.00  0.00    -0.090 HD
ENDBRANCH  20  21
ENDBRANCH   5  20
TORSDOF 4
