REMARK  Name = ZINC09530785
REMARK  11 active torsions:
REMARK  status: ('A' for Active; 'I' for Inactive)
REMARK    1  A    between atoms: C_1  and  N_57
REMARK    2  A    between atoms: C_2  and  C_3
REMARK    3  A    between atoms: C_2  and  N_57
REMARK    4  A    between atoms: C_9  and  C_10
REMARK    5  A    between atoms: C_9  and  N_57
REMARK    6  A    between atoms: C_11  and  O_31
REMARK    7  A    between atoms: C_18  and  C_19
REMARK    8  A    between atoms: C_21  and  O_27
REMARK    9  A    between atoms: C_24  and  O_25
REMARK   10  A    between atoms: O_25  and  C_26
REMARK   11  A    between atoms: O_27  and  C_28
REMARK                            x       y       z     vdW  Elec       q    Type
REMARK                         _______ _______ _______ _____ _____    ______ ____
ROOT
ATOM      1  C   UNL     1      -1.450   1.992   0.808  0.00  0.00    +0.020 A 
ATOM      2  C   UNL     1      -1.241   3.271   1.301  0.00  0.00    +0.122 A 
ATOM      3  C   UNL     1      -1.844   3.679   2.488  0.00  0.00    +0.046 A 
ATOM      4  C   UNL     1      -2.640   2.815   3.186  0.00  0.00    +0.019 A 
ATOM      5  C   UNL     1      -2.853   1.523   2.705  0.00  0.00    +0.068 A 
ATOM      6  C   UNL     1      -2.256   1.102   1.506  0.00  0.00    +0.144 A 
ATOM      7  O   UNL     1      -2.606  -0.177   1.248  0.00  0.00    -0.451 OA
ATOM      8  C   UNL     1      -3.421  -0.679   2.205  0.00  0.00    +0.176 C 
ATOM      9  C   UNL     1      -3.946  -1.931   2.237  0.00  0.00    +0.062 C 
ATOM     10  C   UNL     1      -3.635   0.378   3.205  0.00  0.00    +0.231 C 
ATOM     11  O   UNL     1      -4.308   0.319   4.220  0.00  0.00    -0.283 OA
ENDROOT
BRANCH   9  12
ATOM     12  C   UNL     1      -3.766  -2.830   1.092  0.00  0.00    +0.024 A 
ATOM     13  C   UNL     1      -2.781  -2.562   0.133  0.00  0.00    +0.057 A 
ATOM     14  C   UNL     1      -2.615  -3.417  -0.939  0.00  0.00    +0.121 A 
ATOM     15  C   UNL     1      -3.430  -4.536  -1.075  0.00  0.00    +0.049 A 
ATOM     16  C   UNL     1      -4.408  -4.806  -0.138  0.00  0.00    +0.050 A 
ATOM     17  C   UNL     1      -4.585  -3.962   0.947  0.00  0.00    +0.128 A 
BRANCH  17  18
ATOM     18  O   UNL     1      -5.547  -4.229   1.867  0.00  0.00    -0.495 OA
ATOM     19  C   UNL     1      -6.342  -5.398   1.655  0.00  0.00    +0.277 C 
ENDBRANCH  17  18
BRANCH  14  20
ATOM     20  O   UNL     1      -1.656  -3.161  -1.869  0.00  0.00    -0.495 OA
ATOM     21  C   UNL     1      -1.542  -4.083  -2.955  0.00  0.00    +0.277 C 
ENDBRANCH  14  20
ENDBRANCH   9  12
BRANCH   2  22
ATOM     22  O   UNL     1      -0.448   4.134   0.618  0.00  0.00    -0.506 OA
ATOM     23  H   UNL     1      -0.920   4.673  -0.032  0.00  0.00    +0.292 HD
ENDBRANCH   2  22
BRANCH   1  24
ATOM     24  C   UNL     1      -0.796   1.566  -0.481  0.00  0.00    -0.035 C 
BRANCH  24  26
ATOM     25  C   UNL     1      -1.857   3.325  -1.764  0.00  0.00    -0.095 C 
ATOM     26  N   UNL     1      -1.714   1.863  -1.601  0.00  0.00    +0.383 N 
ATOM     27  H   UNL     1      -2.635   1.458  -1.394  0.00  0.00    -0.081 HD
BRANCH  26  28
ATOM     28  C   UNL     1      -1.197   1.264  -2.850  0.00  0.00    -0.043 C 
BRANCH  28  29
ATOM     29  C   UNL     1      -2.250   1.389  -3.921  0.00  0.00    -0.064 A 
ATOM     30  C   UNL     1      -3.193   0.391  -4.083  0.00  0.00    +0.002 A 
ATOM     31  C   UNL     1      -4.161   0.507  -5.062  0.00  0.00    +0.000 A 
ATOM     32  C   UNL     1      -4.180   1.617  -5.886  0.00  0.00    +0.000 A 
ATOM     33  C   UNL     1      -3.234   2.613  -5.728  0.00  0.00    +0.000 A 
ATOM     34  C   UNL     1      -2.269   2.498  -4.745  0.00  0.00    +0.002 A 
ENDBRANCH  28  29
ENDBRANCH  26  28
ENDBRANCH  24  26
ENDBRANCH   1  24
TORSDOF 8
