REMARK  Name = ZINC40067034
REMARK  11 active torsions:
REMARK  status: ('A' for Active; 'I' for Inactive)
REMARK    1  A    between atoms: C_1  and  C_2
REMARK    2  A    between atoms: C_2  and  C_3
REMARK    3  A    between atoms: C_3  and  C_4
REMARK    4  A    between atoms: C_4  and  N_5
REMARK    5  A    between atoms: C_6  and  N_28
REMARK    6  A    between atoms: C_7  and  C_15
REMARK    7  A    between atoms: C_8  and  C_14
REMARK    8  A    between atoms: C_9  and  C_12
REMARK    9  A    between atoms: N_19  and  C_23
REMARK   10  A    between atoms: N_28  and  C_29
REMARK   11  A    between atoms: C_29  and  C_30
REMARK                            x       y       z     vdW  Elec       q    Type
REMARK                         _______ _______ _______ _____ _____    ______ ____
ROOT
ATOM      1  N   UNL     1       1.246  -2.742  -2.514  0.00  0.00    -0.295 N 
ATOM      2  C   UNL     1       0.461  -2.924  -3.607  0.00  0.00    +0.109 A 
ATOM      3  C   UNL     1       1.033  -3.228  -4.854  0.00  0.00    +0.019 A 
ATOM      4  C   UNL     1       2.429  -3.343  -4.964  0.00  0.00    -0.017 A 
ATOM      5  C   UNL     1       3.212  -3.152  -3.828  0.00  0.00    +0.120 A 
ATOM      6  C   UNL     1       2.585  -2.842  -2.594  0.00  0.00    +0.270 A 
ATOM      7  O   UNL     1       3.265  -2.668  -1.598  0.00  0.00    -0.266 OA
ATOM      8  C   UNL     1       3.069  -3.668  -6.289  0.00  0.00    +0.046 C 
ENDROOT
BRANCH   3   9
ATOM      9  C   UNL     1       0.182  -3.423  -6.028  0.00  0.00    +0.032 C 
ATOM     10  C   UNL     1      -0.678  -2.442  -6.416  0.00  0.00    +0.077 C 
ATOM     11  C   UNL     1      -1.668  -2.457  -7.446  0.00  0.00    +0.259 C 
ATOM     12  O   UNL     1      -1.844  -3.446  -8.133  0.00  0.00    -0.269 OA
ATOM     13  N   UNL     1      -2.387  -1.363  -7.630  0.00  0.00    -0.252 N 
ATOM     14  C   UNL     1      -2.192  -0.265  -6.867  0.00  0.00    +0.121 C 
ATOM     15  S   UNL     1      -2.999   1.244  -6.931  0.00  0.00    -0.027 S 
ATOM     16  S   UNL     1      -0.882  -0.788  -5.771  0.00  0.00    -0.061 S 
BRANCH  13  17
ATOM     17  C   UNL     1      -3.412  -1.341  -8.677  0.00  0.00    +0.083 C 
ATOM     18  C   UNL     1      -3.138  -0.185  -9.661  0.00  0.00    +0.023 C 
ATOM     19  C   UNL     1      -4.546   0.344 -10.028  0.00  0.00    +0.002 C 
ATOM     20  C   UNL     1      -5.311   0.239  -8.685  0.00  0.00    +0.002 C 
ATOM     21  C   UNL     1      -4.794  -1.072  -8.056  0.00  0.00    +0.023 C 
ENDBRANCH  13  17
ENDBRANCH   3   9
BRANCH   5  22
ATOM     22  C   UNL     1       4.637  -3.263  -3.907  0.00  0.00    +0.105 C 
ATOM     23  N   UNL     1       5.768  -3.350  -3.969  0.00  0.00    -0.191 NA
ENDBRANCH   5  22
BRANCH   2  24
ATOM     24  N   UNL     1      -0.893  -2.810  -3.494  0.00  0.00    -0.326 N 
ATOM     25  H   UNL     1      -1.315  -1.939  -3.563  0.00  0.00    +0.148 HD
BRANCH  24  26
ATOM     26  C   UNL     1      -1.712  -4.004  -3.267  0.00  0.00    +0.138 C 
BRANCH  26  27
ATOM     27  C   UNL     1      -3.170  -3.625  -3.290  0.00  0.00    -0.030 A 
ATOM     28  C   UNL     1      -3.804  -3.245  -2.122  0.00  0.00    +0.008 A 
ATOM     29  C   UNL     1      -5.141  -2.897  -2.142  0.00  0.00    +0.038 A 
ATOM     30  C   UNL     1      -5.846  -2.929  -3.333  0.00  0.00    +0.123 A 
ATOM     31  C   UNL     1      -5.211  -3.310  -4.503  0.00  0.00    +0.038 A 
ATOM     32  C   UNL     1      -3.872  -3.652  -4.481  0.00  0.00    +0.008 A 
ATOM     33  F   UNL     1      -7.154  -2.589  -3.354  0.00  0.00    -0.205 F 
ENDBRANCH  26  27
ENDBRANCH  24  26
ENDBRANCH   2  24
BRANCH   1  34
ATOM     34  C   UNL     1       0.624  -2.426  -1.226  0.00  0.00    +0.126 C 
BRANCH  34  35
ATOM     35  C   UNL     1       0.391  -0.918  -1.128  0.00  0.00    +0.021 C 
BRANCH  35  37
ATOM     36  C   UNL     1      -0.603   0.907   0.259  0.00  0.00    +0.004 C 
ATOM     37  C   UNL     1      -0.369  -0.602   0.161  0.00  0.00    -0.002 C 
ENDBRANCH  35  37
ENDBRANCH  34  35
ENDBRANCH   1  34
TORSDOF 9
