REMARK  Name = ZINC18197558
REMARK  9 active torsions:
REMARK  status: ('A' for Active; 'I' for Inactive)
REMARK    1  A    between atoms: C_1  and  C_2
REMARK    2  A    between atoms: C_2  and  O_3
REMARK    3  A    between atoms: O_3  and  C_4
REMARK    4  A    between atoms: C_7  and  C_10
REMARK    5  A    between atoms: C_14  and  O_34
REMARK    6  A    between atoms: C_15  and  O_32
REMARK    7  A    between atoms: C_24  and  C_27
REMARK    8  A    between atoms: O_32  and  C_33
REMARK    9  A    between atoms: O_34  and  C_35
REMARK                            x       y       z     vdW  Elec       q    Type
REMARK                         _______ _______ _______ _____ _____    ______ ____
ROOT
ATOM      1  C   UNL     1      -6.835   0.510   0.033  0.00  0.00    +0.086 C 
ATOM      2  C   UNL     1      -7.254  -0.089  -1.279  0.00  0.00    -0.011 A 
ATOM      3  C   UNL     1      -8.375  -0.900  -1.337  0.00  0.00    +0.055 A 
ATOM      4  C   UNL     1      -8.772  -1.453  -2.543  0.00  0.00    +0.162 A 
ATOM      5  C   UNL     1      -8.044  -1.196  -3.701  0.00  0.00    +0.163 A 
ATOM      6  C   UNL     1      -6.922  -0.387  -3.644  0.00  0.00    +0.073 A 
ATOM      7  C   UNL     1      -6.527   0.166  -2.433  0.00  0.00    +0.039 A 
ATOM      8  N   UNL     1      -5.396   0.982  -2.370  0.00  0.00    -0.317 N 
ATOM      9  C   UNL     1      -4.771   1.210  -1.178  0.00  0.00    +0.016 C 
ATOM     10  C   UNL     1      -5.406   0.988  -0.007  0.00  0.00    +0.024 C 
ATOM     11  C   UNL     1      -4.755   1.202   1.219  0.00  0.00    +0.162 C 
ATOM     12  O   UNL     1      -5.355   0.997   2.256  0.00  0.00    -0.292 OA
ATOM     13  C   UNL     1      -3.330   1.680   1.276  0.00  0.00    +0.088 C 
ATOM     14  C   UNL     1      -2.594   1.202   0.020  0.00  0.00    +0.039 C 
ATOM     15  C   UNL     1      -3.348   1.715  -1.208  0.00  0.00    +0.060 C 
ATOM     16  H   UNL     1      -5.052   1.390  -3.180  0.00  0.00    +0.152 HD
ENDROOT
BRANCH   1  20
ATOM     17  C   UNL     1      -9.386   3.819   0.933  0.00  0.00    +0.121 A 
ATOM     18  C   UNL     1      -9.354   2.717   1.775  0.00  0.00    +0.046 A 
ATOM     19  C   UNL     1      -8.529   1.648   1.482  0.00  0.00    +0.008 A 
ATOM     20  C   UNL     1      -7.735   1.677   0.350  0.00  0.00    -0.035 A 
ATOM     21  C   UNL     1      -7.761   2.776  -0.488  0.00  0.00    +0.008 A 
ATOM     22  C   UNL     1      -8.589   3.845  -0.202  0.00  0.00    +0.046 A 
BRANCH  17  23
ATOM     23  O   UNL     1     -10.197   4.871   1.220  0.00  0.00    -0.492 OA
BRANCH  23  25
ATOM     24  C   UNL     1     -11.148   7.051   0.793  0.00  0.00    +0.048 C 
ATOM     25  C   UNL     1     -10.179   5.971   0.308  0.00  0.00    +0.225 C 
ENDBRANCH  23  25
ENDBRANCH  17  23
ENDBRANCH   1  20
BRANCH  14  26
ATOM     26  C   UNL     1      -1.190   1.748   0.017  0.00  0.00    -0.006 A 
ATOM     27  C   UNL     1      -0.013   1.076   0.008  0.00  0.00    +0.011 A 
ATOM     28  C   UNL     1       1.169   1.793   0.001  0.00  0.00    +0.008 A 
ATOM     29  C   UNL     1       1.115   3.148   0.008  0.00  0.00    +0.045 A 
ATOM     30  S   UNL     1      -0.644   3.448   0.027  0.00  0.00    -0.101 S 
ENDBRANCH  14  26
BRANCH   5  31
ATOM     31  O   UNL     1      -8.434  -1.738  -4.886  0.00  0.00    -0.491 OA
ATOM     32  C   UNL     1      -7.639  -1.431  -6.033  0.00  0.00    +0.277 C 
ENDBRANCH   5  31
BRANCH   4  33
ATOM     33  O   UNL     1      -9.874  -2.248  -2.595  0.00  0.00    -0.491 OA
ATOM     34  C   UNL     1     -10.573  -2.470  -1.369  0.00  0.00    +0.277 C 
ENDBRANCH   4  33
TORSDOF 6
