REMARK  Name = ZINC07767377
REMARK  3 active torsions:
REMARK  status: ('A' for Active; 'I' for Inactive)
REMARK    1  A    between atoms: C_3  and  O_12
REMARK    2  A    between atoms: O_12  and  C_13
REMARK    3  A    between atoms: C_13  and  C_14
REMARK                            x       y       z     vdW  Elec       q    Type
REMARK                         _______ _______ _______ _____ _____    ______ ____
ROOT
ATOM      1  C   UNL     1      -4.667   2.687  -3.630  0.00  0.00    +0.324 C 
ENDROOT
BRANCH   1   2
ATOM      2  C   UNL     1      -4.039   2.141  -2.373  0.00  0.00    +0.253 C 
ATOM      3  O   UNL     1      -4.591   2.294  -1.304  0.00  0.00    -0.272 OA
ATOM      4  N   UNL     1      -2.865   1.482  -2.437  0.00  0.00    -0.295 N 
ATOM      5  C   UNL     1      -2.236   1.184  -3.733  0.00  0.00    +0.108 C 
ATOM      6  C   UNL     1      -0.796   1.706  -3.723  0.00  0.00    +0.019 C 
ATOM      7  C   UNL     1      -0.051   1.142  -2.510  0.00  0.00    +0.007 C 
ATOM      8  C   UNL     1      -0.753   1.599  -1.232  0.00  0.00    +0.010 C 
ATOM      9  C   UNL     1      -2.180   1.042  -1.217  0.00  0.00    +0.079 C 
ATOM     10  C   UNL     1      -2.906   1.562   0.023  0.00  0.00    +0.023 C 
ATOM     11  C   UNL     1      -2.166   1.078   1.274  0.00  0.00    +0.002 C 
ATOM     12  C   UNL     1      -0.726   1.596   1.260  0.00  0.00    +0.000 C 
ATOM     13  C   UNL     1      -0.008   1.095   0.004  0.00  0.00    +0.005 C 
ENDBRANCH   1   2
BRANCH   1  14
ATOM     14  O   UNL     1      -5.896   3.338  -3.304  0.00  0.00    -0.483 OA
BRANCH  14  17
ATOM     15  C   UNL     1      -6.782   4.351  -6.672  0.00  0.00    +0.015 A 
ATOM     16  C   UNL     1      -6.091   3.806  -5.629  0.00  0.00    +0.046 A 
ATOM     17  C   UNL     1      -6.592   3.889  -4.331  0.00  0.00    +0.125 A 
ATOM     18  C   UNL     1      -7.792   4.535  -4.080  0.00  0.00    +0.092 A 
ATOM     19  C   UNL     1      -8.504   5.098  -5.127  0.00  0.00    +0.143 A 
ATOM     20  C   UNL     1      -7.995   5.006  -6.437  0.00  0.00    +0.018 A 
ATOM     21  C   UNL     1      -8.755   5.605  -7.536  0.00  0.00    +0.018 A 
ATOM     22  C   UNL     1      -9.926   6.228  -7.243  0.00  0.00    +0.092 A 
ATOM     23  C   UNL     1     -10.376   6.283  -5.908  0.00  0.00    +0.337 A 
ATOM     24  O   UNL     1     -11.428   6.844  -5.659  0.00  0.00    -0.245 OA
ATOM     25  O   UNL     1      -9.675   5.732  -4.904  0.00  0.00    -0.422 OA
ENDBRANCH  14  17
ENDBRANCH   1  14
TORSDOF 3
