REMARK  Name = ZINC13467584
REMARK  14 active torsions:
REMARK  status: ('A' for Active; 'I' for Inactive)
REMARK    1  A    between atoms: C_1  and  C_2
REMARK    2  A    between atoms: C_2  and  O_3
REMARK    3  A    between atoms: O_3  and  C_4
REMARK    4  A    between atoms: C_4  and  C_6
REMARK    5  A    between atoms: C_8  and  C_29
REMARK    6  A    between atoms: C_9  and  C_24
REMARK    7  A    between atoms: C_11  and  C_19
REMARK    8  A    between atoms: C_11  and  O_23
REMARK    9  A    between atoms: C_13  and  C_14
REMARK   10  A    between atoms: C_13  and  O_18
REMARK   11  A    between atoms: C_24  and  O_26
REMARK   12  A    between atoms: O_26  and  C_27
REMARK   13  A    between atoms: C_27  and  C_28
REMARK   14  A    between atoms: C_32  and  C_35
REMARK                            x       y       z     vdW  Elec       q    Type
REMARK                         _______ _______ _______ _____ _____    ______ ____
ROOT
ATOM      1  C   UNL     1       1.273  -2.716  -2.824  0.00  0.00    +0.162 C 
ATOM      2  C   UNL     1       1.339  -4.197  -2.442  0.00  0.00    +0.055 C 
ATOM      3  C   UNL     1      -0.008  -4.625  -1.854  0.00  0.00    +0.162 C 
ATOM      4  C   UNL     1      -1.114  -4.355  -2.876  0.00  0.00    +0.230 C 
ATOM      5  N   UNL     1      -1.137  -2.925  -3.208  0.00  0.00    -0.245 NA
ATOM      6  C   UNL     1       0.130  -2.500  -3.818  0.00  0.00    +0.230 C 
ATOM      7  H   UNL     1      -1.919  -2.705  -3.807  0.00  0.00    +0.128 HD
ENDROOT
BRANCH   2   8
ATOM      8  C   UNL     1       1.638  -5.020  -3.669  0.00  0.00    -0.042 A 
ATOM      9  C   UNL     1       2.402  -4.483  -4.689  0.00  0.00    +0.005 A 
ATOM     10  C   UNL     1       2.679  -5.231  -5.815  0.00  0.00    +0.019 A 
ATOM     11  C   UNL     1       2.187  -6.533  -5.922  0.00  0.00    +0.052 A 
ATOM     12  C   UNL     1       1.417  -7.069  -4.888  0.00  0.00    +0.019 A 
ATOM     13  C   UNL     1       1.152  -6.312  -3.766  0.00  0.00    +0.005 A 
BRANCH  11  14
ATOM     14  C   UNL     1       2.470  -7.315  -7.088  0.00  0.00    +0.099 C 
ATOM     15  N   UNL     1       2.695  -7.935  -8.013  0.00  0.00    -0.191 NA
ENDBRANCH  11  14
ENDBRANCH   2   8
BRANCH   6  16
ATOM     16  C   UNL     1       0.048  -1.017  -4.187  0.00  0.00    +0.433 C 
ATOM     17  F   UNL     1       1.269  -0.604  -4.729  0.00  0.00    -0.166 F 
ATOM     18  F   UNL     1      -0.969  -0.827  -5.129  0.00  0.00    -0.166 F 
ATOM     19  F   UNL     1      -0.231  -0.266  -3.040  0.00  0.00    -0.166 F 
ENDBRANCH   6  16
BRANCH   4  20
ATOM     20  C   UNL     1      -2.465  -4.763  -2.285  0.00  0.00    +0.433 C 
ATOM     21  F   UNL     1      -2.818  -3.870  -1.268  0.00  0.00    -0.166 F 
ATOM     22  F   UNL     1      -3.440  -4.736  -3.288  0.00  0.00    -0.166 F 
ATOM     23  F   UNL     1      -2.373  -6.056  -1.759  0.00  0.00    -0.166 F 
ENDBRANCH   4  20
BRANCH   1  24
ATOM     24  C   UNL     1       1.028  -1.888  -1.588  0.00  0.00    +0.315 C 
ATOM     25  O   UNL     1      -0.069  -1.426  -1.378  0.00  0.00    -0.250 OA
BRANCH  24  26
ATOM     26  O   UNL     1       2.028  -1.665  -0.721  0.00  0.00    -0.465 OA
BRANCH  26  28
ATOM     27  C   UNL     1       3.002  -0.649   1.244  0.00  0.00    +0.048 C 
ATOM     28  C   UNL     1       1.778  -0.728   0.329  0.00  0.00    +0.229 C 
ENDBRANCH  26  28
ENDBRANCH  24  26
ENDBRANCH   1  24
BRANCH   6  29
ATOM     29  O   UNL     1       0.372  -3.271  -4.997  0.00  0.00    -0.366 OA
ATOM     30  H   UNL     1      -0.273  -3.124  -5.702  0.00  0.00    +0.212 HD
ENDBRANCH   6  29
BRANCH   4  31
ATOM     31  O   UNL     1      -0.864  -5.114  -4.061  0.00  0.00    -0.366 OA
ATOM     32  H   UNL     1      -1.486  -4.937  -4.780  0.00  0.00    +0.212 HD
ENDBRANCH   4  31
BRANCH   3  33
ATOM     33  C   UNL     1      -0.281  -3.840  -0.597  0.00  0.00    +0.315 C 
ATOM     34  O   UNL     1      -1.189  -3.045  -0.567  0.00  0.00    -0.250 OA
BRANCH  33  35
ATOM     35  O   UNL     1       0.486  -4.025   0.489  0.00  0.00    -0.465 OA
BRANCH  35  36
ATOM     36  C   UNL     1       0.074  -3.373   1.692  0.00  0.00    +0.229 C 
ATOM     37  C   UNL     1       1.091  -3.657   2.800  0.00  0.00    +0.048 C 
ENDBRANCH  35  36
ENDBRANCH  33  35
ENDBRANCH   3  33
TORSDOF 12
