REMARK  Name = ZINC19938970
REMARK  11 active torsions:
REMARK  status: ('A' for Active; 'I' for Inactive)
REMARK    1  A    between atoms: C_1  and  O_2
REMARK    2  A    between atoms: O_2  and  C_3
REMARK    3  A    between atoms: C_8  and  C_9
REMARK    4  A    between atoms: C_12  and  C_30
REMARK    5  A    between atoms: C_13  and  N_15
REMARK    6  A    between atoms: C_18  and  N_21
REMARK    7  A    between atoms: C_25  and  C_28
REMARK    8  A    between atoms: C_28  and  O_29
REMARK    9  A    between atoms: N_32  and  C_33
REMARK   10  A    between atoms: C_33  and  C_34
REMARK   11  A    between atoms: C_34  and  C_35
REMARK                            x       y       z     vdW  Elec       q    Type
REMARK                         _______ _______ _______ _____ _____    ______ ____
ROOT
ATOM      1  C   UNL     1       1.273  -0.649   0.235  0.00  0.00    +0.077 A 
ATOM      2  C   UNL     1       0.034  -0.057  -0.017  0.00  0.00    +0.029 A 
ATOM      3  C   UNL     1      -0.033   1.299  -0.262  0.00  0.00    +0.018 A 
ATOM      4  C   UNL     1       1.158   2.039  -0.251  0.00  0.00    +0.077 A 
ATOM      5  C   UNL     1       2.370   1.376   0.009  0.00  0.00    +0.134 A 
ATOM      6  N   UNL     1       2.386   0.074   0.240  0.00  0.00    -0.231 NA
ENDROOT
BRANCH   1  12
ATOM      7  C   UNL     1       2.582  -2.712   0.747  0.00  0.00    +0.129 A 
ATOM      8  C   UNL     1       2.640  -4.074   0.998  0.00  0.00    +0.046 A 
ATOM      9  C   UNL     1       1.483  -4.829   0.994  0.00  0.00    +0.004 A 
ATOM     10  C   UNL     1       0.259  -4.231   0.743  0.00  0.00    +0.001 A 
ATOM     11  C   UNL     1       0.185  -2.876   0.496  0.00  0.00    +0.013 A 
ATOM     12  C   UNL     1       1.346  -2.104   0.499  0.00  0.00    +0.042 A 
BRANCH   7  14
ATOM     13  C   UNL     1       4.943  -2.659   1.006  0.00  0.00    +0.277 C 
ATOM     14  O   UNL     1       3.719  -1.970   0.746  0.00  0.00    -0.494 OA
ENDBRANCH   7  14
ENDBRANCH   1  12
BRANCH   5  15
ATOM     15  N   UNL     1       3.554   2.091   0.024  0.00  0.00    -0.315 N 
ATOM     16  C   UNL     1       3.883   2.535   1.385  0.00  0.00    +0.105 C 
ATOM     17  C   UNL     1       5.115   3.442   1.342  0.00  0.00    +0.004 C 
ATOM     18  C   UNL     1       6.291   2.669   0.739  0.00  0.00    -0.066 C 
ATOM     19  C   UNL     1       5.905   2.175  -0.658  0.00  0.00    +0.004 C 
ATOM     20  C   UNL     1       4.650   1.306  -0.558  0.00  0.00    +0.105 C 
BRANCH  18  21
ATOM     21  N   UNL     1       7.462   3.550   0.642  0.00  0.00    +0.382 N 
ATOM     22  C   UNL     1       8.578   2.872  -0.031  0.00  0.00    -0.078 C 
ATOM     23  C   UNL     1       9.725   3.862  -0.244  0.00  0.00    -0.018 C 
ATOM     24  C   UNL     1      10.178   4.410   1.112  0.00  0.00    +0.002 C 
ATOM     25  C   UNL     1       8.987   5.068   1.813  0.00  0.00    -0.002 C 
ATOM     26  C   UNL     1       7.861   4.043   1.966  0.00  0.00    -0.073 C 
ATOM     27  H   UNL     1       7.182   4.421   0.031  0.00  0.00    -0.081 HD
BRANCH  25  28
ATOM     28  C   UNL     1       9.417   5.566   3.195  0.00  0.00    +0.157 C 
BRANCH  28  29
ATOM     29  O   UNL     1      10.385   6.606   3.046  0.00  0.00    -0.395 OA
ATOM     30  H   UNL     1      10.813   7.090   3.937  0.00  0.00    +0.209 HD
ENDBRANCH  28  29
ENDBRANCH  25  28
ENDBRANCH  18  21
ENDBRANCH   5  15
BRANCH   4  31
ATOM     31  C   UNL     1       1.139   3.489  -0.508  0.00  0.00    +0.247 C 
ATOM     32  O   UNL     1       2.184   4.105  -0.593  0.00  0.00    -0.270 OA
ATOM     33  N   UNL     1      -0.036   4.133  -0.649  0.00  0.00    -0.311 N 
ATOM     34  H   UNL     1      -0.982   3.576  -0.572  0.00  0.00    +0.149 HD
BRANCH  33  35
ATOM     35  C   UNL     1      -0.055   5.575  -0.905  0.00  0.00    +0.109 C 
BRANCH  35  36
ATOM     36  C   UNL     1      -1.504   6.054  -1.023  0.00  0.00    +0.049 C 
BRANCH  36  37
ATOM     37  C   UNL     1      -1.523   7.537  -1.286  0.00  0.00    -0.072 C 
ATOM     38  C   UNL     1      -1.605   7.935  -2.515  0.00  0.00    -0.028 C 
ATOM     39  C   UNL     1      -1.625   9.376  -2.934  0.00  0.00    +0.027 C 
ATOM     40  C   UNL     1      -1.961  10.268  -1.737  0.00  0.00    +0.004 C 
ATOM     41  C   UNL     1      -1.055   9.869  -0.565  0.00  0.00    +0.005 C 
ATOM     42  C   UNL     1      -1.452   8.462  -0.106  0.00  0.00    +0.030 C 
ENDBRANCH  36  37
ENDBRANCH  35  36
ENDBRANCH  33  35
ENDBRANCH   4  31
TORSDOF 10
