REMARK  Name = ZINC39882688
REMARK  6 active torsions:
REMARK  status: ('A' for Active; 'I' for Inactive)
REMARK    1  A    between atoms: C_1  and  C_2
REMARK    2  A    between atoms: C_2  and  C_3
REMARK    3  A    between atoms: C_9  and  C_12
REMARK    4  A    between atoms: C_12  and  C_13
REMARK    5  A    between atoms: C_13  and  O_15
REMARK    6  A    between atoms: O_15  and  C_16
REMARK                            x       y       z     vdW  Elec       q    Type
REMARK                         _______ _______ _______ _____ _____    ______ ____
ROOT
ATOM      1  C   UNL     1      -1.288  -0.411  -0.081  0.00  0.00    -0.047 A 
ATOM      2  C   UNL     1      -1.889  -0.636   1.149  0.00  0.00    +0.007 A 
ATOM      3  C   UNL     1      -3.175  -1.126   1.224  0.00  0.00    +0.047 A 
ATOM      4  C   UNL     1      -3.880  -1.398   0.058  0.00  0.00    +0.135 A 
ATOM      5  C   UNL     1      -3.266  -1.168  -1.184  0.00  0.00    +0.024 A 
ATOM      6  C   UNL     1      -1.966  -0.667  -1.240  0.00  0.00    +0.015 A 
ATOM      7  C   UNL     1      -4.263  -1.551  -2.191  0.00  0.00    +0.009 A 
ATOM      8  C   UNL     1      -5.343  -1.961  -1.511  0.00  0.00    +0.200 A 
ATOM      9  O   UNL     1      -5.118  -1.871  -0.189  0.00  0.00    -0.463 OA
ENDROOT
BRANCH   1  11
ATOM     10  C   UNL     1       0.082   1.654  -0.157  0.00  0.00    +0.009 C 
ATOM     11  C   UNL     1       0.119   0.125  -0.140  0.00  0.00    +0.032 C 
ENDBRANCH   1  11
BRANCH   7  12
ATOM     12  C   UNL     1      -4.104  -1.496  -3.689  0.00  0.00    +0.160 C 
BRANCH  12  13
ATOM     13  C   UNL     1      -3.432  -2.756  -4.170  0.00  0.00    +0.317 C 
ATOM     14  O   UNL     1      -3.114  -3.611  -3.378  0.00  0.00    -0.250 OA
BRANCH  13  15
ATOM     15  O   UNL     1      -3.186  -2.928  -5.478  0.00  0.00    -0.426 OA
BRANCH  15  16
ATOM     16  C   UNL     1      -2.487  -4.030  -5.857  0.00  0.00    +0.132 A 
ATOM     17  C   UNL     1      -3.114  -5.267  -5.906  0.00  0.00    +0.047 A 
ATOM     18  C   UNL     1      -2.402  -6.386  -6.291  0.00  0.00    +0.018 A 
ATOM     19  C   UNL     1      -1.065  -6.275  -6.627  0.00  0.00    +0.014 A 
ATOM     20  C   UNL     1      -0.438  -5.044  -6.578  0.00  0.00    +0.018 A 
ATOM     21  C   UNL     1      -1.147  -3.920  -6.200  0.00  0.00    +0.047 A 
ATOM     22  I   UNL     1       0.011  -7.975  -7.210  0.00  0.00    -0.044 I 
ENDBRANCH  15  16
ENDBRANCH  13  15
ENDBRANCH  12  13
ENDBRANCH   7  12
TORSDOF 5
