REMARK  Name = ZINC14246438
REMARK  10 active torsions:
REMARK  status: ('A' for Active; 'I' for Inactive)
REMARK    1  A    between atoms: C_4  and  C_7
REMARK    2  A    between atoms: C_7  and  C_8
REMARK    3  A    between atoms: C_8  and  N_9
REMARK    4  A    between atoms: C_17  and  C_20
REMARK    5  A    between atoms: C_20  and  C_21
REMARK    6  A    between atoms: C_21  and  C_22
REMARK    7  A    between atoms: N_24  and  C_25
REMARK    8  A    between atoms: C_25  and  C_26
REMARK    9  A    between atoms: C_29  and  S_32
REMARK   10  A    between atoms: S_32  and  N_35
REMARK                            x       y       z     vdW  Elec       q    Type
REMARK                         _______ _______ _______ _____ _____    ______ ____
ROOT
ATOM      1  N   UNL     1       2.340   3.879   0.001  0.00  0.00    -0.305 N 
ATOM      2  C   UNL     1       1.157   3.167   0.008  0.00  0.00    +0.070 A 
ATOM      3  C   UNL     1       1.174   1.776   0.000  0.00  0.00    +0.028 A 
ATOM      4  C   UNL     1      -0.013   1.076   0.008  0.00  0.00    +0.002 A 
ATOM      5  C   UNL     1      -1.228   1.748   0.017  0.00  0.00    +0.002 A 
ATOM      6  C   UNL     1      -1.268   3.112   0.031  0.00  0.00    +0.030 A 
ATOM      7  C   UNL     1      -0.074   3.849   0.023  0.00  0.00    +0.088 A 
ATOM      8  N   UNL     1      -0.111   5.195   0.032  0.00  0.00    -0.245 NA
ATOM      9  C   UNL     1       0.985   5.898   0.025  0.00  0.00    +0.107 A 
ATOM     10  C   UNL     1       2.291   5.229   0.009  0.00  0.00    +0.273 A 
ATOM     11  O   UNL     1       3.318   5.883   0.003  0.00  0.00    -0.266 OA
ENDROOT
BRANCH   1  12
ATOM     12  C   UNL     1       3.628   3.181  -0.015  0.00  0.00    +0.130 C 
BRANCH  12  13
ATOM     13  C   UNL     1       4.063   2.946  -1.462  0.00  0.00    +0.057 C 
BRANCH  13  17
ATOM     14  C   UNL     1       7.819   0.912  -1.508  0.00  0.00    +0.000 A 
ATOM     15  C   UNL     1       6.641   0.188  -1.501  0.00  0.00    +0.000 A 
ATOM     16  C   UNL     1       5.426   0.847  -1.486  0.00  0.00    +0.004 A 
ATOM     17  C   UNL     1       5.388   2.228  -1.478  0.00  0.00    -0.046 A 
ATOM     18  C   UNL     1       6.566   2.952  -1.491  0.00  0.00    +0.004 A 
ATOM     19  C   UNL     1       7.782   2.293  -1.500  0.00  0.00    +0.000 A 
ENDBRANCH  13  17
ENDBRANCH  12  13
ENDBRANCH   1  12
BRANCH   9  20
ATOM     20  C   UNL     1       0.913   7.403   0.034  0.00  0.00    +0.070 C 
BRANCH  20  21
ATOM     21  C   UNL     1      -0.553   7.843   0.051  0.00  0.00    +0.102 C 
BRANCH  21  22
ATOM     22  C   UNL     1      -0.625   9.348   0.060  0.00  0.00    +0.214 C 
ATOM     23  O   UNL     1       0.394  10.004   0.054  0.00  0.00    -0.276 OA
ATOM     24  N   UNL     1      -1.824   9.965   0.075  0.00  0.00    -0.311 N 
ATOM     25  H   UNL     1      -2.639   9.440   0.080  0.00  0.00    +0.149 HD
BRANCH  24  26
ATOM     26  C   UNL     1      -1.894  11.428   0.084  0.00  0.00    +0.139 C 
BRANCH  26  27
ATOM     27  C   UNL     1      -3.338  11.861   0.101  0.00  0.00    -0.030 A 
ATOM     28  C   UNL     1      -4.010  12.072  -1.089  0.00  0.00    +0.007 A 
ATOM     29  C   UNL     1      -5.335  12.465  -1.073  0.00  0.00    +0.029 A 
ATOM     30  C   UNL     1      -5.985  12.656   0.131  0.00  0.00    +0.105 A 
ATOM     31  C   UNL     1      -5.312  12.450   1.321  0.00  0.00    +0.029 A 
ATOM     32  C   UNL     1      -3.988  12.053   1.306  0.00  0.00    +0.007 A 
BRANCH  30  33
ATOM     33  S   UNL     1      -7.673  13.161   0.151  0.00  0.00    +0.056 S 
ATOM     34  O   UNL     1      -8.232  12.758  -1.092  0.00  0.00    -0.153 OA
ATOM     35  O   UNL     1      -8.208  12.742   1.398  0.00  0.00    -0.153 OA
BRANCH  33  36
ATOM     36  N   UNL     1      -7.689  14.817   0.161  0.00  0.00    -0.204 NA
ATOM     37  H   UNL     1      -6.853  15.310   0.157  0.00  0.00    +0.144 HD
ATOM     38  H   UNL     1      -8.533  15.294   0.172  0.00  0.00    +0.144 HD
ENDBRANCH  33  36
ENDBRANCH  30  33
ENDBRANCH  26  27
ENDBRANCH  24  26
ENDBRANCH  21  22
ENDBRANCH  20  21
ENDBRANCH   9  20
TORSDOF 10
