REMARK  Name = ZINC65011106
REMARK  10 active torsions:
REMARK  status: ('A' for Active; 'I' for Inactive)
REMARK    1  A    between atoms: C_1  and  C_2
REMARK    2  A    between atoms: C_2  and  C_3
REMARK    3  A    between atoms: C_3  and  C_4
REMARK    4  A    between atoms: C_5  and  C_16
REMARK    5  A    between atoms: C_19  and  C_34
REMARK    6  A    between atoms: C_20  and  S_22
REMARK    7  A    between atoms: S_22  and  N_25
REMARK    8  A    between atoms: N_25  and  C_26
REMARK    9  A    between atoms: C_28  and  C_33
REMARK   10  A    between atoms: C_31  and  C_32
REMARK                            x       y       z     vdW  Elec       q    Type
REMARK                         _______ _______ _______ _____ _____    ______ ____
ROOT
ATOM      1  C   UNL     1       2.971  -2.504  -0.253  0.00  0.00    -0.011 A 
ATOM      2  C   UNL     1       3.702  -1.523  -0.920  0.00  0.00    +0.009 A 
ATOM      3  C   UNL     1       4.703  -0.842  -0.258  0.00  0.00    +0.006 A 
ATOM      4  C   UNL     1       4.981  -1.131   1.066  0.00  0.00    -0.024 A 
ATOM      5  C   UNL     1       4.259  -2.103   1.733  0.00  0.00    +0.112 A 
ATOM      6  C   UNL     1       3.252  -2.787   1.083  0.00  0.00    +0.037 A 
ATOM      7  C   UNL     1       6.076  -0.384   1.783  0.00  0.00    +0.046 C 
ENDROOT
BRANCH   1   9
ATOM      8  C   UNL     1       0.700  -2.688  -1.460  0.00  0.00    +0.073 A 
ATOM      9  C   UNL     1       1.894  -3.239  -0.959  0.00  0.00    +0.045 A 
ATOM     10  C   UNL     1       1.879  -4.599  -1.247  0.00  0.00    +0.139 A 
ATOM     11  N   UNL     1       0.744  -4.841  -1.951  0.00  0.00    -0.185 N 
ATOM     12  N   UNL     1       0.011  -3.639  -2.020  0.00  0.00    -0.167 NA
ATOM     13  C   UNL     1       0.336  -5.971  -2.569  0.00  0.00    +0.250 C 
ATOM     14  O   UNL     1      -0.774  -6.000  -3.044  0.00  0.00    -0.271 OA
ATOM     15  C   UNL     1       1.185  -7.170  -2.689  0.00  0.00    +0.110 C 
ATOM     16  C   UNL     1       2.657  -6.886  -2.825  0.00  0.00    +0.105 C 
ATOM     17  C   UNL     1       3.280  -6.556  -1.510  0.00  0.00    +0.219 C 
ATOM     18  O   UNL     1       4.153  -7.264  -1.055  0.00  0.00    -0.275 OA
ATOM     19  N   UNL     1       2.868  -5.466  -0.828  0.00  0.00    -0.270 N 
ATOM     20  H   UNL     1       3.300  -5.278   0.020  0.00  0.00    +0.156 HD
BRANCH   8  21
ATOM     21  C   UNL     1       0.286  -1.242  -1.358  0.00  0.00    +0.058 C 
BRANCH  21  23
ATOM     22  C   UNL     1      -0.923   0.441   0.038  0.00  0.00    +0.004 C 
ATOM     23  C   UNL     1      -0.502  -1.027  -0.065  0.00  0.00    +0.003 C 
ENDBRANCH  21  23
ENDBRANCH   8  21
ENDBRANCH   1   9
BRANCH   5  24
ATOM     24  S   UNL     1       4.621  -2.465   3.419  0.00  0.00    +0.073 S 
ATOM     25  O   UNL     1       3.673  -3.438   3.838  0.00  0.00    -0.150 OA
ATOM     26  O   UNL     1       6.023  -2.685   3.496  0.00  0.00    -0.150 OA
BRANCH  24  27
ATOM     27  N   UNL     1       4.309  -1.093   4.292  0.00  0.00    -0.216 N 
ATOM     28  H   UNL     1       5.019  -0.668   4.798  0.00  0.00    +0.174 HD
BRANCH  27  29
ATOM     29  C   UNL     1       3.023  -0.548   4.301  0.00  0.00    +0.051 A 
ATOM     30  C   UNL     1       1.913  -1.383   4.271  0.00  0.00    +0.028 A 
ATOM     31  C   UNL     1       0.643  -0.842   4.280  0.00  0.00    -0.049 A 
ATOM     32  C   UNL     1       0.475   0.531   4.320  0.00  0.00    +0.004 A 
ATOM     33  C   UNL     1       1.577   1.365   4.350  0.00  0.00    +0.005 A 
ATOM     34  C   UNL     1       2.851   0.829   4.347  0.00  0.00    -0.028 A 
ATOM     35  C   UNL     1       4.052   1.738   4.386  0.00  0.00    +0.046 C 
ATOM     36  C   UNL     1      -0.562  -1.746   4.247  0.00  0.00    +0.044 C 
ENDBRANCH  27  29
ENDBRANCH  24  27
ENDBRANCH   5  24
TORSDOF 6
