REMARK  Name = ZINC20722601
REMARK  6 active torsions:
REMARK  status: ('A' for Active; 'I' for Inactive)
REMARK    1  A    between atoms: C_1  and  C_2
REMARK    2  A    between atoms: C_2  and  C_4
REMARK    3  A    between atoms: C_2  and  N_15
REMARK    4  A    between atoms: C_4  and  C_5
REMARK    5  A    between atoms: C_16  and  C_18
REMARK    6  A    between atoms: C_18  and  N_19
REMARK                            x       y       z     vdW  Elec       q    Type
REMARK                         _______ _______ _______ _____ _____    ______ ____
ROOT
ATOM      1  N   UNL     1       0.604  -0.491   1.246  0.00  0.00    -0.311 N 
ATOM      2  C   UNL     1       1.188  -1.706   1.281  0.00  0.00    +0.233 C 
ATOM      3  O   UNL     1       1.214  -2.395   0.284  0.00  0.00    -0.274 OA
ATOM      4  H   UNL     1       0.580   0.134   2.150  0.00  0.00    +0.149 HD
ENDROOT
BRANCH   1   6
ATOM      5  C   UNL     1      -1.429  -0.533  -0.113  0.00  0.00    +0.028 C 
ATOM      6  C   UNL     1       0.002  -0.004   0.002  0.00  0.00    +0.074 C 
BRANCH   6   7
ATOM      7  C   UNL     1      -0.019   1.526   0.010  0.00  0.00    +0.059 C 
BRANCH   7   8
ATOM      8  C   UNL     1       1.395   2.047  -0.000  0.00  0.00    -0.021 A 
ATOM      9  C   UNL     1       2.120   2.412   1.069  0.00  0.00    +0.087 A 
ATOM     10  N   UNL     1       3.360   2.832   0.671  0.00  0.00    -0.360 N 
ATOM     11  H   UNL     1       4.095   3.163   1.420  0.00  0.00    +0.165 HD
ATOM     12  C   UNL     1       3.463   2.754  -0.699  0.00  0.00    +0.047 A 
ATOM     13  C   UNL     1       2.237   2.259  -1.180  0.00  0.00    +0.003 A 
ATOM     14  C   UNL     1       2.050   2.073  -2.551  0.00  0.00    +0.010 A 
ATOM     15  C   UNL     1       3.062   2.373  -3.420  0.00  0.00    +0.001 A 
ATOM     16  C   UNL     1       4.273   2.862  -2.951  0.00  0.00    +0.002 A 
ATOM     17  C   UNL     1       4.478   3.053  -1.602  0.00  0.00    +0.026 A 
ENDBRANCH   7   8
ENDBRANCH   6   7
ENDBRANCH   1   6
BRANCH   2  18
ATOM     18  C   UNL     1       1.807  -2.207   2.560  0.00  0.00    +0.217 C 
BRANCH  18  19
ATOM     19  N   UNL     1       2.371  -3.541   2.340  0.00  0.00    -0.338 N 
ATOM     20  C   UNL     1       1.730  -4.719   2.612  0.00  0.00    +0.087 A 
ATOM     21  C   UNL     1       2.522  -5.755   2.292  0.00  0.00    +0.027 A 
ATOM     22  C   UNL     1       3.776  -5.194   1.782  0.00  0.00    -0.000 A 
ATOM     23  C   UNL     1       3.626  -3.796   1.834  0.00  0.00    +0.051 A 
ATOM     24  C   UNL     1       4.669  -2.982   1.407  0.00  0.00    +0.041 A 
ATOM     25  C   UNL     1       5.834  -3.552   0.938  0.00  0.00    +0.020 A 
ATOM     26  C   UNL     1       5.976  -4.932   0.888  0.00  0.00    +0.016 A 
ATOM     27  C   UNL     1       4.963  -5.750   1.304  0.00  0.00    +0.011 A 
ATOM     28 BR   UNL     1       7.251  -2.443   0.357  0.00  0.00    -0.050 Br
ENDBRANCH  18  19
ENDBRANCH   2  18
TORSDOF 5
