REMARK  Name = ZINC12322822
REMARK  2 active torsions:
REMARK  status: ('A' for Active; 'I' for Inactive)
REMARK    1  A    between atoms: C_6  and  N_7
REMARK    2  A    between atoms: C_19  and  O_24
REMARK                            x       y       z     vdW  Elec       q    Type
REMARK                         _______ _______ _______ _____ _____    ______ ____
ROOT
ATOM      1  N   UNL     1       0.660  -1.966   3.673  0.00  0.00    -0.226 N 
ATOM      2  C   UNL     1       0.609  -0.623   3.700  0.00  0.00    +0.309 C 
ATOM      3  O   UNL     1       0.519  -0.065   4.776  0.00  0.00    -0.252 OA
ATOM      4  N   UNL     1       0.652   0.126   2.588  0.00  0.00    -0.293 N 
ATOM      5  C   UNL     1       0.750  -0.481   1.258  0.00  0.00    +0.043 C 
ATOM      6  C   UNL     1       0.015   0.392   0.241  0.00  0.00    +0.026 C 
ATOM      7  C   UNL     1       0.651   1.783   0.207  0.00  0.00    +0.002 C 
ATOM      8  C   UNL     1       2.123   1.661  -0.193  0.00  0.00    +0.000 C 
ATOM      9  C   UNL     1       2.858   0.788   0.826  0.00  0.00    +0.002 C 
ATOM     10  C   UNL     1       2.222  -0.603   0.859  0.00  0.00    +0.026 C 
ATOM     11  C   UNL     1       0.112  -1.870   1.300  0.00  0.00    +0.063 C 
ATOM     12  C   UNL     1       0.794  -2.683   2.406  0.00  0.00    +0.145 C 
ATOM     13  C   UNL     1       0.132  -4.058   2.493  0.00  0.00    +0.056 C 
ATOM     14  C   UNL     1       0.306  -4.784   1.157  0.00  0.00    +0.004 C 
ATOM     15  C   UNL     1      -0.340  -3.969   0.036  0.00  0.00    +0.001 C 
ATOM     16  C   UNL     1       0.309  -2.584  -0.038  0.00  0.00    +0.010 C 
ATOM     17  H   UNL     1       0.617   1.092   2.666  0.00  0.00    +0.151 HD
ENDROOT
BRANCH   1  23
ATOM     18  C   UNL     1      -0.652  -2.985   5.426  0.00  0.00    +0.025 A 
ATOM     19  C   UNL     1      -0.724  -3.699   6.606  0.00  0.00    +0.022 A 
ATOM     20  C   UNL     1       0.436  -4.107   7.241  0.00  0.00    +0.041 A 
ATOM     21  C   UNL     1       1.670  -3.805   6.693  0.00  0.00    +0.022 A 
ATOM     22  C   UNL     1       1.747  -3.096   5.511  0.00  0.00    +0.025 A 
ATOM     23  C   UNL     1       0.585  -2.685   4.871  0.00  0.00    +0.041 A 
ATOM     24 CL   UNL     1       0.343  -4.998   8.728  0.00  0.00    -0.084 Cl
ENDBRANCH   1  23
BRANCH  12  25
ATOM     25  O   UNL     1       2.180  -2.842   2.094  0.00  0.00    -0.371 OA
ATOM     26  H   UNL     1       2.678  -3.339   2.758  0.00  0.00    +0.212 HD
ENDBRANCH  12  25
TORSDOF 2
