REMARK  Name = ZINC37241870
REMARK  4 active torsions:
REMARK  status: ('A' for Active; 'I' for Inactive)
REMARK    1  A    between atoms: C_1  and  C_2
REMARK    2  A    between atoms: C_2  and  C_4
REMARK    3  A    between atoms: C_2  and  N_11
REMARK    4  A    between atoms: N_11  and  C_12
REMARK                            x       y       z     vdW  Elec       q    Type
REMARK                         _______ _______ _______ _____ _____    ______ ____
ROOT
ATOM      1  N   UNL     1       0.814  -0.489   1.126  0.00  0.00    +0.388 N 
ATOM      2  H   UNL     1       1.142  -1.443   1.119  0.00  0.00    -0.084 HD
ATOM      3  H   UNL     1       1.600   0.138   1.040  0.00  0.00    -0.084 HD
ENDROOT
BRANCH   1   4
ATOM      4  C   UNL     1       0.111  -0.222   2.389  0.00  0.00    -0.037 C 
ATOM      5  C   UNL     1      -1.196  -1.023   2.431  0.00  0.00    -0.011 C 
ATOM      6  C   UNL     1      -2.048  -0.545   3.611  0.00  0.00    +0.006 C 
ATOM      7  C   UNL     1      -2.574   0.867   3.324  0.00  0.00    +0.074 C 
ATOM      8  C   UNL     1      -1.414   1.730   2.894  0.00  0.00    +0.106 A 
ATOM      9  C   UNL     1      -0.225   1.243   2.482  0.00  0.00    -0.020 A 
ATOM     10  C   UNL     1       0.592   2.346   2.173  0.00  0.00    +0.043 A 
ATOM     11  C   UNL     1      -0.143   3.450   2.413  0.00  0.00    +0.195 A 
ATOM     12  O   UNL     1      -1.359   3.067   2.847  0.00  0.00    -0.468 OA
ENDBRANCH   1   4
BRANCH   1  14
ATOM     13  C   UNL     1      -0.461   1.206  -0.098  0.00  0.00    -0.009 C 
ATOM     14  C   UNL     1      -0.106  -0.279   0.000  0.00  0.00    -0.043 C 
BRANCH  14  15
ATOM     15  C   UNL     1       0.556  -0.723  -1.279  0.00  0.00    -0.062 A 
ATOM     16  C   UNL     1       1.896  -0.458  -1.491  0.00  0.00    +0.003 A 
ATOM     17  C   UNL     1       2.504  -0.865  -2.664  0.00  0.00    +0.014 A 
ATOM     18  C   UNL     1       1.771  -1.538  -3.625  0.00  0.00    +0.013 A 
ATOM     19  C   UNL     1       0.431  -1.803  -3.412  0.00  0.00    +0.014 A 
ATOM     20  C   UNL     1      -0.175  -1.401  -2.236  0.00  0.00    +0.003 A 
ATOM     21  I   UNL     1       2.691  -2.155  -5.403  0.00  0.00    -0.044 I 
ENDBRANCH  14  15
ENDBRANCH   1  14
TORSDOF 3
