REMARK  Name = ZINC06194749
REMARK  9 active torsions:
REMARK  status: ('A' for Active; 'I' for Inactive)
REMARK    1  A    between atoms: C_1  and  C_2
REMARK    2  A    between atoms: C_6  and  C_15
REMARK    3  A    between atoms: C_13  and  C_14
REMARK    4  A    between atoms: C_15  and  C_17
REMARK    5  A    between atoms: C_15  and  N_26
REMARK    6  A    between atoms: N_21  and  C_22
REMARK    7  A    between atoms: C_22  and  C_23
REMARK    8  A    between atoms: C_22  and  C_24
REMARK    9  A    between atoms: C_22  and  C_25
REMARK                            x       y       z     vdW  Elec       q    Type
REMARK                         _______ _______ _______ _____ _____    ______ ____
ROOT
ATOM      1  C   UNL     1      -5.003   3.707   0.024  0.00  0.00    +0.179 C 
ENDROOT
BRANCH   1   7
ATOM      2  C   UNL     1       2.354   3.079   1.075  0.00  0.00    +0.044 C 
ATOM      3  C   UNL     1       1.025   2.479   0.693  0.00  0.00    -0.047 A 
ATOM      4  C   UNL     1      -0.101   3.253   0.723  0.00  0.00    +0.013 A 
ATOM      5  C   UNL     1      -1.334   2.697   0.368  0.00  0.00    -0.001 A 
ATOM      6  C   UNL     1      -2.560   3.498   0.389  0.00  0.00    +0.021 A 
ATOM      7  C   UNL     1      -3.724   2.910   0.018  0.00  0.00    +0.045 A 
ATOM      8  C   UNL     1      -3.744   1.550  -0.361  0.00  0.00    +0.255 A 
ATOM      9  O   UNL     1      -4.803   1.039  -0.681  0.00  0.00    -0.268 OA
ATOM     10  N   UNL     1      -2.625   0.806  -0.379  0.00  0.00    -0.322 N 
ATOM     11  H   UNL     1      -2.675  -0.126  -0.645  0.00  0.00    +0.169 HD
ATOM     12  C   UNL     1      -1.408   1.347  -0.024  0.00  0.00    +0.049 A 
ATOM     13  C   UNL     1      -0.249   0.578  -0.042  0.00  0.00    +0.030 A 
ATOM     14  C   UNL     1       0.955   1.146   0.312  0.00  0.00    -0.046 A 
ATOM     15  C   UNL     1       2.210   0.312   0.286  0.00  0.00    +0.044 C 
ENDBRANCH   1   7
BRANCH   1  16
ATOM     16  N   UNL     1      -5.962   3.087   0.948  0.00  0.00    -0.316 N 
ATOM     17  C   UNL     1      -5.276   2.499   2.100  0.00  0.00    +0.106 C 
ATOM     18  C   UNL     1      -6.325   1.893   3.040  0.00  0.00    +0.024 C 
ATOM     19  C   UNL     1      -7.132   3.042   3.649  0.00  0.00    +0.038 C 
ATOM     20  C   UNL     1      -7.549   4.001   2.562  0.00  0.00    -0.026 A 
ATOM     21  C   UNL     1      -6.962   3.989   1.309  0.00  0.00    +0.034 A 
ATOM     22  C   UNL     1      -7.379   4.913   0.349  0.00  0.00    +0.023 A 
ATOM     23  C   UNL     1      -8.368   5.826   0.642  0.00  0.00    +0.002 A 
ATOM     24  C   UNL     1      -8.955   5.830   1.894  0.00  0.00    +0.000 A 
ATOM     25  C   UNL     1      -8.545   4.920   2.849  0.00  0.00    +0.005 A 
ENDBRANCH   1  16
BRANCH   1  26
ATOM     26  C   UNL     1      -5.587   3.729  -1.365  0.00  0.00    +0.177 A 
ATOM     27  N   UNL     1      -6.292   2.782  -1.933  0.00  0.00    -0.111 NA
ATOM     28  N   UNL     1      -6.608   3.177  -3.118  0.00  0.00    -0.023 NA
ATOM     29  N   UNL     1      -6.122   4.352  -3.321  0.00  0.00    -0.043 NA
ATOM     30  N   UNL     1      -5.490   4.729  -2.261  0.00  0.00    -0.222 N 
BRANCH  30  31
ATOM     31  C   UNL     1      -4.795   6.004  -2.071  0.00  0.00    +0.059 C 
ATOM     32  C   UNL     1      -3.339   5.739  -1.681  0.00  0.00    +0.036 C 
ATOM     33  C   UNL     1      -4.835   6.807  -3.373  0.00  0.00    +0.036 C 
ATOM     34  C   UNL     1      -5.483   6.800  -0.960  0.00  0.00    +0.036 C 
ENDBRANCH  30  31
ENDBRANCH   1  26
TORSDOF 4
