REMARK  Name = ZINC20182734
REMARK  5 active torsions:
REMARK  status: ('A' for Active; 'I' for Inactive)
REMARK    1  A    between atoms: C_1  and  C_2
REMARK    2  A    between atoms: C_2  and  C_3
REMARK    3  A    between atoms: C_6  and  S_8
REMARK    4  A    between atoms: S_8  and  N_11
REMARK    5  A    between atoms: C_18  and  N_20
REMARK                            x       y       z     vdW  Elec       q    Type
REMARK                         _______ _______ _______ _____ _____    ______ ____
ROOT
ATOM      1  N   UNL     1      -5.329  -3.664   1.282  0.00  0.00    -0.202 N 
ATOM      2  C   UNL     1      -5.658  -4.639   0.239  0.00  0.00    +0.136 C 
ATOM      3  C   UNL     1      -5.386  -6.014   0.872  0.00  0.00    +0.058 C 
ATOM      4  C   UNL     1      -4.908  -5.701   2.272  0.00  0.00    -0.021 A 
ATOM      5  C   UNL     1      -4.894  -4.325   2.437  0.00  0.00    +0.055 A 
ATOM      6  C   UNL     1      -4.479  -3.790   3.657  0.00  0.00    +0.027 A 
ATOM      7  C   UNL     1      -4.083  -4.620   4.684  0.00  0.00    +0.024 A 
ATOM      8  C   UNL     1      -4.096  -5.998   4.511  0.00  0.00    +0.025 A 
ATOM      9  C   UNL     1      -4.517  -6.535   3.301  0.00  0.00    +0.028 A 
ENDROOT
BRANCH   1  10
ATOM     10  S   UNL     1      -5.447  -2.021   1.117  0.00  0.00    +0.081 S 
ATOM     11  O   UNL     1      -5.585  -1.489   2.427  0.00  0.00    -0.149 OA
ATOM     12  O   UNL     1      -6.404  -1.783   0.093  0.00  0.00    -0.149 OA
BRANCH  10  16
ATOM     13  C   UNL     1      -1.412  -0.526   0.013  0.00  0.00    -0.009 A 
ATOM     14  C   UNL     1      -2.221  -0.821  -1.034  0.00  0.00    +0.013 A 
ATOM     15  C   UNL     1      -3.495  -1.293  -0.784  0.00  0.00    +0.037 A 
ATOM     16  C   UNL     1      -3.899  -1.446   0.501  0.00  0.00    +0.146 A 
ATOM     17  S   UNL     1      -2.453  -0.923   1.407  0.00  0.00    -0.073 S 
BRANCH  13  19
ATOM     18  C   UNL     1      -0.019   1.526   0.010  0.00  0.00    +0.009 C 
ATOM     19  C   UNL     1       0.002  -0.004   0.002  0.00  0.00    +0.039 C 
ENDBRANCH  13  19
ENDBRANCH  10  16
ENDBRANCH   1  10
BRANCH   8  20
ATOM     20  N   UNL     1      -3.694  -6.842   5.553  0.00  0.00    -0.358 N 
ATOM     21  H   UNL     1      -3.406  -6.464   6.399  0.00  0.00    +0.142 HD
ATOM     22  H   UNL     1      -3.703  -7.804   5.429  0.00  0.00    +0.142 HD
ENDBRANCH   8  20
TORSDOF 4
