REMARK  Name = ZINC41585914
REMARK  5 active torsions:
REMARK  status: ('A' for Active; 'I' for Inactive)
REMARK    1  A    between atoms: C_4  and  C_7
REMARK    2  A    between atoms: C_10  and  C_13
REMARK    3  A    between atoms: C_20  and  O_37
REMARK    4  A    between atoms: C_21  and  C_24
REMARK    5  A    between atoms: C_24  and  N_25
REMARK                            x       y       z     vdW  Elec       q    Type
REMARK                         _______ _______ _______ _____ _____    ______ ____
ROOT
ATOM      1  C   UNL     1       7.318  -2.768  -0.187  0.00  0.00    +0.058 C 
ATOM      2  C   UNL     1       7.358  -4.120  -0.081  0.00  0.00    +0.176 C 
ATOM      3  C   UNL     1       6.198  -5.026  -0.073  0.00  0.00    +0.231 C 
ATOM      4  O   UNL     1       5.019  -4.729  -0.158  0.00  0.00    -0.283 OA
ATOM      5  C   UNL     1       6.782  -6.372   0.062  0.00  0.00    +0.068 A 
ATOM      6  C   UNL     1       6.227  -7.651   0.131  0.00  0.00    +0.019 A 
ATOM      7  C   UNL     1       7.041  -8.741   0.259  0.00  0.00    +0.046 A 
ATOM      8  C   UNL     1       8.423  -8.578   0.320  0.00  0.00    +0.125 A 
ATOM      9  C   UNL     1       8.988  -7.315   0.253  0.00  0.00    +0.051 A 
ATOM     10  C   UNL     1       8.174  -6.196   0.123  0.00  0.00    +0.147 A 
ATOM     11  O   UNL     1       8.471  -4.881   0.031  0.00  0.00    -0.451 OA
ENDROOT
BRANCH   1  15
ATOM     12  C   UNL     1       3.609  -0.737  -0.002  0.00  0.00    -0.018 A 
ATOM     13  C   UNL     1       3.833  -1.854   0.804  0.00  0.00    +0.009 A 
ATOM     14  C   UNL     1       5.029  -2.511   0.747  0.00  0.00    +0.008 A 
ATOM     15  C   UNL     1       6.032  -2.063  -0.123  0.00  0.00    -0.021 A 
ATOM     16  C   UNL     1       5.804  -0.942  -0.932  0.00  0.00    +0.008 A 
ATOM     17  C   UNL     1       4.605  -0.292  -0.874  0.00  0.00    +0.009 A 
BRANCH  12  21
ATOM     18  C   UNL     1      -0.115   1.304   0.185  0.00  0.00    +0.000 A 
ATOM     19  C   UNL     1       0.107   0.200   0.988  0.00  0.00    +0.001 A 
ATOM     20  C   UNL     1       1.314  -0.467   0.932  0.00  0.00    +0.008 A 
ATOM     21  C   UNL     1       2.311  -0.025   0.063  0.00  0.00    -0.018 A 
ATOM     22  C   UNL     1       2.081   1.088  -0.745  0.00  0.00    +0.008 A 
ATOM     23  C   UNL     1       0.870   1.746  -0.680  0.00  0.00    +0.001 A 
ENDBRANCH  12  21
ENDBRANCH   1  15
BRANCH   8  24
ATOM     24  O   UNL     1       9.223  -9.667   0.448  0.00  0.00    -0.506 OA
ATOM     25  H   UNL     1       9.502 -10.051  -0.394  0.00  0.00    +0.292 HD
ENDBRANCH   8  24
BRANCH   9  26
ATOM     26  C   UNL     1      10.484  -7.154   0.321  0.00  0.00    +0.127 C 
BRANCH  26  27
ATOM     27  N   UNL     1      11.045  -7.209  -1.035  0.00  0.00    -0.295 NA
ATOM     28  C   UNL     1      10.599  -6.061  -1.836  0.00  0.00    +0.103 C 
ATOM     29  C   UNL     1      11.054  -6.247  -3.288  0.00  0.00    +0.122 C 
ATOM     30  N   UNL     1      12.505  -6.485  -3.296  0.00  0.00    -0.314 N 
ATOM     31  C   UNL     1      13.044  -7.531  -2.413  0.00  0.00    +0.122 C 
ATOM     32  C   UNL     1      12.511  -7.294  -0.996  0.00  0.00    +0.103 C 
ATOM     33  C   UNL     1      13.345  -5.741  -4.116  0.00  0.00    +0.099 A 
ATOM     34  C   UNL     1      14.694  -6.073  -4.205  0.00  0.00    +0.042 A 
ATOM     35  C   UNL     1      15.518  -5.324  -5.025  0.00  0.00    +0.005 A 
ATOM     36  C   UNL     1      14.965  -4.264  -5.730  0.00  0.00    +0.018 A 
ATOM     37  C   UNL     1      13.619  -3.990  -5.594  0.00  0.00    +0.084 A 
ATOM     38  N   UNL     1      12.855  -4.725  -4.809  0.00  0.00    -0.350 N 
ATOM     39  H   UNL     1      11.911  -4.513  -4.734  0.00  0.00    +0.166 HD
ENDBRANCH  26  27
ENDBRANCH   9  26
TORSDOF 5
