REMARK  Name = ZINC11910316
REMARK  12 active torsions:
REMARK  status: ('A' for Active; 'I' for Inactive)
REMARK    1  A    between atoms: C_1  and  C_2
REMARK    2  A    between atoms: C_3  and  C_4
REMARK    3  A    between atoms: C_4  and  N_5
REMARK    4  A    between atoms: C_8  and  C_12
REMARK    5  A    between atoms: C_8  and  C_20
REMARK    6  A    between atoms: C_12  and  C_13
REMARK    7  A    between atoms: C_13  and  C_14
REMARK    8  A    between atoms: C_25  and  C_26
REMARK    9  A    between atoms: C_25  and  N_72
REMARK   10  A    between atoms: C_26  and  C_27
REMARK   11  A    between atoms: C_27  and  C_29
REMARK   12  A    between atoms: C_27  and  C_30
REMARK                            x       y       z     vdW  Elec       q    Type
REMARK                         _______ _______ _______ _____ _____    ______ ____
ROOT
ATOM      1  N   UNL     1      -1.232   1.929   4.583  0.00  0.00    -0.212 N 
ATOM      2  C   UNL     1      -1.500   0.761   5.200  0.00  0.00    +0.248 C 
ATOM      3  O   UNL     1      -2.342  -0.054   4.891  0.00  0.00    -0.273 OA
ATOM      4  C   UNL     1      -0.530   0.679   6.362  0.00  0.00    +0.115 C 
ATOM      5  N   UNL     1       0.240   1.931   6.259  0.00  0.00    -0.285 N 
ATOM      6  C   UNL     1      -0.242   2.592   5.191  0.00  0.00    +0.310 C 
ATOM      7  O   UNL     1       0.175   3.672   4.820  0.00  0.00    -0.252 OA
ATOM      8  H   UNL     1       0.956   2.221   6.846  0.00  0.00    +0.151 HD
ENDROOT
BRANCH   4   9
ATOM      9  C   UNL     1       0.391  -0.533   6.215  0.00  0.00    +0.018 C 
ATOM     10  C   UNL     1       1.443  -0.515   7.328  0.00  0.00    -0.013 C 
ATOM     11  C   UNL     1       2.398  -1.696   7.140  0.00  0.00    -0.078 C 
ATOM     12  C   UNL     1       2.061  -1.661   4.740  0.00  0.00    -0.078 C 
ATOM     13  C   UNL     1       1.096  -0.479   4.857  0.00  0.00    -0.013 C 
ATOM     14  N   UNL     1       3.062  -1.571   5.824  0.00  0.00    +0.380 N 
ATOM     15  H   UNL     1       3.529  -0.658   5.772  0.00  0.00    -0.082 HD
BRANCH  14  16
ATOM     16  C   UNL     1       4.073  -2.637   5.667  0.00  0.00    -0.078 C 
BRANCH  16  17
ATOM     17  C   UNL     1       4.931  -2.705   6.932  0.00  0.00    -0.011 C 
BRANCH  17  18
ATOM     18  C   UNL     1       6.000  -3.787   6.766  0.00  0.00    +0.014 C 
ATOM     19  C   UNL     1       5.326  -5.157   6.660  0.00  0.00    +0.012 C 
BRANCH  18  20
ATOM     20  C   UNL     1       6.921  -3.771   7.958  0.00  0.00    -0.045 A 
ATOM     21  C   UNL     1       6.414  -3.987   9.226  0.00  0.00    +0.004 A 
ATOM     22  C   UNL     1       7.260  -3.976  10.320  0.00  0.00    +0.000 A 
ATOM     23  C   UNL     1       8.611  -3.741  10.146  0.00  0.00    +0.000 A 
ATOM     24  C   UNL     1       9.117  -3.520   8.879  0.00  0.00    +0.000 A 
ATOM     25  C   UNL     1       8.272  -3.535   7.785  0.00  0.00    +0.004 A 
ENDBRANCH  18  20
ENDBRANCH  17  18
ENDBRANCH  16  17
ENDBRANCH  14  16
ENDBRANCH   4   9
BRANCH   1  26
ATOM     26  C   UNL     1      -1.940   2.414   3.396  0.00  0.00    +0.206 C 
BRANCH  26  29
ATOM     27  C   UNL     1      -0.013   1.086   0.008  0.00  0.00    +0.106 C 
ATOM     28  C   UNL     1      -0.702   1.560   1.219  0.00  0.00    -0.104 C 
ATOM     29  C   UNL     1      -1.251   1.939   2.185  0.00  0.00    -0.083 C 
ENDBRANCH  26  29
ENDBRANCH   1  26
BRANCH   4  30
ATOM     30  C   UNL     1      -1.286   0.621   7.691  0.00  0.00    +0.040 C 
BRANCH  30  31
ATOM     31  C   UNL     1      -2.238   1.815   7.789  0.00  0.00    +0.038 C 
BRANCH  31  32
ATOM     32  C   UNL     1      -2.983   1.757   9.098  0.00  0.00    -0.047 A 
ATOM     33  C   UNL     1      -4.191   1.090   9.177  0.00  0.00    +0.003 A 
ATOM     34  C   UNL     1      -4.872   1.033  10.379  0.00  0.00    +0.000 A 
ATOM     35  C   UNL     1      -4.350   1.652  11.499  0.00  0.00    +0.000 A 
ATOM     36  C   UNL     1      -3.144   2.324  11.419  0.00  0.00    +0.000 A 
ATOM     37  C   UNL     1      -2.461   2.376  10.218  0.00  0.00    +0.003 A 
ENDBRANCH  31  32
ENDBRANCH  30  31
ENDBRANCH   4  30
TORSDOF 10
