REMARK  Name = ZINC13759855
REMARK  8 active torsions:
REMARK  status: ('A' for Active; 'I' for Inactive)
REMARK    1  A    between atoms: C_1  and  N_2
REMARK    2  A    between atoms: N_2  and  C_3
REMARK    3  A    between atoms: N_2  and  C_4
REMARK    4  A    between atoms: C_8  and  C_11
REMARK    5  A    between atoms: C_11  and  C_12
REMARK    6  A    between atoms: C_12  and  N_13
REMARK    7  A    between atoms: N_13  and  C_14
REMARK    8  A    between atoms: C_14  and  N_16
REMARK                            x       y       z     vdW  Elec       q    Type
REMARK                         _______ _______ _______ _____ _____    ______ ____
ROOT
ATOM      1  C   UNL     1      -2.929  -3.511  -3.175  0.00  0.00    +0.108 C 
ENDROOT
BRANCH   1   2
ATOM      2  N   UNL     1      -4.198  -3.885  -3.803  0.00  0.00    -0.326 N 
ATOM      3  H   UNL     1      -4.627  -3.280  -4.428  0.00  0.00    +0.148 HD
BRANCH   2   4
ATOM      4  C   UNL     1      -4.771  -5.070  -3.512  0.00  0.00    +0.136 C 
ATOM      5  S   UNL     1      -4.014  -6.138  -2.409  0.00  0.00    -0.019 S 
BRANCH   4   6
ATOM      6  N   UNL     1      -5.939  -5.414  -4.090  0.00  0.00    -0.282 N 
ATOM      7  C   UNL     1      -6.476  -6.682  -3.875  0.00  0.00    +0.124 A 
ATOM      8  C   UNL     1      -7.624  -7.068  -4.558  0.00  0.00    +0.045 A 
ATOM      9  C   UNL     1      -8.147  -8.330  -4.335  0.00  0.00    +0.025 A 
ATOM     10  C   UNL     1      -7.501  -9.165  -3.433  0.00  0.00    +0.059 A 
ATOM     11  C   UNL     1      -6.364  -8.716  -2.790  0.00  0.00    +0.132 A 
ATOM     12  N   UNL     1      -5.886  -7.509  -3.027  0.00  0.00    -0.239 NA
ATOM     13 CL   UNL     1      -8.115 -10.758  -3.117  0.00  0.00    -0.082 Cl
ATOM     14  H   UNL     1      -6.405  -4.779  -4.656  0.00  0.00    +0.155 HD
ENDBRANCH   4   6
ENDBRANCH   2   4
ENDBRANCH   1   2
BRANCH   1  15
ATOM     15  C   UNL     1      -2.501  -2.129  -3.672  0.00  0.00    +0.059 C 
BRANCH  15  20
ATOM     16  C   UNL     1       0.012  -0.702  -1.232  0.00  0.00    +0.065 A 
ATOM     17  C   UNL     1       1.211  -1.039  -1.845  0.00  0.00    +0.029 A 
ATOM     18  C   UNL     1       1.204  -1.726  -3.043  0.00  0.00    +0.040 A 
ATOM     19  C   UNL     1       0.003  -2.079  -3.634  0.00  0.00    +0.129 A 
ATOM     20  C   UNL     1      -1.195  -1.744  -3.026  0.00  0.00    +0.026 A 
ATOM     21  C   UNL     1      -1.194  -1.063  -1.823  0.00  0.00    +0.150 A 
ATOM     22  F   UNL     1      -2.362  -0.742  -1.226  0.00  0.00    -0.203 F 
ATOM     23  F   UNL     1       0.000  -2.750  -4.807  0.00  0.00    -0.205 F 
BRANCH  16  25
ATOM     24  C   UNL     1       0.000   1.459  -0.012  0.00  0.00    +0.129 C 
ATOM     25  N   UNL     1       0.017  -0.006  -0.017  0.00  0.00    -0.334 N 
ATOM     26  C   UNL     1       0.039  -0.743   1.249  0.00  0.00    +0.129 C 
ENDBRANCH  16  25
ENDBRANCH  15  20
ENDBRANCH   1  15
TORSDOF 6
