REMARK  Name = ZINC06186955
REMARK  6 active torsions:
REMARK  status: ('A' for Active; 'I' for Inactive)
REMARK    1  A    between atoms: C_1  and  C_2
REMARK    2  A    between atoms: C_2  and  C_30
REMARK    3  A    between atoms: C_6  and  C_18
REMARK    4  A    between atoms: C_12  and  S_16
REMARK    5  A    between atoms: S_16  and  C_17
REMARK    6  A    between atoms: C_23  and  N_24
REMARK                            x       y       z     vdW  Elec       q    Type
REMARK                         _______ _______ _______ _____ _____    ______ ____
ROOT
ATOM      1  C   UNL     1       0.841   2.628  -0.784  0.00  0.00    +0.011 C 
ATOM      2  C   UNL     1       0.528   1.139  -0.626  0.00  0.00    -0.023 C 
ATOM      3  C   UNL     1       1.204   0.349  -1.750  0.00  0.00    +0.058 C 
ATOM      4  C   UNL     1       2.700   0.526  -1.664  0.00  0.00    +0.017 C 
ATOM      5  C   UNL     1       3.311   0.719  -0.476  0.00  0.00    +0.024 C 
ATOM      6  C   UNL     1       4.808   0.881  -0.390  0.00  0.00    +0.095 C 
ATOM      7  C   UNL     1       5.395   1.226  -1.726  0.00  0.00    +0.069 A 
ATOM      8  C   UNL     1       6.693   1.776  -1.811  0.00  0.00    +0.280 A 
ATOM      9  O   UNL     1       7.342   1.979  -0.795  0.00  0.00    -0.265 OA
ATOM     10  N   UNL     1       7.209   2.075  -3.013  0.00  0.00    -0.185 NA
ATOM     11  C   UNL     1       6.523   1.865  -4.117  0.00  0.00    +0.171 A 
ATOM     12  N   UNL     1       5.267   1.339  -4.077  0.00  0.00    -0.322 N 
ATOM     13  C   UNL     1       4.696   1.016  -2.874  0.00  0.00    +0.111 A 
ATOM     14  N   UNL     1       3.426   0.488  -2.824  0.00  0.00    -0.304 N 
ATOM     15  C   UNL     1       2.571   0.777   0.718  0.00  0.00    +0.162 C 
ATOM     16  O   UNL     1       3.152   0.943   1.772  0.00  0.00    -0.292 OA
ATOM     17  C   UNL     1       1.073   0.637   0.715  0.00  0.00    +0.086 C 
ATOM     18  C   UNL     1      -0.986   0.923  -0.679  0.00  0.00    +0.011 C 
ATOM     19  H   UNL     1       3.042   0.086  -3.618  0.00  0.00    +0.153 HD
ATOM     20  H   UNL     1       4.776   1.192  -4.901  0.00  0.00    +0.169 HD
ENDROOT
BRANCH   6  21
ATOM     21  C   UNL     1       5.417  -0.408   0.098  0.00  0.00    -0.005 A 
ATOM     22  C   UNL     1       5.362  -1.541  -0.693  0.00  0.00    +0.007 A 
ATOM     23  C   UNL     1       5.921  -2.724  -0.246  0.00  0.00    +0.000 A 
ATOM     24  C   UNL     1       6.534  -2.773   0.992  0.00  0.00    +0.002 A 
ATOM     25  C   UNL     1       6.590  -1.641   1.782  0.00  0.00    +0.033 A 
ATOM     26  C   UNL     1       6.035  -0.457   1.333  0.00  0.00    +0.130 A 
BRANCH  26  27
ATOM     27  N   UNL     1       6.098   0.757   2.177  0.00  0.00    +0.057 N 
ATOM     28  O   UNL     1       6.935   0.847   3.045  0.00  0.00    -0.126 OA
ATOM     29  O   UNL     1       5.314   1.660   1.998  0.00  0.00    -0.126 OA
ENDBRANCH  26  27
ENDBRANCH   6  21
BRANCH  11  30
ATOM     30  S   UNL     1       7.241   2.272  -5.674  0.00  0.00    -0.091 S 
ATOM     31  C   UNL     1       8.878   2.925  -5.244  0.00  0.00    +0.093 C 
ENDBRANCH  11  30
TORSDOF 3
