REMARK  Name = ZINC08740288
REMARK  10 active torsions:
REMARK  status: ('A' for Active; 'I' for Inactive)
REMARK    1  A    between atoms: C_1  and  C_2
REMARK    2  A    between atoms: N_6  and  O_7
REMARK    3  A    between atoms: O_7  and  C_8
REMARK    4  A    between atoms: C_8  and  C_9
REMARK    5  A    between atoms: N_11  and  C_12
REMARK    6  A    between atoms: C_12  and  C_13
REMARK    7  A    between atoms: C_13  and  C_14
REMARK    8  A    between atoms: C_30  and  C_39
REMARK    9  A    between atoms: C_35  and  C_36
REMARK   10  A    between atoms: C_35  and  O_38
REMARK                            x       y       z     vdW  Elec       q    Type
REMARK                         _______ _______ _______ _____ _____    ______ ____
ROOT
ATOM      1  C   UNL     1       8.104  -0.875  -0.123  0.00  0.00    +0.016 C 
ATOM      2  C   UNL     1       6.949  -0.556  -1.081  0.00  0.00    -0.007 C 
ATOM      3  C   UNL     1       6.885   0.956  -1.199  0.00  0.00    +0.017 C 
ATOM      4  C   UNL     1       6.107   1.596  -0.049  0.00  0.00    +0.059 C 
ATOM      5  C   UNL     1       4.725   0.973  -0.038  0.00  0.00    +0.080 C 
ATOM      6  N   UNL     1       3.649   1.692  -0.024  0.00  0.00    -0.089 NA
ATOM      7  C   UNL     1       4.679  -0.500  -0.045  0.00  0.00    +0.026 C 
ATOM      8  C   UNL     1       5.708  -1.187  -0.526  0.00  0.00    -0.062 C 
ATOM      9  C   UNL     1       5.611  -2.701  -0.512  0.00  0.00    +0.031 C 
ATOM     10  C   UNL     1       5.936  -3.231  -1.913  0.00  0.00    +0.008 C 
ATOM     11  C   UNL     1       7.295  -2.701  -2.361  0.00  0.00    -0.003 C 
ATOM     12  C   UNL     1       7.277  -1.177  -2.439  0.00  0.00    +0.002 C 
ATOM     13  C   UNL     1       6.226  -0.774  -3.478  0.00  0.00    +0.005 C 
ATOM     14  C   UNL     1       6.705  -1.245  -4.848  0.00  0.00    +0.011 C 
ATOM     15  C   UNL     1       6.987  -2.726  -4.912  0.00  0.00    +0.011 C 
ATOM     16  C   UNL     1       7.711  -3.307  -3.698  0.00  0.00    +0.002 C 
ATOM     17  C   UNL     1       7.301  -4.804  -3.697  0.00  0.00    +0.008 C 
ATOM     18  C   UNL     1       5.875  -4.831  -4.280  0.00  0.00    +0.049 C 
ATOM     19  C   UNL     1       5.732  -3.570  -5.152  0.00  0.00    +0.132 C 
ATOM     20  C   UNL     1       7.907  -2.943  -6.136  0.00  0.00    +0.015 C 
ENDROOT
BRANCH  19  21
ATOM     21  C   UNL     1       5.662  -3.960  -6.575  0.00  0.00    -0.070 C 
ATOM     22  C   UNL     1       5.606  -4.270  -7.706  0.00  0.00    +0.007 C 
ENDBRANCH  19  21
BRANCH  19  23
ATOM     23  O   UNL     1       4.551  -2.848  -4.801  0.00  0.00    -0.376 OA
ATOM     24  H   UNL     1       3.732  -3.344  -4.936  0.00  0.00    +0.211 HD
ENDBRANCH  19  23
BRANCH   6  25
ATOM     25  O   UNL     1       2.379   1.066  -0.015  0.00  0.00    -0.384 OA
BRANCH  25  26
ATOM     26  C   UNL     1       1.280   1.980   0.001  0.00  0.00    +0.358 C 
BRANCH  26  27
ATOM     27  C   UNL     1      -0.014   1.209   0.009  0.00  0.00    +0.253 C 
ATOM     28  O   UNL     1       0.002  -0.004   0.002  0.00  0.00    -0.272 OA
ATOM     29  N   UNL     1      -1.191   1.867   0.018  0.00  0.00    -0.312 N 
ATOM     30  H   UNL     1      -1.204   2.837   0.023  0.00  0.00    +0.149 HD
BRANCH  29  31
ATOM     31  C   UNL     1      -2.449   1.117   0.020  0.00  0.00    +0.110 C 
BRANCH  31  32
ATOM     32  C   UNL     1      -3.626   2.095   0.031  0.00  0.00    +0.075 C 
BRANCH  32  33
ATOM     33  C   UNL     1      -4.920   1.324   0.033  0.00  0.00    +0.060 A 
ATOM     34  C   UNL     1      -5.913   1.447   0.934  0.00  0.00    +0.107 A 
ATOM     35  N   UNL     1      -6.896   0.570   0.562  0.00  0.00    -0.351 N 
ATOM     36  H   UNL     1      -7.771   0.427   1.026  0.00  0.00    +0.166 HD
ATOM     37  C   UNL     1      -6.466  -0.066  -0.549  0.00  0.00    +0.196 A 
ATOM     38  N   UNL     1      -5.283   0.390  -0.860  0.00  0.00    -0.241 NA
ENDBRANCH  32  33
ENDBRANCH  31  32
ENDBRANCH  29  31
ENDBRANCH  26  27
ENDBRANCH  25  26
ENDBRANCH   6  25
TORSDOF 8
