REMARK  Name = ZINC57941790
REMARK  11 active torsions:
REMARK  status: ('A' for Active; 'I' for Inactive)
REMARK    1  A    between atoms: C_1  and  C_2
REMARK    2  A    between atoms: C_2  and  N_3
REMARK    3  A    between atoms: N_3  and  C_4
REMARK    4  A    between atoms: C_4  and  C_5
REMARK    5  A    between atoms: C_16  and  C_18
REMARK    6  A    between atoms: C_18  and  N_19
REMARK    7  A    between atoms: C_22  and  C_26
REMARK    8  A    between atoms: C_22  and  C_27
REMARK    9  A    between atoms: C_30  and  C_33
REMARK   10  A    between atoms: C_33  and  C_34
REMARK   11  A    between atoms: C_33  and  C_35
REMARK                            x       y       z     vdW  Elec       q    Type
REMARK                         _______ _______ _______ _____ _____    ______ ____
ROOT
ATOM      1  N   UNL     1      -2.026  -0.790  -3.684  0.00  0.00    -0.215 N 
ATOM      2  C   UNL     1      -2.123   0.100  -4.692  0.00  0.00    +0.251 C 
ATOM      3  O   UNL     1      -1.806   1.270  -4.668  0.00  0.00    -0.272 OA
ATOM      4  C   UNL     1      -2.711  -0.666  -5.860  0.00  0.00    +0.135 C 
ATOM      5  N   UNL     1      -2.894  -2.027  -5.325  0.00  0.00    -0.281 N 
ATOM      6  C   UNL     1      -2.462  -2.001  -4.052  0.00  0.00    +0.310 C 
ATOM      7  O   UNL     1      -2.469  -2.968  -3.316  0.00  0.00    -0.252 OA
ATOM      8  C   UNL     1      -4.056  -0.066  -6.275  0.00  0.00    +0.047 C 
ATOM      9  H   UNL     1      -3.254  -2.793  -5.800  0.00  0.00    +0.152 HD
ENDROOT
BRANCH   4  10
ATOM     10  C   UNL     1      -1.753  -0.678  -7.023  0.00  0.00    -0.015 A 
ATOM     11  C   UNL     1      -0.877   0.376  -7.207  0.00  0.00    +0.006 A 
ATOM     12  C   UNL     1       0.003   0.365  -8.274  0.00  0.00    +0.004 A 
ATOM     13  C   UNL     1       0.007  -0.700  -9.155  0.00  0.00    -0.045 A 
ATOM     14  C   UNL     1      -0.869  -1.754  -8.970  0.00  0.00    +0.004 A 
ATOM     15  C   UNL     1      -1.745  -1.745  -7.902  0.00  0.00    +0.006 A 
BRANCH  13  16
ATOM     16  C   UNL     1       0.965  -0.711 -10.319  0.00  0.00    +0.013 C 
ATOM     17  C   UNL     1       1.877  -1.935 -10.216  0.00  0.00    +0.012 C 
ATOM     18  C   UNL     1       0.176  -0.771 -11.628  0.00  0.00    +0.012 C 
ENDBRANCH  13  16
ENDBRANCH   4  10
BRANCH   1  19
ATOM     19  C   UNL     1      -1.502  -0.473  -2.354  0.00  0.00    +0.213 C 
BRANCH  19  21
ATOM     20  N   UNL     1       0.688  -0.476  -1.203  0.00  0.00    -0.297 N 
ATOM     21  C   UNL     1      -0.013  -0.705  -2.332  0.00  0.00    +0.234 C 
ATOM     22  O   UNL     1       0.555  -1.096  -3.330  0.00  0.00    -0.274 OA
BRANCH  20  24
ATOM     23  C   UNL     1      -0.019   1.526   0.010  0.00  0.00    +0.024 C 
ATOM     24  C   UNL     1       0.002  -0.004   0.002  0.00  0.00    +0.104 C 
ENDBRANCH  20  24
BRANCH  20  25
ATOM     25  C   UNL     1       2.135  -0.701  -1.182  0.00  0.00    +0.155 C 
BRANCH  25  26
ATOM     26  C   UNL     1       2.421  -2.145  -0.763  0.00  0.00    +0.228 C 
ATOM     27  C   UNL     1       3.937  -2.382  -0.725  0.00  0.00    +0.275 C 
ATOM     28  O   UNL     1       4.169  -3.735  -0.318  0.00  0.00    -0.485 OA
ATOM     29  C   UNL     1       3.458  -4.181   0.754  0.00  0.00    +0.162 A 
ATOM     30  C   UNL     1       3.876  -5.322   1.421  0.00  0.00    +0.049 A 
ATOM     31  C   UNL     1       3.163  -5.789   2.509  0.00  0.00    +0.004 A 
ATOM     32  C   UNL     1       2.030  -5.121   2.934  0.00  0.00    +0.004 A 
ATOM     33  C   UNL     1       1.608  -3.982   2.274  0.00  0.00    +0.049 A 
ATOM     34  C   UNL     1       2.320  -3.507   1.183  0.00  0.00    +0.163 A 
ATOM     35  O   UNL     1       1.897  -2.380   0.548  0.00  0.00    -0.480 OA
ENDBRANCH  25  26
ENDBRANCH  20  25
ENDBRANCH  19  21
ENDBRANCH   1  19
TORSDOF 7
