REMARK  Name = ZINC11670603
REMARK  9 active torsions:
REMARK  status: ('A' for Active; 'I' for Inactive)
REMARK    1  A    between atoms: C_1  and  C_2
REMARK    2  A    between atoms: C_2  and  C_4
REMARK    3  A    between atoms: C_2  and  N_12
REMARK    4  A    between atoms: C_13  and  C_15
REMARK    5  A    between atoms: C_15  and  C_17
REMARK    6  A    between atoms: C_15  and  S_18
REMARK    7  A    between atoms: S_18  and  C_19
REMARK    8  A    between atoms: C_22  and  C_25
REMARK    9  A    between atoms: N_23  and  N_24
REMARK                            x       y       z     vdW  Elec       q    Type
REMARK                         _______ _______ _______ _____ _____    ______ ____
ROOT
ATOM      1  C   UNL     1       0.819  -1.911   3.798  0.00  0.00    +0.137 C 
ATOM      2  C   UNL     1       2.153  -2.657   3.715  0.00  0.00    +0.029 C 
ENDROOT
BRANCH   1   4
ATOM      3  N   UNL     1      -0.164  -2.804   5.885  0.00  0.00    -0.308 N 
ATOM      4  C   UNL     1       0.413  -1.769   5.243  0.00  0.00    +0.227 C 
ATOM      5  O   UNL     1       0.605  -0.724   5.827  0.00  0.00    -0.275 OA
ATOM      6  H   UNL     1      -0.318  -3.640   5.418  0.00  0.00    +0.149 HD
BRANCH   3   8
ATOM      7  C   UNL     1      -1.972  -2.084   7.367  0.00  0.00    +0.033 C 
ATOM      8  C   UNL     1      -0.559  -2.666   7.289  0.00  0.00    +0.102 C 
BRANCH   8   9
ATOM      9  C   UNL     1      -0.535  -4.018   7.953  0.00  0.00    -0.009 A 
ATOM     10  C   UNL     1      -0.736  -5.161   7.201  0.00  0.00    +0.008 A 
ATOM     11  C   UNL     1      -0.714  -6.402   7.809  0.00  0.00    +0.020 A 
ATOM     12  C   UNL     1      -0.492  -6.501   9.171  0.00  0.00    +0.042 A 
ATOM     13  C   UNL     1      -0.291  -5.359   9.924  0.00  0.00    +0.040 A 
ATOM     14  C   UNL     1      -0.307  -4.117   9.314  0.00  0.00    +0.047 A 
ATOM     15 CL   UNL     1      -0.048  -2.683  10.257  0.00  0.00    -0.083 Cl
ATOM     16 CL   UNL     1      -0.465  -8.060   9.935  0.00  0.00    -0.083 Cl
ENDBRANCH   8   9
ENDBRANCH   3   8
ENDBRANCH   1   4
BRANCH   1  17
ATOM     17  S   UNL     1       0.999  -0.269   3.058  0.00  0.00    -0.072 S 
BRANCH  17  18
ATOM     18  C   UNL     1       1.317  -0.721   1.385  0.00  0.00    +0.209 A 
ATOM     19  N   UNL     1       1.386  -1.943   0.908  0.00  0.00    -0.120 NA
ATOM     20  N   UNL     1       1.634  -1.913  -0.353  0.00  0.00    -0.123 NA
ATOM     21  C   UNL     1       1.734  -0.667  -0.761  0.00  0.00    +0.217 A 
ATOM     22  N   UNL     1       1.540   0.135   0.343  0.00  0.00    -0.221 N 
BRANCH  21  23
ATOM     23  C   UNL     1       2.006  -0.215  -2.134  0.00  0.00    +0.173 A 
ATOM     24  C   UNL     1       2.481  -0.987  -3.151  0.00  0.00    +0.053 A 
ATOM     25  C   UNL     1       2.586  -0.151  -4.280  0.00  0.00    +0.042 A 
ATOM     26  C   UNL     1       2.183   1.079  -3.900  0.00  0.00    +0.196 A 
ATOM     27  O   UNL     1       1.833   1.037  -2.604  0.00  0.00    -0.460 OA
ENDBRANCH  21  23
BRANCH  22  28
ATOM     28  N   UNL     1       1.559   1.500   0.385  0.00  0.00    -0.294 N 
ATOM     29  H   UNL     1       2.488   1.843   0.577  0.00  0.00    +0.163 HD
ATOM     30  H   UNL     1       1.199   1.893  -0.472  0.00  0.00    +0.163 HD
ENDBRANCH  22  28
ENDBRANCH  17  18
ENDBRANCH   1  17
TORSDOF 7
