REMARK  Name = ZINC09723387
REMARK  7 active torsions:
REMARK  status: ('A' for Active; 'I' for Inactive)
REMARK    1  A    between atoms: C_1  and  O_2
REMARK    2  A    between atoms: O_2  and  C_3
REMARK    3  A    between atoms: C_8  and  O_9
REMARK    4  A    between atoms: O_9  and  C_10
REMARK    5  A    between atoms: C_11  and  C_25
REMARK    6  A    between atoms: C_15  and  C_16
REMARK    7  A    between atoms: C_15  and  N_51
REMARK                            x       y       z     vdW  Elec       q    Type
REMARK                         _______ _______ _______ _____ _____    ______ ____
ROOT
ATOM      1  C   UNL     1       2.215   4.794  -4.005  0.00  0.00    +0.162 A 
ATOM      2  C   UNL     1       2.962   5.308  -2.960  0.00  0.00    +0.053 A 
ATOM      3  C   UNL     1       2.713   4.909  -1.656  0.00  0.00    -0.043 A 
ATOM      4  C   UNL     1       1.712   3.997  -1.394  0.00  0.00    -0.049 A 
ATOM      5  C   UNL     1       0.961   3.478  -2.438  0.00  0.00    +0.052 A 
ATOM      6  C   UNL     1       1.207   3.871  -3.741  0.00  0.00    +0.162 A 
ATOM      7  C   UNL     1       1.402   3.539   0.007  0.00  0.00    +0.001 C 
ATOM      8  C   UNL     1       2.885   5.265   0.799  0.00  0.00    -0.072 C 
ATOM      9  C   UNL     1       3.561   5.491  -0.554  0.00  0.00    +0.017 C 
ATOM     10  N   UNL     1       2.538   3.833   0.897  0.00  0.00    +0.392 N 
ATOM     11  H   UNL     1       3.346   3.271   0.605  0.00  0.00    -0.080 HD
ENDROOT
BRANCH   7  12
ATOM     12  C   UNL     1       1.160   2.051   0.002  0.00  0.00    -0.019 A 
ATOM     13  C   UNL     1      -0.017   1.378   0.010  0.00  0.00    +0.010 A 
ATOM     14  C   UNL     1       0.002  -0.004   0.002  0.00  0.00    +0.008 A 
ATOM     15  C   UNL     1       1.196  -0.645  -0.013  0.00  0.00    +0.045 A 
ATOM     16  S   UNL     1       2.348   0.719  -0.017  0.00  0.00    -0.103 S 
ENDBRANCH   7  12
BRANCH   1  18
ATOM     17  C   UNL     1       3.513   6.138  -5.475  0.00  0.00    +0.277 C 
ATOM     18  O   UNL     1       2.463   5.188  -5.282  0.00  0.00    -0.491 OA
ENDBRANCH   1  18
BRANCH   6  19
ATOM     19  O   UNL     1       0.468   3.357  -4.761  0.00  0.00    -0.491 OA
ATOM     20  C   UNL     1      -0.548   2.414  -4.415  0.00  0.00    +0.277 C 
ENDBRANCH   6  19
BRANCH  10  21
ATOM     21  C   UNL     1       2.190   3.489   2.294  0.00  0.00    -0.013 C 
BRANCH  21  22
ATOM     22  C   UNL     1       3.430   3.583   3.144  0.00  0.00    +0.063 A 
ATOM     23  N   UNL     1       3.887   4.615   3.796  0.00  0.00    -0.246 NA
ATOM     24  C   UNL     1       5.018   4.566   4.530  0.00  0.00    +0.078 A 
ATOM     25  C   UNL     1       5.632   5.587   5.289  0.00  0.00    +0.029 A 
ATOM     26  C   UNL     1       6.787   5.348   5.968  0.00  0.00    +0.002 A 
ATOM     27  C   UNL     1       7.404   4.105   5.942  0.00  0.00    +0.001 A 
ATOM     28  C   UNL     1       6.834   3.080   5.211  0.00  0.00    +0.017 A 
ATOM     29  C   UNL     1       5.668   3.310   4.522  0.00  0.00    +0.039 A 
ATOM     30  S   UNL     1       4.599   2.345   3.484  0.00  0.00    -0.074 S 
ENDBRANCH  21  22
ENDBRANCH  10  21
TORSDOF 5
