REMARK  Name = ZINC32887454
REMARK  7 active torsions:
REMARK  status: ('A' for Active; 'I' for Inactive)
REMARK    1  A    between atoms: C_1  and  C_2
REMARK    2  A    between atoms: C_2  and  C_4
REMARK    3  A    between atoms: C_2  and  N_20
REMARK    4  A    between atoms: N_6  and  C_7
REMARK    5  A    between atoms: C_7  and  C_8
REMARK    6  A    between atoms: N_10  and  C_11
REMARK    7  A    between atoms: C_22  and  C_25
REMARK                            x       y       z     vdW  Elec       q    Type
REMARK                         _______ _______ _______ _____ _____    ______ ____
ROOT
ATOM      1  C   UNL     1       3.895   7.507   0.427  0.00  0.00    +0.240 C 
ATOM      2  O   UNL     1       2.962   8.281   0.459  0.00  0.00    -0.273 OA
ATOM      3  N   UNL     1       3.669   6.183   0.312  0.00  0.00    -0.305 N 
ATOM      4  H   UNL     1       4.516   5.481   0.283  0.00  0.00    +0.149 HD
ENDROOT
BRANCH   1   6
ATOM      5  C   UNL     1       5.995   7.425   1.744  0.00  0.00    +0.044 C 
ATOM      6  C   UNL     1       5.308   8.025   0.516  0.00  0.00    +0.212 C 
BRANCH   6   7
ATOM      7  N   UNL     1       5.285   9.485   0.634  0.00  0.00    -0.151 N 
ATOM      8  N   UNL     1       5.830  10.308  -0.195  0.00  0.00    -0.130 NA
ATOM      9  C   UNL     1       5.601  11.531   0.242  0.00  0.00    +0.205 A 
ATOM     10  N   UNL     1       4.893  11.408   1.374  0.00  0.00    -0.108 NA
ATOM     11  N   UNL     1       4.714  10.147   1.579  0.00  0.00    -0.045 NA
BRANCH   9  12
ATOM     12  C   UNL     1       6.041  12.797  -0.396  0.00  0.00    +0.023 A 
ATOM     13  C   UNL     1       6.780  12.765  -1.576  0.00  0.00    +0.013 A 
ATOM     14  C   UNL     1       7.183  13.945  -2.168  0.00  0.00    +0.016 A 
ATOM     15  C   UNL     1       6.863  15.159  -1.584  0.00  0.00    +0.018 A 
ATOM     16  C   UNL     1       6.133  15.196  -0.409  0.00  0.00    +0.016 A 
ATOM     17  C   UNL     1       5.721  14.021   0.188  0.00  0.00    +0.013 A 
ATOM     18 BR   UNL     1       7.424  16.772  -2.396  0.00  0.00    -0.050 Br
ENDBRANCH   9  12
ENDBRANCH   6   7
ENDBRANCH   1   6
BRANCH   3  19
ATOM     19  C   UNL     1       2.296   5.679   0.225  0.00  0.00    +0.200 C 
BRANCH  19  20
ATOM     20  C   UNL     1       2.319   4.177   0.104  0.00  0.00    +0.234 C 
ATOM     21  O   UNL     1       3.378   3.586   0.091  0.00  0.00    -0.274 OA
ATOM     22  N   UNL     1       1.163   3.491   0.009  0.00  0.00    -0.282 N 
ATOM     23  H   UNL     1       0.208   4.031  -0.071  0.00  0.00    +0.155 HD
BRANCH  22  24
ATOM     24  C   UNL     1       1.178   2.090   0.013  0.00  0.00    +0.072 A 
ATOM     25  C   UNL     1       2.230   1.407   0.608  0.00  0.00    +0.029 A 
ATOM     26  C   UNL     1       2.244   0.026   0.611  0.00  0.00    +0.043 A 
ATOM     27  C   UNL     1       1.210  -0.680   0.022  0.00  0.00    +0.161 A 
ATOM     28  C   UNL     1       0.156  -0.003  -0.574  0.00  0.00    +0.195 A 
ATOM     29  C   UNL     1       0.139   1.381  -0.579  0.00  0.00    +0.182 A 
ATOM     30  F   UNL     1      -0.884   2.043  -1.163  0.00  0.00    -0.200 F 
ATOM     31  F   UNL     1      -0.852  -0.694  -1.149  0.00  0.00    -0.199 F 
ATOM     32  F   UNL     1       1.226  -2.031   0.026  0.00  0.00    -0.202 F 
ENDBRANCH  22  24
ENDBRANCH  19  20
ENDBRANCH   3  19
TORSDOF 6
