REMARK  Name = ZINC04917359
REMARK  6 active torsions:
REMARK  status: ('A' for Active; 'I' for Inactive)
REMARK    1  A    between atoms: C_1  and  C_2
REMARK    2  A    between atoms: C_9  and  N_19
REMARK    3  A    between atoms: N_19  and  C_20
REMARK    4  A    between atoms: C_21  and  C_28
REMARK    5  A    between atoms: C_23  and  C_27
REMARK    6  A    between atoms: C_25  and  C_26
REMARK                            x       y       z     vdW  Elec       q    Type
REMARK                         _______ _______ _______ _____ _____    ______ ____
ROOT
ATOM      1  C   UNL     1       4.741   0.353   0.885  0.00  0.00    +0.045 C 
ATOM      2  C   UNL     1       3.311   0.828   0.836  0.00  0.00    -0.032 A 
ATOM      3  C   UNL     1       3.024   2.167   0.609  0.00  0.00    +0.008 A 
ATOM      4  C   UNL     1       1.699   2.561   0.572  0.00  0.00    +0.044 A 
ATOM      5  C   UNL     1       0.704   1.607   0.761  0.00  0.00    +0.129 A 
ATOM      6  N   UNL     1       1.018   0.339   0.975  0.00  0.00    -0.240 NA
ATOM      7  C   UNL     1       2.274  -0.065   1.016  0.00  0.00    +0.116 A 
ATOM      8  N   UNL     1      -0.635   1.989   0.720  0.00  0.00    -0.229 N 
ATOM      9  C   UNL     1      -1.132   3.330   0.392  0.00  0.00    +0.200 C 
ATOM     10  C   UNL     1      -2.636   3.255   0.477  0.00  0.00    +0.003 A 
ATOM     11  C   UNL     1      -3.638   4.177   0.280  0.00  0.00    +0.008 A 
ATOM     12  C   UNL     1      -4.962   3.802   0.435  0.00  0.00    +0.000 A 
ATOM     13  C   UNL     1      -5.281   2.503   0.788  0.00  0.00    +0.001 A 
ATOM     14  C   UNL     1      -4.284   1.571   0.987  0.00  0.00    +0.013 A 
ATOM     15  C   UNL     1      -2.946   1.941   0.833  0.00  0.00    +0.044 A 
ATOM     16  C   UNL     1      -1.685   1.188   0.969  0.00  0.00    +0.254 C 
ATOM     17  O   UNL     1      -1.607   0.012   1.267  0.00  0.00    -0.270 OA
ENDROOT
BRANCH   9  18
ATOM     18  N   UNL     1      -0.720   3.703  -0.968  0.00  0.00    -0.321 N 
ATOM     19  H   UNL     1      -1.495   4.083  -1.489  0.00  0.00    +0.148 HD
BRANCH  18  20
ATOM     20  C   UNL     1       0.352   4.598  -0.938  0.00  0.00    +0.035 A 
ATOM     21  C   UNL     1       0.227   5.812  -0.275  0.00  0.00    -0.029 A 
ATOM     22  C   UNL     1       1.290   6.693  -0.243  0.00  0.00    +0.008 A 
ATOM     23  C   UNL     1       2.475   6.372  -0.881  0.00  0.00    -0.050 A 
ATOM     24  C   UNL     1       2.601   5.167  -1.547  0.00  0.00    +0.008 A 
ATOM     25  C   UNL     1       1.543   4.279  -1.578  0.00  0.00    -0.029 A 
ATOM     26  C   UNL     1       1.682   2.966  -2.304  0.00  0.00    +0.045 C 
ATOM     27  C   UNL     1       3.631   7.338  -0.849  0.00  0.00    +0.044 C 
ATOM     28  C   UNL     1      -1.065   6.165   0.415  0.00  0.00    +0.045 C 
ENDBRANCH  18  20
ENDBRANCH   9  18
TORSDOF 2
