REMARK  Name = ZINC51357048
REMARK  4 active torsions:
REMARK  status: ('A' for Active; 'I' for Inactive)
REMARK    1  A    between atoms: C_5  and  O_20
REMARK    2  A    between atoms: C_6  and  C_7
REMARK    3  A    between atoms: C_7  and  N_8
REMARK    4  A    between atoms: C_12  and  C_14
REMARK                            x       y       z     vdW  Elec       q    Type
REMARK                         _______ _______ _______ _____ _____    ______ ____
ROOT
ATOM      1  N   UNL     1      -1.640  -1.134   1.393  0.00  0.00    +0.385 N 
ATOM      2  C   UNL     1      -0.577  -1.990   1.963  0.00  0.00    -0.078 C 
ATOM      3  C   UNL     1      -1.325  -3.003   2.865  0.00  0.00    -0.020 C 
ATOM      4  C   UNL     1      -2.613  -3.265   2.040  0.00  0.00    -0.016 C 
ATOM      5  C   UNL     1      -2.907  -1.888   1.408  0.00  0.00    -0.051 C 
ATOM      6  H   UNL     1      -1.735  -0.298   1.950  0.00  0.00    -0.081 HD
ENDROOT
BRANCH   5   7
ATOM      7  C   UNL     1      -3.947  -1.141   2.246  0.00  0.00    +0.040 C 
ATOM      8  C   UNL     1      -5.310  -1.859   2.153  0.00  0.00    +0.018 C 
ATOM      9  C   UNL     1      -6.321  -0.683   2.104  0.00  0.00    +0.017 C 
ATOM     10  C   UNL     1      -5.538   0.369   1.280  0.00  0.00    +0.081 C 
ATOM     11  N   UNL     1      -4.130   0.223   1.719  0.00  0.00    -0.315 NA
ATOM     12  H   UNL     1      -3.893   0.915   2.414  0.00  0.00    +0.122 HD
ENDBRANCH   5   7
BRANCH   1  13
ATOM     13  C   UNL     1      -1.295  -0.773   0.011  0.00  0.00    -0.039 C 
BRANCH  13  19
ATOM     14  C   UNL     1       1.149  -0.403  -0.377  0.00  0.00    +0.025 A 
ATOM     15  C   UNL     1       2.271   0.406  -0.376  0.00  0.00    +0.043 A 
ATOM     16  C   UNL     1       2.172   1.730   0.014  0.00  0.00    +0.043 A 
ATOM     17  C   UNL     1       0.951   2.247   0.404  0.00  0.00    +0.084 A 
ATOM     18  C   UNL     1      -0.176   1.436   0.404  0.00  0.00    +0.137 A 
ATOM     19  C   UNL     1      -0.074   0.109   0.013  0.00  0.00    -0.020 A 
ATOM     20 CL   UNL     1       0.826   3.907   0.894  0.00  0.00    -0.080 Cl
ATOM     21 CL   UNL     1       3.806  -0.240  -0.866  0.00  0.00    -0.083 Cl
BRANCH  18  22
ATOM     22  O   UNL     1      -1.378   1.942   0.788  0.00  0.00    -0.505 OA
ATOM     23  H   UNL     1      -1.861   2.389   0.080  0.00  0.00    +0.292 HD
ENDBRANCH  18  22
ENDBRANCH  13  19
ENDBRANCH   1  13
TORSDOF 4
