REMARK  Name = ZINC01463260
REMARK  5 active torsions:
REMARK  status: ('A' for Active; 'I' for Inactive)
REMARK    1  A    between atoms: C_1  and  C_2
REMARK    2  A    between atoms: N_7  and  C_8
REMARK    3  A    between atoms: C_8  and  C_10
REMARK    4  A    between atoms: C_8  and  C_17
REMARK    5  A    between atoms: C_26  and  O_27
REMARK                            x       y       z     vdW  Elec       q    Type
REMARK                         _______ _______ _______ _____ _____    ______ ____
ROOT
ATOM      1  C   UNL     1      -0.013   1.086   0.008  0.00  0.00    +0.136 C 
ENDROOT
BRANCH   1   2
ATOM      2  C   UNL     1      -0.709   1.417  -1.287  0.00  0.00    +0.021 A 
ATOM      3  C   UNL     1      -0.154   2.366  -2.141  0.00  0.00    +0.010 A 
ATOM      4  C   UNL     1      -0.759   2.688  -3.318  0.00  0.00    +0.010 A 
ATOM      5  C   UNL     1      -1.959   2.054  -3.680  0.00  0.00    +0.004 A 
ATOM      6  C   UNL     1      -2.613   2.360  -4.888  0.00  0.00    +0.011 A 
ATOM      7  C   UNL     1      -3.777   1.705  -5.175  0.00  0.00    +0.020 A 
ATOM      8  C   UNL     1      -4.283   0.765  -4.280  0.00  0.00    +0.111 A 
ATOM      9  N   UNL     1      -3.671   0.483  -3.156  0.00  0.00    -0.251 NA
ATOM     10  C   UNL     1      -2.529   1.087  -2.817  0.00  0.00    +0.113 A 
ATOM     11  C   UNL     1      -1.872   0.776  -1.607  0.00  0.00    +0.148 A 
BRANCH  11  12
ATOM     12  O   UNL     1      -2.396  -0.151  -0.764  0.00  0.00    -0.504 OA
ATOM     13  H   UNL     1      -3.009   0.212  -0.111  0.00  0.00    +0.292 HD
ENDBRANCH  11  12
ENDBRANCH   1   2
BRANCH   1  20
ATOM     14  C   UNL     1       3.520  -1.818   3.105  0.00  0.00    +0.089 C 
ATOM     15  C   UNL     1       3.245  -0.769   2.058  0.00  0.00    +0.136 A 
ATOM     16  C   UNL     1       2.033  -0.383   1.601  0.00  0.00    +0.090 A 
ATOM     17  C   UNL     1       2.333   0.616   0.636  0.00  0.00    +0.162 A 
ATOM     18  N   UNL     1       3.636   0.728   0.621  0.00  0.00    -0.063 NA
ATOM     19  O   UNL     1       4.155  -0.033   1.404  0.00  0.00    -0.358 OA
ATOM     20  N   UNL     1       1.424   1.335  -0.133  0.00  0.00    -0.315 N 
ATOM     21  H   UNL     1       1.741   2.001  -0.763  0.00  0.00    +0.148 HD
ENDBRANCH   1  20
BRANCH   1  22
ATOM     22  C   UNL     1      -0.567   1.950   1.111  0.00  0.00    -0.022 A 
ATOM     23  C   UNL     1      -0.128   3.253   1.255  0.00  0.00    +0.006 A 
ATOM     24  C   UNL     1      -0.640   4.048   2.263  0.00  0.00    +0.001 A 
ATOM     25  C   UNL     1      -1.582   3.537   3.136  0.00  0.00    +0.015 A 
ATOM     26  C   UNL     1      -2.017   2.231   2.996  0.00  0.00    +0.018 A 
ATOM     27  C   UNL     1      -1.508   1.438   1.983  0.00  0.00    +0.021 A 
ATOM     28 BR   UNL     1      -3.305   1.530   4.190  0.00  0.00    -0.050 Br
ENDBRANCH   1  22
TORSDOF 4
