REMARK  Name = ZINC62495551
REMARK  3 active torsions:
REMARK  status: ('A' for Active; 'I' for Inactive)
REMARK    1  A    between atoms: C_6  and  C_7
REMARK    2  A    between atoms: C_7  and  C_8
REMARK    3  A    between atoms: C_15  and  O_20
REMARK                            x       y       z     vdW  Elec       q    Type
REMARK                         _______ _______ _______ _____ _____    ______ ____
ROOT
ATOM      1  C   UNL     1      -1.745  -1.028  -1.429  0.00  0.00    +0.263 C 
ATOM      2  C   UNL     1      -2.972  -1.905  -1.422  0.00  0.00    +0.258 C 
ATOM      3  O   UNL     1      -2.860  -3.109  -1.515  0.00  0.00    -0.271 OA
ATOM      4  N   UNL     1      -4.195  -1.344  -1.314  0.00  0.00    -0.279 N 
ATOM      5  C   UNL     1      -4.312   0.052  -1.336  0.00  0.00    +0.079 A 
ATOM      6  C   UNL     1      -5.509   0.663  -1.002  0.00  0.00    +0.072 A 
ATOM      7  C   UNL     1      -5.605   2.047  -1.016  0.00  0.00    +0.119 A 
ATOM      8  C   UNL     1      -4.505   2.816  -1.363  0.00  0.00    +0.049 A 
ATOM      9  C   UNL     1      -3.310   2.208  -1.703  0.00  0.00    +0.051 A 
ATOM     10  C   UNL     1      -3.211   0.827  -1.696  0.00  0.00    +0.143 A 
ATOM     11  O   UNL     1      -2.050   0.219  -2.058  0.00  0.00    -0.477 OA
ATOM     12  H   UNL     1      -4.984  -1.901  -1.222  0.00  0.00    +0.155 HD
ENDROOT
BRANCH   7  13
ATOM     13  O   UNL     1      -6.779   2.650  -0.689  0.00  0.00    -0.507 OA
ATOM     14  H   UNL     1      -6.870   2.850   0.253  0.00  0.00    +0.292 HD
ENDBRANCH   7  13
BRANCH   1  15
ATOM     15  C   UNL     1      -1.293  -0.775   0.011  0.00  0.00    +0.089 C 
BRANCH  15  21
ATOM     16  C   UNL     1      -0.017   1.378   0.010  0.00  0.00    +0.005 A 
ATOM     17  C   UNL     1       1.171   2.086   0.002  0.00  0.00    +0.020 A 
ATOM     18  C   UNL     1       2.378   1.410  -0.013  0.00  0.00    +0.041 A 
ATOM     19  C   UNL     1       2.396   0.027  -0.021  0.00  0.00    +0.020 A 
ATOM     20  C   UNL     1       1.208  -0.679  -0.013  0.00  0.00    +0.005 A 
ATOM     21  C   UNL     1       0.002  -0.004   0.002  0.00  0.00    -0.043 A 
ATOM     22 CL   UNL     1       3.870   2.298  -0.023  0.00  0.00    -0.084 Cl
ENDBRANCH  15  21
ENDBRANCH   1  15
TORSDOF 3
