REMARK  Name = ZINC67044257
REMARK  4 active torsions:
REMARK  status: ('A' for Active; 'I' for Inactive)
REMARK    1  A    between atoms: C_6  and  C_7
REMARK    2  A    between atoms: N_16  and  C_17
REMARK    3  A    between atoms: C_17  and  C_18
REMARK    4  A    between atoms: C_18  and  C_19
REMARK                            x       y       z     vdW  Elec       q    Type
REMARK                         _______ _______ _______ _____ _____    ______ ____
ROOT
ATOM      1  C   UNL     1      -1.295  -0.772   0.010  0.00  0.00    +0.166 C 
ATOM      2  C   UNL     1      -1.654  -1.153   1.450  0.00  0.00    +0.145 C 
ATOM      3  N   UNL     1      -2.814  -2.059   1.415  0.00  0.00    -0.281 N 
ATOM      4  C   UNL     1      -2.753  -3.225   0.519  0.00  0.00    +0.137 C 
ATOM      5  C   UNL     1      -2.341  -2.742  -0.876  0.00  0.00    +0.179 C 
ATOM      6  O   UNL     1      -1.148  -1.960  -0.771  0.00  0.00    -0.369 OA
ATOM      7  C   UNL     1      -3.898  -1.827   2.180  0.00  0.00    +0.302 C 
ATOM      8  O   UNL     1      -3.894  -0.912   2.980  0.00  0.00    -0.253 OA
ATOM      9  N   UNL     1      -4.989  -2.611   2.059  0.00  0.00    -0.299 N 
ATOM     10  H   UNL     1      -4.967  -3.385   1.475  0.00  0.00    +0.150 HD
ENDROOT
BRANCH   1  16
ATOM     11  C   UNL     1      -0.018   1.381   0.011  0.00  0.00    +0.009 A 
ATOM     12  C   UNL     1       1.168   2.090   0.003  0.00  0.00    +0.041 A 
ATOM     13  C   UNL     1       2.377   1.416  -0.014  0.00  0.00    +0.158 A 
ATOM     14  C   UNL     1       2.396   0.029  -0.023  0.00  0.00    +0.159 A 
ATOM     15  C   UNL     1       1.206  -0.677  -0.016  0.00  0.00    +0.047 A 
ATOM     16  C   UNL     1       0.000  -0.001   0.001  0.00  0.00    -0.015 A 
ATOM     17  F   UNL     1       3.574  -0.631  -0.040  0.00  0.00    -0.202 F 
ATOM     18  F   UNL     1       3.537   2.108  -0.022  0.00  0.00    -0.202 F 
ENDBRANCH   1  16
BRANCH   9  19
ATOM     19  C   UNL     1      -6.206  -2.293   2.809  0.00  0.00    +0.112 C 
BRANCH  19  20
ATOM     20  C   UNL     1      -7.285  -3.331   2.494  0.00  0.00    +0.073 C 
BRANCH  20  21
ATOM     21  C   UNL     1      -8.537  -3.004   3.265  0.00  0.00    +0.035 A 
ATOM     22  C   UNL     1      -8.801  -3.365   4.538  0.00  0.00    +0.108 A 
ATOM     23  N   UNL     1     -10.033  -2.865   4.839  0.00  0.00    -0.336 N 
ATOM     24  C   UNL     1     -10.486  -2.215   3.741  0.00  0.00    +0.087 A 
ATOM     25  N   UNL     1      -9.584  -2.297   2.808  0.00  0.00    -0.347 N 
ATOM     26  C   UNL     1     -11.824  -1.519   3.664  0.00  0.00    +0.072 C 
ATOM     27  C   UNL     1     -12.689  -2.012   4.832  0.00  0.00    +0.009 C 
ATOM     28  C   UNL     1     -11.879  -1.933   6.129  0.00  0.00    +0.022 C 
ATOM     29  C   UNL     1     -10.765  -2.986   6.102  0.00  0.00    +0.123 C 
ATOM     30  H   UNL     1      -9.656  -1.911   1.921  0.00  0.00    +0.167 HD
ENDBRANCH  20  21
ENDBRANCH  19  20
ENDBRANCH   9  19
TORSDOF 4
