REMARK  Name = ZINC15326574
REMARK  10 active torsions:
REMARK  status: ('A' for Active; 'I' for Inactive)
REMARK    1  A    between atoms: C_1  and  C_2
REMARK    2  A    between atoms: C_4  and  C_22
REMARK    3  A    between atoms: C_7  and  O_8
REMARK    4  A    between atoms: O_8  and  S_9
REMARK    5  A    between atoms: S_9  and  C_12
REMARK    6  A    between atoms: C_15  and  S_18
REMARK    7  A    between atoms: S_18  and  N_21
REMARK    8  A    between atoms: C_22  and  C_23
REMARK    9  A    between atoms: C_22  and  C_24
REMARK   10  A    between atoms: C_22  and  C_25
REMARK                            x       y       z     vdW  Elec       q    Type
REMARK                         _______ _______ _______ _____ _____    ______ ____
ROOT
ATOM      1  S   UNL     1       2.690   0.869   1.265  0.00  0.00    +0.151 S 
ATOM      2  O   UNL     1       4.018   0.386   1.117  0.00  0.00    -0.131 OA
ATOM      3  O   UNL     1       2.383   2.033   2.021  0.00  0.00    -0.131 OA
ENDROOT
BRANCH   1   4
ATOM      4  C   UNL     1       1.749  -0.447   1.962  0.00  0.00    +0.128 A 
ATOM      5  C   UNL     1       0.672  -0.168   2.782  0.00  0.00    +0.032 A 
ATOM      6  C   UNL     1      -0.069  -1.201   3.325  0.00  0.00    +0.030 A 
ATOM      7  C   UNL     1       0.273  -2.513   3.055  0.00  0.00    +0.105 A 
ATOM      8  C   UNL     1       1.353  -2.792   2.239  0.00  0.00    +0.030 A 
ATOM      9  C   UNL     1       2.092  -1.759   1.692  0.00  0.00    +0.032 A 
BRANCH   7  10
ATOM     10  S   UNL     1      -0.669  -3.830   3.751  0.00  0.00    +0.056 S 
ATOM     11  O   UNL     1      -1.956  -3.301   4.036  0.00  0.00    -0.153 OA
ATOM     12  O   UNL     1      -0.477  -4.956   2.906  0.00  0.00    -0.153 OA
BRANCH  10  13
ATOM     13  N   UNL     1       0.021  -4.208   5.208  0.00  0.00    -0.204 NA
ATOM     14  H   UNL     1       0.801  -3.721   5.516  0.00  0.00    +0.144 HD
ATOM     15  H   UNL     1      -0.355  -4.917   5.753  0.00  0.00    +0.144 HD
ENDBRANCH  10  13
ENDBRANCH   7  10
ENDBRANCH   1   4
BRANCH   1  16
ATOM     16  O   UNL     1       2.156   1.110  -0.140  0.00  0.00    -0.342 OA
BRANCH  16  23
ATOM     17  C   UNL     1       2.179   3.914  -0.484  0.00  0.00    +0.047 C 
ATOM     18  C   UNL     1       0.904   3.123  -0.340  0.00  0.00    -0.006 A 
ATOM     19  C   UNL     1      -0.318   3.768  -0.373  0.00  0.00    +0.011 A 
ATOM     20  C   UNL     1      -1.487   3.043  -0.241  0.00  0.00    -0.042 A 
ATOM     21  C   UNL     1      -1.438   1.670  -0.080  0.00  0.00    +0.008 A 
ATOM     22  C   UNL     1      -0.219   1.021  -0.040  0.00  0.00    +0.049 A 
ATOM     23  C   UNL     1       0.956   1.747  -0.173  0.00  0.00    +0.160 A 
BRANCH  20  24
ATOM     24  C   UNL     1      -2.818   3.749  -0.278  0.00  0.00    -0.013 C 
ATOM     25  C   UNL     1      -2.977   4.466  -1.620  0.00  0.00    +0.015 C 
ATOM     26  C   UNL     1      -3.943   2.725  -0.111  0.00  0.00    +0.015 C 
ATOM     27  C   UNL     1      -2.885   4.771   0.858  0.00  0.00    +0.015 C 
ENDBRANCH  20  24
ENDBRANCH  16  23
ENDBRANCH   1  16
TORSDOF 6
