REMARK  Name = ZINC06727860
REMARK  8 active torsions:
REMARK  status: ('A' for Active; 'I' for Inactive)
REMARK    1  A    between atoms: C_1  and  C_2
REMARK    2  A    between atoms: C_2  and  C_3
REMARK    3  A    between atoms: C_2  and  O_4
REMARK    4  A    between atoms: O_4  and  C_5
REMARK    5  A    between atoms: C_5  and  C_7
REMARK    6  A    between atoms: C_8  and  N_27
REMARK    7  A    between atoms: C_23  and  C_25
REMARK    8  A    between atoms: C_23  and  C_26
REMARK                            x       y       z     vdW  Elec       q    Type
REMARK                         _______ _______ _______ _____ _____    ______ ____
ROOT
ATOM      1  C   UNL     1       1.073  -2.048  -0.724  0.00  0.00    +0.119 A 
ATOM      2  C   UNL     1       2.108  -2.798  -1.243  0.00  0.00    +0.055 A 
ATOM      3  C   UNL     1       2.027  -4.246  -1.145  0.00  0.00    +0.031 A 
ATOM      4  C   UNL     1       2.958  -5.216  -1.604  0.00  0.00    -0.025 A 
ATOM      5  C   UNL     1       2.702  -6.535  -1.410  0.00  0.00    +0.020 A 
ATOM      6  C   UNL     1       1.520  -6.930  -0.767  0.00  0.00    +0.105 A 
ATOM      7  C   UNL     1       0.866  -4.741  -0.510  0.00  0.00    +0.089 A 
ATOM      8  S   UNL     1      -0.043  -3.278  -0.077  0.00  0.00    -0.062 S 
ATOM      9  N   UNL     1       1.262  -8.279  -0.574  0.00  0.00    -0.312 N 
ATOM     10  C   UNL     1       0.104  -8.713  -1.369  0.00  0.00    +0.134 C 
ATOM     11  C   UNL     1      -0.108 -10.217  -1.172  0.00  0.00    +0.178 C 
ATOM     12  O   UNL     1      -0.276 -10.491   0.222  0.00  0.00    -0.377 OA
ATOM     13  C   UNL     1       0.833 -10.081   1.026  0.00  0.00    +0.178 C 
ATOM     14  C   UNL     1       1.056  -8.576   0.851  0.00  0.00    +0.134 C 
ATOM     15  C   UNL     1       3.665  -7.600  -1.868  0.00  0.00    +0.199 C 
ATOM     16  O   UNL     1       4.592  -7.056  -2.807  0.00  0.00    -0.369 OA
ATOM     17  C   UNL     1       5.238  -5.867  -2.340  0.00  0.00    +0.068 C 
ATOM     18  C   UNL     1       4.203  -4.739  -2.302  0.00  0.00    +0.070 C 
ATOM     19  C   UNL     1       5.795  -6.101  -0.934  0.00  0.00    +0.041 C 
ATOM     20  C   UNL     1       6.376  -5.490  -3.290  0.00  0.00    +0.041 C 
ATOM     21  N   UNL     1       0.586  -6.051  -0.310  0.00  0.00    -0.337 N 
ATOM     22  H   UNL     1      -0.275  -6.361   0.156  0.00  0.00    +0.168 HD
ENDROOT
BRANCH   2  23
ATOM     23  N   UNL     1       3.198  -2.186  -1.844  0.00  0.00    -0.356 N 
ATOM     24  H   UNL     1       3.451  -1.285  -1.587  0.00  0.00    +0.142 HD
ATOM     25  H   UNL     1       3.708  -2.658  -2.521  0.00  0.00    +0.142 HD
ENDBRANCH   2  23
BRANCH   1  26
ATOM     26  C   UNL     1       0.934  -0.642  -0.703  0.00  0.00    +0.348 C 
ATOM     27  O   UNL     1       1.800   0.062  -1.188  0.00  0.00    -0.244 OA
BRANCH  26  28
ATOM     28  O   UNL     1      -0.160  -0.080  -0.145  0.00  0.00    -0.458 OA
BRANCH  28  30
ATOM     29  C   UNL     1      -0.936   1.808  -1.439  0.00  0.00    +0.052 C 
ATOM     30  C   UNL     1      -0.234   1.347  -0.160  0.00  0.00    +0.171 C 
ATOM     31  C   UNL     1      -1.026   1.829   1.058  0.00  0.00    +0.052 C 
ENDBRANCH  28  30
ENDBRANCH  26  28
ENDBRANCH   1  26
TORSDOF 4
