REMARK  Name = ZINC49193255
REMARK  11 active torsions:
REMARK  status: ('A' for Active; 'I' for Inactive)
REMARK    1  A    between atoms: C_1  and  C_2
REMARK    2  A    between atoms: N_8  and  C_9
REMARK    3  A    between atoms: C_9  and  C_11
REMARK    4  A    between atoms: C_9  and  C_12
REMARK    5  A    between atoms: C_12  and  N_13
REMARK    6  A    between atoms: N_16  and  C_17
REMARK    7  A    between atoms: C_17  and  C_18
REMARK    8  A    between atoms: C_23  and  O_24
REMARK    9  A    between atoms: O_24  and  C_25
REMARK   10  A    between atoms: C_25  and  C_26
REMARK   11  A    between atoms: C_25  and  C_27
REMARK                            x       y       z     vdW  Elec       q    Type
REMARK                         _______ _______ _______ _____ _____    ______ ____
ROOT
ATOM      1  N   UNL     1      -0.781   1.937   0.764  0.00  0.00    -0.301 N 
ATOM      2  C   UNL     1      -1.054   3.210   0.417  0.00  0.00    +0.300 C 
ATOM      3  O   UNL     1      -0.599   4.129   1.071  0.00  0.00    -0.253 OA
ATOM      4  N   UNL     1      -1.831   3.465  -0.654  0.00  0.00    -0.295 N 
ATOM      5  H   UNL     1      -1.083   1.206   0.203  0.00  0.00    +0.150 HD
ATOM      6  H   UNL     1      -2.253   2.734  -1.132  0.00  0.00    +0.151 HD
ENDROOT
BRANCH   1   7
ATOM      7  C   UNL     1      -0.028   1.656   1.989  0.00  0.00    +0.090 C 
BRANCH   7   8
ATOM      8  C   UNL     1       0.041   0.144   2.210  0.00  0.00    -0.054 C 
ATOM      9  C   UNL     1       0.906  -0.153   3.437  0.00  0.00    -0.012 C 
BRANCH   8  16
ATOM     10  C   UNL     1      -0.827  -2.416   1.451  0.00  0.00    -0.013 C 
ATOM     11  C   UNL     1       0.610  -1.954   1.201  0.00  0.00    -0.071 C 
ATOM     12  C   UNL     1       1.150  -2.630  -0.062  0.00  0.00    -0.016 C 
ATOM     13  C   UNL     1       2.588  -2.165  -0.308  0.00  0.00    -0.003 C 
ATOM     14  C   UNL     1       2.609  -0.637  -0.412  0.00  0.00    -0.019 C 
ATOM     15  C   UNL     1       2.016  -0.036   0.864  0.00  0.00    -0.078 C 
ATOM     16  N   UNL     1       0.632  -0.497   1.028  0.00  0.00    +0.384 N 
ATOM     17  H   UNL     1       0.096  -0.248   0.210  0.00  0.00    -0.081 HD
ENDBRANCH   8  16
ENDBRANCH   7   8
ENDBRANCH   1   7
BRANCH   4  18
ATOM     18  C   UNL     1      -2.038   4.846  -1.096  0.00  0.00    +0.146 C 
BRANCH  18  19
ATOM     19  C   UNL     1      -2.939   4.857  -2.304  0.00  0.00    +0.031 A 
ATOM     20  C   UNL     1      -2.406   4.979  -3.576  0.00  0.00    +0.012 A 
ATOM     21  C   UNL     1      -3.273   4.984  -4.659  0.00  0.00    +0.020 A 
ATOM     22  C   UNL     1      -4.631   4.868  -4.438  0.00  0.00    +0.114 A 
ATOM     23  N   UNL     1      -5.110   4.753  -3.214  0.00  0.00    -0.221 NA
ATOM     24  C   UNL     1      -4.315   4.738  -2.157  0.00  0.00    +0.220 A 
BRANCH  24  25
ATOM     25  O   UNL     1      -4.850   4.611  -0.916  0.00  0.00    -0.473 OA
BRANCH  25  26
ATOM     26  C   UNL     1      -6.271   4.493  -0.831  0.00  0.00    +0.169 C 
ATOM     27  C   UNL     1      -6.665   3.016  -0.899  0.00  0.00    +0.051 C 
ATOM     28  C   UNL     1      -6.754   5.090   0.492  0.00  0.00    +0.051 C 
ENDBRANCH  25  26
ENDBRANCH  24  25
ENDBRANCH  18  19
ENDBRANCH   4  18
TORSDOF 7
