REMARK  Name = ZINC11872017
REMARK  5 active torsions:
REMARK  status: ('A' for Active; 'I' for Inactive)
REMARK    1  A    between atoms: C_6  and  C_7
REMARK    2  A    between atoms: C_7  and  N_59
REMARK    3  A    between atoms: C_11  and  C_14
REMARK    4  A    between atoms: C_21  and  C_22
REMARK    5  A    between atoms: C_21  and  N_61
REMARK                            x       y       z     vdW  Elec       q    Type
REMARK                         _______ _______ _______ _____ _____    ______ ____
ROOT
ATOM      1  C   UNL     1      -5.020   5.760  -2.141  0.00  0.00    +0.005 A 
ATOM      2  C   UNL     1      -5.807   5.270  -3.166  0.00  0.00    +0.046 A 
ATOM      3  C   UNL     1      -6.488   4.074  -2.997  0.00  0.00    +0.122 A 
ATOM      4  C   UNL     1      -6.360   3.369  -1.815  0.00  0.00    -0.022 A 
ATOM      5  C   UNL     1      -5.579   3.859  -0.790  0.00  0.00    +0.007 A 
ATOM      6  C   UNL     1      -4.904   5.057  -0.956  0.00  0.00    -0.064 A 
ATOM      7  C   UNL     1      -7.063   2.034  -1.665  0.00  0.00    -0.039 C 
ATOM      8  C   UNL     1      -9.106   2.369  -2.947  0.00  0.00    -0.036 C 
ATOM      9  C   UNL     1      -8.696   3.616  -3.699  0.00  0.00    +0.210 C 
ATOM     10  O   UNL     1      -7.293   3.598  -3.987  0.00  0.00    -0.494 OA
ATOM     11  N   UNL     1      -8.521   2.294  -1.592  0.00  0.00    +0.387 N 
ATOM     12  H   UNL     1      -8.671   3.192  -1.117  0.00  0.00    -0.081 HD
ENDROOT
BRANCH   6  13
ATOM     13  C   UNL     1      -4.048   5.599   0.160  0.00  0.00    -0.043 C 
BRANCH  13  19
ATOM     14  C   UNL     1      -2.044   5.619  -1.198  0.00  0.00    -0.078 C 
ATOM     15  C   UNL     1      -0.577   5.188  -1.240  0.00  0.00    -0.018 C 
ATOM     16  C   UNL     1      -0.499   3.658  -1.226  0.00  0.00    +0.009 C 
ATOM     17  C   UNL     1      -1.208   3.131   0.025  0.00  0.00    +0.058 C 
ATOM     18  C   UNL     1      -2.657   3.622   0.029  0.00  0.00    -0.066 C 
ATOM     19  N   UNL     1      -2.663   5.100   0.040  0.00  0.00    +0.383 N 
ATOM     20  H   UNL     1      -2.119   5.429   0.847  0.00  0.00    -0.081 HD
BRANCH  17  21
ATOM     21  C   UNL     1      -1.187   1.624   0.017  0.00  0.00    +0.212 C 
ATOM     22  O   UNL     1      -2.229   1.003   0.018  0.00  0.00    -0.276 OA
ATOM     23  N   UNL     1      -0.011   0.966   0.007  0.00  0.00    -0.329 N 
ATOM     24  H   UNL     1       0.002  -0.004   0.002  0.00  0.00    +0.145 HD
ATOM     25  H   UNL     1       0.822   1.462   0.002  0.00  0.00    +0.145 HD
ENDBRANCH  17  21
ENDBRANCH  13  19
ENDBRANCH   6  13
BRANCH  11  26
ATOM     26  C   UNL     1      -9.184   1.231  -0.820  0.00  0.00    -0.041 C 
BRANCH  26  27
ATOM     27  C   UNL     1     -10.604   1.653  -0.545  0.00  0.00    -0.042 A 
ATOM     28  C   UNL     1     -11.646   1.058  -1.232  0.00  0.00    +0.052 A 
ATOM     29  C   UNL     1     -12.952   1.443  -0.982  0.00  0.00    +0.167 A 
ATOM     30  C   UNL     1     -13.214   2.432  -0.036  0.00  0.00    +0.168 A 
ATOM     31  C   UNL     1     -12.166   3.025   0.649  0.00  0.00    +0.069 A 
ATOM     32  C   UNL     1     -10.864   2.631   0.398  0.00  0.00    +0.046 A 
ATOM     33 CL   UNL     1      -9.553   3.370   1.264  0.00  0.00    -0.083 Cl
ATOM     34  O   UNL     1     -14.563   2.630   0.026  0.00  0.00    -0.453 OA
ATOM     35  C   UNL     1     -15.094   2.046  -1.178  0.00  0.00    +0.466 C 
ATOM     36  O   UNL     1     -14.138   1.022  -1.512  0.00  0.00    -0.453 OA
ENDBRANCH  26  27
ENDBRANCH  11  26
TORSDOF 5
