REMARK  Name = ZINC20877831
REMARK  7 active torsions:
REMARK  status: ('A' for Active; 'I' for Inactive)
REMARK    1  A    between atoms: C_1  and  C_2
REMARK    2  A    between atoms: C_5  and  C_8
REMARK    3  A    between atoms: C_8  and  O_9
REMARK    4  A    between atoms: O_9  and  C_10
REMARK    5  A    between atoms: C_13  and  C_16
REMARK    6  A    between atoms: C_16  and  N_17
REMARK    7  A    between atoms: N_17  and  C_18
REMARK                            x       y       z     vdW  Elec       q    Type
REMARK                         _______ _______ _______ _____ _____    ______ ____
ROOT
ATOM      1  C   UNL     1       0.781  -7.024  -0.043  0.00  0.00    +0.121 A 
ATOM      2  C   UNL     1       0.660  -6.349   1.163  0.00  0.00    +0.046 A 
ATOM      3  C   UNL     1       0.395  -4.993   1.170  0.00  0.00    +0.009 A 
ATOM      4  C   UNL     1       0.252  -4.309  -0.024  0.00  0.00    -0.030 A 
ATOM      5  C   UNL     1       0.367  -4.981  -1.226  0.00  0.00    +0.009 A 
ATOM      6  C   UNL     1       0.637  -6.336  -1.239  0.00  0.00    +0.046 A 
ENDROOT
BRANCH   1   7
ATOM      7  O   UNL     1       1.042  -8.358  -0.053  0.00  0.00    -0.487 OA
BRANCH   7   8
ATOM      8  C   UNL     1       1.154  -8.988  -1.331  0.00  0.00    +0.264 C 
BRANCH   8  13
ATOM      9  C   UNL     1       2.260 -14.614  -0.615  0.00  0.00    +0.044 C 
ATOM     10  C   UNL     1       1.971 -13.147  -0.802  0.00  0.00    -0.050 A 
ATOM     11  C   UNL     1       0.664 -12.704  -0.876  0.00  0.00    +0.004 A 
ATOM     12  C   UNL     1       0.400 -11.358  -1.048  0.00  0.00    +0.007 A 
ATOM     13  C   UNL     1       1.442 -10.455  -1.144  0.00  0.00    -0.010 A 
ATOM     14  C   UNL     1       2.749 -10.899  -1.074  0.00  0.00    +0.007 A 
ATOM     15  C   UNL     1       3.014 -12.245  -0.898  0.00  0.00    +0.004 A 
ENDBRANCH   8  13
ENDBRANCH   7   8
ENDBRANCH   1   7
BRANCH   4  16
ATOM     16  C   UNL     1      -0.037  -2.830  -0.013  0.00  0.00    +0.137 C 
BRANCH  16  17
ATOM     17  N   UNL     1       1.226  -2.086  -0.021  0.00  0.00    -0.340 N 
ATOM     18  H   UNL     1       2.183  -2.628  -0.033  0.00  0.00    +0.146 HD
BRANCH  17  19
ATOM     19  C   UNL     1       1.213  -0.687  -0.013  0.00  0.00    +0.029 A 
ATOM     20  C   UNL     1       0.002  -0.004   0.002  0.00  0.00    +0.025 A 
ATOM     21  C   UNL     1      -0.017   1.376   0.010  0.00  0.00    +0.029 A 
ATOM     22  C   UNL     1       1.175   2.085   0.002  0.00  0.00    +0.067 A 
ATOM     23  C   UNL     1       2.393   1.402  -0.014  0.00  0.00    +0.069 A 
ATOM     24  C   UNL     1       2.409   0.016  -0.021  0.00  0.00    +0.050 A 
ATOM     25  N   UNL     1       3.397   2.368  -0.018  0.00  0.00    -0.306 N 
ATOM     26  H   UNL     1       4.453   2.063  -0.029  0.00  0.00    +0.170 HD
ATOM     27  C   UNL     1       2.817   3.583  -0.007  0.00  0.00    +0.325 A 
ATOM     28  O   UNL     1       3.414   4.644  -0.007  0.00  0.00    -0.247 OA
ATOM     29  N   UNL     1       1.478   3.447   0.006  0.00  0.00    -0.306 N 
ATOM     30  H   UNL     1       0.667   4.190   0.017  0.00  0.00    +0.170 HD
ENDBRANCH  17  19
ENDBRANCH  16  17
ENDBRANCH   4  16
TORSDOF 6
