REMARK  Name = ZINC64370016
REMARK  6 active torsions:
REMARK  status: ('A' for Active; 'I' for Inactive)
REMARK    1  A    between atoms: C_1  and  C_2
REMARK    2  A    between atoms: C_5  and  N_8
REMARK    3  A    between atoms: N_8  and  C_9
REMARK    4  A    between atoms: C_9  and  C_22
REMARK    5  A    between atoms: C_13  and  C_17
REMARK    6  A    between atoms: C_13  and  C_18
REMARK                            x       y       z     vdW  Elec       q    Type
REMARK                         _______ _______ _______ _____ _____    ______ ____
ROOT
ATOM      1  C   UNL     1      -0.673  -4.881   1.648  0.00  0.00    +0.257 C 
ATOM      2  C   UNL     1      -0.524  -6.357   1.402  0.00  0.00    +0.076 C 
ATOM      3  C   UNL     1      -1.674  -6.940   1.827  0.00  0.00    +0.119 C 
ATOM      4  C   UNL     1      -1.884  -8.438   1.725  0.00  0.00    +0.081 C 
ATOM      5  C   UNL     1      -1.038  -8.960   0.559  0.00  0.00    -0.021 C 
ATOM      6  C   UNL     1       0.430  -8.575   0.753  0.00  0.00    +0.086 C 
ATOM      7  C   UNL     1       0.552  -7.069   0.847  0.00  0.00    +0.166 C 
ATOM      8  O   UNL     1       1.549  -6.496   0.457  0.00  0.00    -0.292 OA
ATOM      9  C   UNL     1      -1.551  -8.356  -0.750  0.00  0.00    +0.012 C 
ATOM     10  C   UNL     1      -1.157 -10.484   0.490  0.00  0.00    +0.012 C 
ATOM     11  O   UNL     1      -2.530  -6.039   2.318  0.00  0.00    -0.428 OA
ATOM     12  C   UNL     1      -2.059  -4.781   2.264  0.00  0.00    +0.350 C 
ATOM     13  O   UNL     1      -2.622  -3.777   2.630  0.00  0.00    -0.247 OA
ENDROOT
BRANCH   1  14
ATOM     14  C   UNL     1       0.392  -4.380   2.626  0.00  0.00    +0.426 C 
ATOM     15  F   UNL     1       0.108  -3.059   2.988  0.00  0.00    -0.167 F 
ATOM     16  F   UNL     1       0.391  -5.187   3.769  0.00  0.00    -0.167 F 
ATOM     17  F   UNL     1       1.649  -4.438   2.016  0.00  0.00    -0.167 F 
ENDBRANCH   1  14
BRANCH   1  18
ATOM     18  N   UNL     1      -0.610  -4.135   0.389  0.00  0.00    -0.318 N 
ATOM     19  H   UNL     1      -0.035  -3.358   0.314  0.00  0.00    +0.148 HD
BRANCH  18  24
ATOM     20  C   UNL     1      -3.731  -5.794  -4.046  0.00  0.00    +0.044 C 
ATOM     21  C   UNL     1      -2.901  -5.353  -2.868  0.00  0.00    -0.050 A 
ATOM     22  C   UNL     1      -1.609  -4.901  -3.064  0.00  0.00    +0.005 A 
ATOM     23  C   UNL     1      -0.847  -4.496  -1.986  0.00  0.00    +0.023 A 
ATOM     24  C   UNL     1      -1.379  -4.543  -0.704  0.00  0.00    +0.028 A 
ATOM     25  C   UNL     1      -2.677  -4.998  -0.510  0.00  0.00    +0.023 A 
ATOM     26  C   UNL     1      -3.436  -5.396  -1.593  0.00  0.00    +0.005 A 
ENDBRANCH  18  24
ENDBRANCH   1  18
TORSDOF 3
