REMARK  Name = ZINC23158036
REMARK  12 active torsions:
REMARK  status: ('A' for Active; 'I' for Inactive)
REMARK    1  A    between atoms: C_1  and  C_2
REMARK    2  A    between atoms: C_7  and  O_37
REMARK    3  A    between atoms: C_8  and  C_10
REMARK    4  A    between atoms: C_10  and  C_12
REMARK    5  A    between atoms: C_10  and  N_24
REMARK    6  A    between atoms: C_14  and  O_22
REMARK    7  A    between atoms: C_15  and  O_20
REMARK    8  A    between atoms: C_16  and  O_18
REMARK    9  A    between atoms: O_18  and  C_19
REMARK   10  A    between atoms: O_20  and  C_21
REMARK   11  A    between atoms: O_22  and  C_23
REMARK   12  A    between atoms: N_27  and  C_30
REMARK                            x       y       z     vdW  Elec       q    Type
REMARK                         _______ _______ _______ _____ _____    ______ ____
ROOT
ATOM      1  C   UNL     1       1.145   3.598   0.010  0.00  0.00    +0.130 C 
ENDROOT
BRANCH   1   9
ATOM      2  C   UNL     1       0.511   5.325   7.239  0.00  0.00    +0.090 C 
ATOM      3  C   UNL     1       0.797   4.953   5.807  0.00  0.00    +0.150 A 
ATOM      4  N   UNL     1       1.992   4.623   5.320  0.00  0.00    -0.205 NA
ATOM      5  C   UNL     1       1.881   4.360   4.047  0.00  0.00    +0.199 A 
ATOM      6  N   UNL     1       0.585   4.515   3.659  0.00  0.00    -0.173 N 
ATOM      7  N   UNL     1      -0.087   4.904   4.847  0.00  0.00    -0.147 NA
ATOM      8  C   UNL     1       0.291   4.275   2.339  0.00  0.00    +0.228 A 
ATOM      9  C   UNL     1       1.250   3.907   1.482  0.00  0.00    +0.076 A 
ATOM     10  S   UNL     1       2.687   3.868   2.542  0.00  0.00    -0.047 S 
BRANCH   8  11
ATOM     11  O   UNL     1      -0.989   4.415   1.898  0.00  0.00    -0.492 OA
ATOM     12  H   UNL     1      -1.231   4.224   0.842  0.00  0.00    +0.294 HD
ENDBRANCH   8  11
ENDBRANCH   1   9
BRANCH   1  13
ATOM     13  C   UNL     1       1.266   2.111  -0.201  0.00  0.00    -0.018 A 
ATOM     14  C   UNL     1       0.146   1.366  -0.520  0.00  0.00    +0.055 A 
ATOM     15  C   UNL     1       0.254  -0.002  -0.715  0.00  0.00    +0.165 A 
ATOM     16  C   UNL     1       1.491  -0.625  -0.591  0.00  0.00    +0.204 A 
ATOM     17  C   UNL     1       2.614   0.128  -0.271  0.00  0.00    +0.165 A 
ATOM     18  C   UNL     1       2.498   1.496  -0.077  0.00  0.00    +0.055 A 
BRANCH  17  19
ATOM     19  O   UNL     1       3.826  -0.477  -0.148  0.00  0.00    -0.491 OA
ATOM     20  C   UNL     1       4.937   0.359   0.183  0.00  0.00    +0.277 C 
ENDBRANCH  17  19
BRANCH  16  21
ATOM     21  O   UNL     1       1.601  -1.968  -0.783  0.00  0.00    -0.488 OA
ATOM     22  C   UNL     1       1.876  -2.413  -2.112  0.00  0.00    +0.277 C 
ENDBRANCH  16  21
BRANCH  15  23
ATOM     23  O   UNL     1      -0.848  -0.734  -1.029  0.00  0.00    -0.491 OA
ATOM     24  C   UNL     1      -2.085  -0.028  -1.141  0.00  0.00    +0.277 C 
ENDBRANCH  15  23
ENDBRANCH   1  13
BRANCH   1  25
ATOM     25  N   UNL     1       2.223   4.286  -0.712  0.00  0.00    -0.288 NA
ATOM     26  C   UNL     1       2.182   5.734  -0.466  0.00  0.00    +0.104 C 
ATOM     27  C   UNL     1       3.366   6.402  -1.170  0.00  0.00    +0.120 C 
ATOM     28  N   UNL     1       3.302   6.114  -2.610  0.00  0.00    -0.325 N 
ATOM     29  C   UNL     1       3.342   4.666  -2.856  0.00  0.00    +0.120 C 
ATOM     30  C   UNL     1       2.159   3.998  -2.152  0.00  0.00    +0.104 C 
BRANCH  28  31
ATOM     31  C   UNL     1       4.328   6.769  -3.298  0.00  0.00    +0.065 A 
ATOM     32  C   UNL     1       4.402   6.685  -4.682  0.00  0.00    +0.026 A 
ATOM     33  C   UNL     1       5.415   7.336  -5.359  0.00  0.00    +0.002 A 
ATOM     34  C   UNL     1       6.361   8.063  -4.660  0.00  0.00    +0.003 A 
ATOM     35  C   UNL     1       6.295   8.145  -3.281  0.00  0.00    +0.040 A 
ATOM     36  C   UNL     1       5.282   7.500  -2.597  0.00  0.00    +0.144 A 
ATOM     37  F   UNL     1       5.218   7.579  -1.250  0.00  0.00    -0.204 F 
ENDBRANCH  28  31
ENDBRANCH   1  25
TORSDOF 8
