REMARK  Name = ZINC39517721
REMARK  12 active torsions:
REMARK  status: ('A' for Active; 'I' for Inactive)
REMARK    1  A    between atoms: C_1  and  C_2
REMARK    2  A    between atoms: C_3  and  C_8
REMARK    3  A    between atoms: C_4  and  C_7
REMARK    4  A    between atoms: C_8  and  O_9
REMARK    5  A    between atoms: O_9  and  C_10
REMARK    6  A    between atoms: C_13  and  C_16
REMARK    7  A    between atoms: C_16  and  O_18
REMARK    8  A    between atoms: O_18  and  C_19
REMARK    9  A    between atoms: C_19  and  C_20
REMARK   10  A    between atoms: N_22  and  C_23
REMARK   11  A    between atoms: C_23  and  C_25
REMARK   12  A    between atoms: C_23  and  C_26
REMARK                            x       y       z     vdW  Elec       q    Type
REMARK                         _______ _______ _______ _____ _____    ______ ____
ROOT
ATOM      1  C   UNL     1       2.022   1.585  -8.302  0.00  0.00    +0.340 C 
ATOM      2  O   UNL     1       1.052   1.810  -8.999  0.00  0.00    -0.245 OA
ENDROOT
BRANCH   1   6
ATOM      3  C   UNL     1       1.503   0.249  -4.306  0.00  0.00    +0.121 A 
ATOM      4  C   UNL     1       0.392   0.505  -5.101  0.00  0.00    +0.046 A 
ATOM      5  C   UNL     1       0.556   0.939  -6.397  0.00  0.00    +0.018 A 
ATOM      6  C   UNL     1       1.842   1.121  -6.914  0.00  0.00    +0.059 A 
ATOM      7  C   UNL     1       2.957   0.861  -6.112  0.00  0.00    +0.018 A 
ATOM      8  C   UNL     1       2.784   0.433  -4.814  0.00  0.00    +0.046 A 
BRANCH   3   9
ATOM      9  O   UNL     1       1.338  -0.179  -3.029  0.00  0.00    -0.487 OA
BRANCH   9  10
ATOM     10  C   UNL     1      -0.005  -0.348  -2.571  0.00  0.00    +0.269 C 
BRANCH  10  13
ATOM     11  C   UNL     1      -0.018   1.503   0.010  0.00  0.00    +0.069 C 
ATOM     12  C   UNL     1       0.002  -0.004   0.002  0.00  0.00    +0.087 A 
ATOM     13  C   UNL     1       0.008  -0.824  -1.141  0.00  0.00    +0.054 A 
ATOM     14  C   UNL     1       0.027  -2.108  -0.735  0.00  0.00    +0.141 A 
ATOM     15  O   UNL     1       0.034  -2.119   0.606  0.00  0.00    -0.359 OA
ATOM     16  N   UNL     1       0.023  -0.775   1.052  0.00  0.00    -0.083 NA
ATOM     17  C   UNL     1       0.039  -3.320  -1.631  0.00  0.00    +0.089 C 
ENDBRANCH  10  13
ENDBRANCH   9  10
ENDBRANCH   3   9
ENDBRANCH   1   6
BRANCH   1  18
ATOM     18  O   UNL     1       3.263   1.760  -8.799  0.00  0.00    -0.452 OA
BRANCH  18  19
ATOM     19  C   UNL     1       3.363   2.211 -10.151  0.00  0.00    +0.328 C 
BRANCH  19  20
ATOM     20  C   UNL     1       4.815   2.348 -10.528  0.00  0.00    +0.251 C 
ATOM     21  O   UNL     1       5.680   2.084  -9.719  0.00  0.00    -0.272 OA
ATOM     22  N   UNL     1       5.154   2.762 -11.765  0.00  0.00    -0.306 N 
ATOM     23  H   UNL     1       4.463   2.973 -12.412  0.00  0.00    +0.149 HD
BRANCH  22  24
ATOM     24  C   UNL     1       6.566   2.895 -12.133  0.00  0.00    +0.100 C 
ATOM     25  C   UNL     1       7.081   4.266 -11.691  0.00  0.00    +0.033 C 
BRANCH  24  26
ATOM     26  C   UNL     1       6.711   2.761 -13.627  0.00  0.00    -0.026 A 
ATOM     27  C   UNL     1       5.783   3.348 -14.466  0.00  0.00    +0.007 A 
ATOM     28  C   UNL     1       5.915   3.225 -15.837  0.00  0.00    +0.022 A 
ATOM     29  C   UNL     1       6.976   2.515 -16.369  0.00  0.00    +0.059 A 
ATOM     30  C   UNL     1       7.907   1.928 -15.528  0.00  0.00    +0.060 A 
ATOM     31  C   UNL     1       7.776   2.057 -14.156  0.00  0.00    +0.027 A 
ATOM     32 CL   UNL     1       9.239   1.037 -16.194  0.00  0.00    -0.082 Cl
ATOM     33 CL   UNL     1       7.142   2.361 -18.090  0.00  0.00    -0.082 Cl
ENDBRANCH  24  26
ENDBRANCH  22  24
ENDBRANCH  19  20
ENDBRANCH  18  19
ENDBRANCH   1  18
TORSDOF 9
