REMARK  Name = ZINC14546951
REMARK  7 active torsions:
REMARK  status: ('A' for Active; 'I' for Inactive)
REMARK    1  A    between atoms: C_1  and  C_2
REMARK    2  A    between atoms: C_2  and  O_3
REMARK    3  A    between atoms: O_3  and  C_4
REMARK    4  A    between atoms: C_4  and  C_5
REMARK    5  A    between atoms: C_5  and  O_6
REMARK    6  A    between atoms: O_6  and  C_7
REMARK    7  A    between atoms: C_20  and  C_23
REMARK                            x       y       z     vdW  Elec       q    Type
REMARK                         _______ _______ _______ _____ _____    ______ ____
ROOT
ATOM      1  C   UNL     1      -3.008   1.471   4.599  0.00  0.00    +0.121 A 
ATOM      2  C   UNL     1      -2.587   2.392   5.548  0.00  0.00    +0.047 A 
ATOM      3  C   UNL     1      -3.442   2.786   6.556  0.00  0.00    +0.027 A 
ATOM      4  C   UNL     1      -4.726   2.261   6.635  0.00  0.00    +0.032 A 
ATOM      5  C   UNL     1      -5.142   1.325   5.682  0.00  0.00    -0.016 A 
ATOM      6  C   UNL     1      -4.290   0.947   4.667  0.00  0.00    +0.051 A 
ATOM      7  C   UNL     1      -6.507   0.772   5.819  0.00  0.00    +0.049 C 
ATOM      8  C   UNL     1      -7.265   0.251   4.653  0.00  0.00    -0.023 C 
ATOM      9  C   UNL     1      -8.560   0.450   4.866  0.00  0.00    -0.030 C 
ATOM     10  C   UNL     1      -8.766   1.166   6.202  0.00  0.00    +0.033 C 
ATOM     11  C   UNL     1      -7.429   1.901   6.369  0.00  0.00    +0.029 C 
ATOM     12  C   UNL     1      -6.954   2.156   7.788  0.00  0.00    +0.108 C 
ATOM     13  N   UNL     1      -5.582   2.693   7.659  0.00  0.00    -0.336 N 
ATOM     14  H   UNL     1      -5.269   3.357   8.293  0.00  0.00    +0.147 HD
ENDROOT
BRANCH  12  15
ATOM     15  C   UNL     1      -7.847   3.165   8.463  0.00  0.00    +0.010 A 
ATOM     16  C   UNL     1      -7.800   4.494   8.082  0.00  0.00    +0.047 A 
ATOM     17  C   UNL     1      -8.625   5.419   8.698  0.00  0.00    +0.020 A 
ATOM     18  C   UNL     1      -9.486   5.018   9.701  0.00  0.00    +0.003 A 
ATOM     19  C   UNL     1      -9.529   3.691  10.086  0.00  0.00    +0.020 A 
ATOM     20  C   UNL     1      -8.709   2.764   9.467  0.00  0.00    +0.047 A 
ATOM     21 CL   UNL     1      -8.764   1.097   9.950  0.00  0.00    -0.083 Cl
ATOM     22 CL   UNL     1      -6.713   5.000   6.827  0.00  0.00    -0.083 Cl
ENDBRANCH  12  15
BRANCH   1  23
ATOM     23  O   UNL     1      -2.167   1.089   3.601  0.00  0.00    -0.490 OA
BRANCH  23  24
ATOM     24  C   UNL     1      -0.864   1.675   3.590  0.00  0.00    +0.257 C 
BRANCH  24  25
ATOM     25  C   UNL     1      -0.068   1.127   2.404  0.00  0.00    +0.200 C 
BRANCH  25  26
ATOM     26  O   UNL     1      -0.682   1.547   1.184  0.00  0.00    -0.377 OA
BRANCH  26  28
ATOM     27  C   UNL     1      -0.753   1.593  -1.232  0.00  0.00    +0.034 C 
ATOM     28  C   UNL     1      -0.013   1.086   0.008  0.00  0.00    +0.156 C 
ENDBRANCH  26  28
ENDBRANCH  25  26
ENDBRANCH  24  25
ENDBRANCH  23  24
ENDBRANCH   1  23
TORSDOF 6
