REMARK  Name = ZINC06060293
REMARK  6 active torsions:
REMARK  status: ('A' for Active; 'I' for Inactive)
REMARK    1  A    between atoms: C_4  and  N_8
REMARK    2  A    between atoms: C_9  and  C_11
REMARK    3  A    between atoms: C_11  and  O_12
REMARK    4  A    between atoms: O_12  and  C_13
REMARK    5  A    between atoms: C_13  and  C_15
REMARK    6  A    between atoms: C_20  and  N_21
REMARK                            x       y       z     vdW  Elec       q    Type
REMARK                         _______ _______ _______ _____ _____    ______ ____
ROOT
ATOM      1  O   UNL     1      -3.515   3.969   0.176  0.00  0.00    -0.452 OA
ENDROOT
BRANCH   1   2
ATOM      2  C   UNL     1      -2.335   4.612   0.077  0.00  0.00    +0.342 C 
ATOM      3  O   UNL     1      -2.309   5.825   0.001  0.00  0.00    -0.245 OA
BRANCH   2   4
ATOM      4  C   UNL     1      -1.078   3.846   0.061  0.00  0.00    +0.082 A 
ATOM      5  C   UNL     1      -1.106   2.448   0.040  0.00  0.00    +0.037 A 
ATOM      6  C   UNL     1       0.074   1.736   0.031  0.00  0.00    +0.043 A 
ATOM      7  C   UNL     1       1.292   2.400   0.032  0.00  0.00    +0.042 A 
ATOM      8  C   UNL     1       1.337   3.779   0.048  0.00  0.00    +0.064 A 
ATOM      9  C   UNL     1       0.156   4.514   0.062  0.00  0.00    +0.057 A 
ATOM     10 CL   UNL     1       2.868   4.598   0.050  0.00  0.00    -0.082 Cl
ATOM     11 CL   UNL     1       0.036   0.001   0.011  0.00  0.00    -0.083 Cl
BRANCH   9  12
ATOM     12  N   UNL     1       0.198   5.903   0.079  0.00  0.00    -0.356 N 
ATOM     13  H   UNL     1       1.050   6.362   0.155  0.00  0.00    +0.142 HD
ATOM     14  H   UNL     1      -0.624   6.414   0.013  0.00  0.00    +0.142 HD
ENDBRANCH   9  12
ENDBRANCH   2   4
ENDBRANCH   1   2
BRANCH   1  15
ATOM     15  C   UNL     1      -4.714   4.788   0.185  0.00  0.00    +0.328 C 
BRANCH  15  17
ATOM     16  N   UNL     1      -7.160   4.446   0.329  0.00  0.00    -0.280 N 
ATOM     17  C   UNL     1      -5.928   3.901   0.301  0.00  0.00    +0.255 C 
ATOM     18  O   UNL     1      -5.795   2.698   0.369  0.00  0.00    -0.272 OA
ATOM     19  H   UNL     1      -7.272   5.400   0.194  0.00  0.00    +0.155 HD
BRANCH  16  23
ATOM     20  C   UNL     1     -10.493   2.031   0.996  0.00  0.00    +0.023 A 
ATOM     21  C   UNL     1     -10.633   3.225   0.312  0.00  0.00    +0.041 A 
ATOM     22  C   UNL     1      -9.530   4.028   0.088  0.00  0.00    +0.145 A 
ATOM     23  C   UNL     1      -8.279   3.635   0.553  0.00  0.00    +0.070 A 
ATOM     24  C   UNL     1      -8.142   2.434   1.235  0.00  0.00    +0.046 A 
ATOM     25  C   UNL     1      -9.250   1.638   1.460  0.00  0.00    +0.043 A 
ATOM     26 CL   UNL     1      -9.080   0.139   2.318  0.00  0.00    -0.083 Cl
ATOM     27  F   UNL     1      -9.666   5.194  -0.581  0.00  0.00    -0.204 F 
ENDBRANCH  16  23
ENDBRANCH  15  17
ENDBRANCH   1  15
TORSDOF 6
