REMARK  Name = ZINC50008711
REMARK  4 active torsions:
REMARK  status: ('A' for Active; 'I' for Inactive)
REMARK    1  A    between atoms: C_1  and  C_2
REMARK    2  A    between atoms: C_5  and  N_8
REMARK    3  A    between atoms: N_8  and  C_9
REMARK    4  A    between atoms: C_10  and  C_12
REMARK                            x       y       z     vdW  Elec       q    Type
REMARK                         _______ _______ _______ _____ _____    ______ ____
ROOT
ATOM      1  N   UNL     1       0.241  -4.189   0.003  0.00  0.00    -0.271 N 
ATOM      2  C   UNL     1       0.346  -4.880  -1.284  0.00  0.00    +0.138 C 
ATOM      3  C   UNL     1       0.172  -4.899   1.146  0.00  0.00    +0.262 C 
ATOM      4  O   UNL     1       0.007  -4.330   2.205  0.00  0.00    -0.271 OA
ENDROOT
BRANCH   3   5
ATOM      5  C   UNL     1       0.298  -6.400   1.109  0.00  0.00    +0.276 C 
ATOM      6  C   UNL     1      -1.037  -7.018   0.669  0.00  0.00    +0.155 C 
ATOM      7  N   UNL     1      -0.880  -8.482   0.696  0.00  0.00    -0.337 N 
ATOM      8  C   UNL     1      -0.191  -9.045   1.782  0.00  0.00    +0.070 A 
ATOM      9  C   UNL     1      -0.257 -10.410   2.015  0.00  0.00    +0.026 A 
ATOM     10  C   UNL     1       0.426 -10.960   3.084  0.00  0.00    +0.002 A 
ATOM     11  C   UNL     1       1.173 -10.150   3.919  0.00  0.00    +0.004 A 
ATOM     12  C   UNL     1       1.240  -8.788   3.693  0.00  0.00    +0.047 A 
ATOM     13  C   UNL     1       0.557  -8.227   2.624  0.00  0.00    +0.142 A 
ATOM     14  O   UNL     1       0.626  -6.886   2.413  0.00  0.00    -0.476 OA
ATOM     15  H   UNL     1      -1.240  -9.039  -0.012  0.00  0.00    +0.146 HD
ENDBRANCH   3   5
BRANCH   1  20
ATOM     16  C   UNL     1       0.124   1.481   0.174  0.00  0.00    +0.044 C 
ATOM     17  C   UNL     1       0.155  -0.025   0.129  0.00  0.00    -0.050 A 
ATOM     18  C   UNL     1       0.404  -0.674  -1.066  0.00  0.00    +0.005 A 
ATOM     19  C   UNL     1       0.434  -2.054  -1.111  0.00  0.00    +0.024 A 
ATOM     20  C   UNL     1       0.212  -2.790   0.045  0.00  0.00    +0.036 A 
ATOM     21  C   UNL     1      -0.037  -2.135   1.244  0.00  0.00    +0.024 A 
ATOM     22  C   UNL     1      -0.061  -0.755   1.284  0.00  0.00    +0.005 A 
ENDBRANCH   1  20
TORSDOF 2
