REMARK  Name = ZINC36545140
REMARK  8 active torsions:
REMARK  status: ('A' for Active; 'I' for Inactive)
REMARK    1  A    between atoms: C_5  and  N_7
REMARK    2  A    between atoms: N_7  and  C_8
REMARK    3  A    between atoms: C_8  and  C_10
REMARK    4  A    between atoms: C_8  and  C_16
REMARK    5  A    between atoms: N_18  and  C_19
REMARK    6  A    between atoms: C_25  and  C_27
REMARK    7  A    between atoms: C_28  and  O_34
REMARK    8  A    between atoms: C_32  and  O_33
REMARK                            x       y       z     vdW  Elec       q    Type
REMARK                         _______ _______ _______ _____ _____    ______ ____
ROOT
ATOM      1  N   UNL     1       1.367  -2.117   0.153  0.00  0.00    -0.254 N 
ATOM      2  C   UNL     1       1.190  -0.802   0.394  0.00  0.00    +0.259 C 
ATOM      3  O   UNL     1       1.065  -0.025  -0.533  0.00  0.00    -0.269 OA
ENDROOT
BRANCH   1   8
ATOM      4  C   UNL     1       0.284  -4.450   2.780  0.00  0.00    +0.002 A 
ATOM      5  C   UNL     1       1.501  -4.817   3.323  0.00  0.00    +0.002 A 
ATOM      6  C   UNL     1       2.675  -4.290   2.817  0.00  0.00    +0.022 A 
ATOM      7  C   UNL     1       2.635  -3.394   1.765  0.00  0.00    +0.062 A 
ATOM      8  C   UNL     1       1.412  -3.024   1.217  0.00  0.00    +0.056 A 
ATOM      9  C   UNL     1       0.236  -3.555   1.729  0.00  0.00    +0.025 A 
ATOM     10 CL   UNL     1       4.108  -2.731   1.131  0.00  0.00    -0.082 Cl
ENDBRANCH   1   8
BRANCH   2  11
ATOM     11  C   UNL     1       1.149  -0.308   1.780  0.00  0.00    +0.120 A 
ATOM     12  C   UNL     1       2.321   0.148   2.402  0.00  0.00    +0.133 A 
ATOM     13  C   UNL     1       2.270   0.612   3.707  0.00  0.00    +0.046 A 
ATOM     14  C   UNL     1       1.071   0.626   4.395  0.00  0.00    +0.007 A 
ATOM     15  C   UNL     1      -0.089   0.179   3.792  0.00  0.00    +0.046 A 
ATOM     16  C   UNL     1      -0.063  -0.284   2.486  0.00  0.00    +0.133 A 
BRANCH  16  17
ATOM     17  O   UNL     1      -1.204  -0.717   1.894  0.00  0.00    -0.506 OA
ATOM     18  H   UNL     1      -1.422  -1.639   2.088  0.00  0.00    +0.292 HD
ENDBRANCH  16  17
BRANCH  12  19
ATOM     19  O   UNL     1       3.498   0.135   1.730  0.00  0.00    -0.506 OA
ATOM     20  H   UNL     1       3.680   0.947   1.238  0.00  0.00    +0.292 HD
ENDBRANCH  12  19
ENDBRANCH   2  11
BRANCH   1  21
ATOM     21  C   UNL     1       1.512  -2.595  -1.224  0.00  0.00    +0.170 C 
BRANCH  21  22
ATOM     22  C   UNL     1       0.285  -2.183  -2.039  0.00  0.00    +0.019 C 
ATOM     23  C   UNL     1       0.436  -2.684  -3.477  0.00  0.00    +0.006 C 
ATOM     24  C   UNL     1      -0.791  -2.272  -4.292  0.00  0.00    +0.000 C 
ATOM     25  C   UNL     1      -2.047  -2.884  -3.668  0.00  0.00    +0.000 C 
ATOM     26  C   UNL     1      -2.198  -2.383  -2.231  0.00  0.00    +0.000 C 
ATOM     27  C   UNL     1      -0.971  -2.795  -1.415  0.00  0.00    +0.006 C 
ENDBRANCH  21  22
BRANCH  21  28
ATOM     28  C   UNL     1       2.749  -1.992  -1.838  0.00  0.00    +0.234 C 
ATOM     29  O   UNL     1       3.325  -1.085  -1.275  0.00  0.00    -0.274 OA
ATOM     30  N   UNL     1       3.216  -2.460  -3.013  0.00  0.00    -0.311 N 
ATOM     31  H   UNL     1       2.724  -3.145  -3.492  0.00  0.00    +0.149 HD
BRANCH  30  32
ATOM     32  C   UNL     1       4.466  -1.933  -3.567  0.00  0.00    +0.073 C 
ATOM     33  C   UNL     1       4.175  -0.657  -4.358  0.00  0.00    +0.022 C 
ATOM     34  C   UNL     1       5.481  -0.107  -4.936  0.00  0.00    +0.002 C 
ATOM     35  C   UNL     1       6.107  -1.151  -5.864  0.00  0.00    +0.000 C 
ATOM     36  C   UNL     1       6.397  -2.428  -5.072  0.00  0.00    +0.002 C 
ATOM     37  C   UNL     1       5.092  -2.977  -4.494  0.00  0.00    +0.022 C 
ENDBRANCH  30  32
ENDBRANCH  21  28
ENDBRANCH   1  21
TORSDOF 8
