REMARK  Name = ZINC63752026
REMARK  6 active torsions:
REMARK  status: ('A' for Active; 'I' for Inactive)
REMARK    1  A    between atoms: C_1  and  C_2
REMARK    2  A    between atoms: C_5  and  C_8
REMARK    3  A    between atoms: C_8  and  C_9
REMARK    4  A    between atoms: C_15  and  S_17
REMARK    5  A    between atoms: S_17  and  C_18
REMARK    6  A    between atoms: C_18  and  C_19
REMARK                            x       y       z     vdW  Elec       q    Type
REMARK                         _______ _______ _______ _____ _____    ______ ____
ROOT
ATOM      1  C   UNL     1       1.487  -4.759  -0.032  0.00  0.00    +0.223 C 
ATOM      2  O   UNL     1       2.398  -3.959  -0.033  0.00  0.00    -0.275 OA
ATOM      3  N   UNL     1       1.750  -6.081  -0.041  0.00  0.00    -0.263 N 
ATOM      4  C   UNL     1       3.069  -6.528  -0.050  0.00  0.00    +0.189 A 
ATOM      5  N   UNL     1       4.200  -5.841  -0.047  0.00  0.00    -0.125 NA
ATOM      6  N   UNL     1       5.326  -6.409  -0.057  0.00  0.00    -0.133 NA
ATOM      7  C   UNL     1       5.446  -7.728  -0.071  0.00  0.00    +0.160 A 
ATOM      8  S   UNL     1       3.718  -8.197  -0.063  0.00  0.00    -0.024 S 
ATOM      9  H   UNL     1       1.021  -6.721  -0.040  0.00  0.00    +0.157 HD
ENDROOT
BRANCH   1  10
ATOM     10  C   UNL     1       0.059  -4.275  -0.021  0.00  0.00    +0.131 C 
BRANCH  10  15
ATOM     11  C   UNL     1      -0.018   1.503   0.010  0.00  0.00    +0.044 C 
ATOM     12  C   UNL     1       0.002  -0.004   0.002  0.00  0.00    -0.050 A 
ATOM     13  C   UNL     1       0.006  -0.689  -1.199  0.00  0.00    +0.003 A 
ATOM     14  C   UNL     1       0.025  -2.071  -1.206  0.00  0.00    +0.004 A 
ATOM     15  C   UNL     1       0.040  -2.768  -0.013  0.00  0.00    -0.039 A 
ATOM     16  C   UNL     1       0.037  -2.084   1.188  0.00  0.00    +0.004 A 
ATOM     17  C   UNL     1       0.023  -0.702   1.195  0.00  0.00    +0.003 A 
ENDBRANCH  10  15
ENDBRANCH   1  10
BRANCH   7  18
ATOM     18  S   UNL     1       6.893  -8.734  -0.088  0.00  0.00    -0.094 S 
BRANCH  18  19
ATOM     19  C   UNL     1       8.258  -7.539  -0.080  0.00  0.00    +0.110 C 
BRANCH  19  20
ATOM     20  C   UNL     1       9.592  -8.289  -0.094  0.00  0.00    +0.176 C 
ATOM     21  C   UNL     1      10.691  -7.278   0.141  0.00  0.00    +0.240 C 
ATOM     22  O   UNL     1      10.693  -6.592   1.143  0.00  0.00    -0.273 OA
ATOM     23  N   UNL     1      11.659  -7.149  -0.769  0.00  0.00    -0.282 N 
ATOM     24  C   UNL     1      11.680  -7.883  -1.869  0.00  0.00    +0.057 A 
ATOM     25  C   UNL     1      12.720  -7.721  -2.811  0.00  0.00    +0.025 A 
ATOM     26  C   UNL     1      12.746  -8.470  -3.938  0.00  0.00    +0.002 A 
ATOM     27  C   UNL     1      11.766  -9.431  -4.235  0.00  0.00    +0.002 A 
ATOM     28  C   UNL     1      10.728  -9.666  -3.403  0.00  0.00    +0.027 A 
ATOM     29  C   UNL     1      10.629  -8.892  -2.155  0.00  0.00    +0.057 A 
ATOM     30  N   UNL     1       9.644  -9.089  -1.327  0.00  0.00    -0.372 N 
ATOM     31  H   UNL     1       8.960  -9.750  -1.519  0.00  0.00    +0.160 HD
ATOM     32  H   UNL     1      12.365  -6.500  -0.620  0.00  0.00    +0.155 HD
ENDBRANCH  19  20
ENDBRANCH  18  19
ENDBRANCH   7  18
TORSDOF 5
