REMARK  Name = ZINC43982974
REMARK  7 active torsions:
REMARK  status: ('A' for Active; 'I' for Inactive)
REMARK    1  A    between atoms: C_1  and  C_2
REMARK    2  A    between atoms: C_2  and  C_3
REMARK    3  A    between atoms: C_3  and  N_4
REMARK    4  A    between atoms: N_4  and  C_5
REMARK    5  A    between atoms: C_5  and  C_6
REMARK    6  A    between atoms: N_21  and  C_22
REMARK    7  A    between atoms: C_26  and  C_28
REMARK                            x       y       z     vdW  Elec       q    Type
REMARK                         _______ _______ _______ _____ _____    ______ ____
ROOT
ATOM      1  N   UNL     1       0.765  -1.976   1.239  0.00  0.00    -0.278 N 
ATOM      2  C   UNL     1      -0.235  -2.666   1.821  0.00  0.00    +0.307 C 
ATOM      3  O   UNL     1      -0.223  -3.882   1.807  0.00  0.00    -0.252 OA
ATOM      4  N   UNL     1      -1.248  -2.010   2.420  0.00  0.00    -0.269 N 
ATOM      5  H   UNL     1      -1.225  -1.042   2.490  0.00  0.00    +0.156 HD
ENDROOT
BRANCH   4   6
ATOM      6  C   UNL     1      -2.334  -2.723   2.940  0.00  0.00    +0.036 A 
ATOM      7  C   UNL     1      -2.133  -3.971   3.518  0.00  0.00    +0.023 A 
ATOM      8  C   UNL     1      -3.203  -4.679   4.032  0.00  0.00    +0.003 A 
ATOM      9  C   UNL     1      -4.477  -4.152   3.976  0.00  0.00    +0.017 A 
ATOM     10  C   UNL     1      -4.689  -2.900   3.398  0.00  0.00    +0.026 A 
ATOM     11  C   UNL     1      -3.609  -2.183   2.884  0.00  0.00    +0.040 A 
BRANCH  10  12
ATOM     12  C   UNL     1      -6.010  -2.351   3.338  0.00  0.00    -0.070 C 
ATOM     13  C   UNL     1      -7.093  -1.901   3.288  0.00  0.00    +0.009 C 
ENDBRANCH  10  12
ENDBRANCH   4   6
BRANCH   1  14
ATOM     14  C   UNL     1       0.751  -0.511   1.256  0.00  0.00    +0.109 C 
BRANCH  14  16
ATOM     15  C   UNL     1       0.001   1.537   0.036  0.00  0.00    +0.005 C 
ATOM     16  C   UNL     1       0.016   0.007   0.018  0.00  0.00    +0.016 C 
ENDBRANCH  14  16
ENDBRANCH   1  14
BRANCH   1  17
ATOM     17  C   UNL     1       1.867  -2.689   0.589  0.00  0.00    +0.183 C 
BRANCH  17  18
ATOM     18  C   UNL     1       2.963  -2.942   1.591  0.00  0.00    +0.128 A 
ATOM     19  N   UNL     1       4.081  -3.592   1.174  0.00  0.00    -0.309 N 
ATOM     20  H   UNL     1       4.153  -3.879   0.251  0.00  0.00    +0.170 HD
ATOM     21  C   UNL     1       5.094  -3.843   2.035  0.00  0.00    +0.259 A 
ATOM     22  O   UNL     1       6.101  -4.425   1.675  0.00  0.00    -0.267 OA
ATOM     23  C   UNL     1       4.932  -3.386   3.423  0.00  0.00    +0.065 A 
ATOM     24  C   UNL     1       5.916  -3.594   4.388  0.00  0.00    +0.017 A 
ATOM     25  C   UNL     1       5.716  -3.148   5.665  0.00  0.00    +0.021 A 
ATOM     26  C   UNL     1       4.541  -2.490   6.011  0.00  0.00    +0.043 A 
ATOM     27  C   UNL     1       3.553  -2.272   5.075  0.00  0.00    +0.048 A 
ATOM     28  C   UNL     1       3.735  -2.718   3.765  0.00  0.00    +0.080 A 
ATOM     29  N   UNL     1       2.794  -2.522   2.808  0.00  0.00    -0.232 NA
ATOM     30 CL   UNL     1       4.317  -1.937   7.641  0.00  0.00    -0.083 Cl
ENDBRANCH  17  18
ENDBRANCH   1  17
TORSDOF 6
