REMARK  Name = ZINC13648192
REMARK  7 active torsions:
REMARK  status: ('A' for Active; 'I' for Inactive)
REMARK    1  A    between atoms: C_1  and  C_2
REMARK    2  A    between atoms: C_7  and  C_32
REMARK    3  A    between atoms: C_9  and  C_10
REMARK    4  A    between atoms: C_9  and  N_56
REMARK    5  A    between atoms: C_11  and  O_31
REMARK    6  A    between atoms: C_17  and  N_30
REMARK    7  A    between atoms: C_18  and  C_21
REMARK                            x       y       z     vdW  Elec       q    Type
REMARK                         _______ _______ _______ _____ _____    ______ ____
ROOT
ATOM      1  C   UNL     1       2.876   0.124  -0.904  0.00  0.00    +0.021 A 
ATOM      2  C   UNL     1       3.832   1.121  -1.002  0.00  0.00    +0.122 A 
ATOM      3  C   UNL     1       3.486   2.390  -1.458  0.00  0.00    +0.046 A 
ATOM      4  C   UNL     1       2.197   2.667  -1.815  0.00  0.00    +0.019 A 
ATOM      5  C   UNL     1       1.222   1.673  -1.720  0.00  0.00    +0.065 A 
ATOM      6  C   UNL     1       1.562   0.390  -1.262  0.00  0.00    +0.146 A 
ATOM      7  O   UNL     1       0.619  -0.571  -1.173  0.00  0.00    -0.440 OA
ATOM      8  C   UNL     1      -0.659  -0.359  -1.508  0.00  0.00    +0.198 A 
ATOM      9  C   UNL     1      -1.106   0.872  -1.973  0.00  0.00    +0.111 A 
ATOM     10  C   UNL     1      -0.178   1.942  -2.099  0.00  0.00    +0.204 A 
ATOM     11  O   UNL     1      -0.526   3.039  -2.504  0.00  0.00    -0.286 OA
ENDROOT
BRANCH   9  12
ATOM     12  C   UNL     1      -2.520   1.063  -2.338  0.00  0.00    +0.118 A 
ATOM     13  N   UNL     1      -3.095   2.109  -2.896  0.00  0.00    -0.239 NA
ATOM     14  C   UNL     1      -4.413   2.143  -3.179  0.00  0.00    +0.079 A 
ATOM     15  C   UNL     1      -5.150   3.193  -3.777  0.00  0.00    +0.029 A 
ATOM     16  C   UNL     1      -6.498   3.068  -3.992  0.00  0.00    +0.002 A 
ATOM     17  C   UNL     1      -7.186   1.918  -3.634  0.00  0.00    +0.001 A 
ATOM     18  C   UNL     1      -6.497   0.872  -3.047  0.00  0.00    +0.017 A 
ATOM     19  C   UNL     1      -5.147   0.987  -2.828  0.00  0.00    +0.040 A 
ATOM     20  S   UNL     1      -3.894  -0.060  -2.128  0.00  0.00    -0.067 S 
ENDBRANCH   9  12
BRANCH   8  21
ATOM     21  N   UNL     1      -1.553  -1.385  -1.388  0.00  0.00    -0.329 N 
ATOM     22  H   UNL     1      -2.289  -1.462  -2.015  0.00  0.00    +0.145 HD
ATOM     23  H   UNL     1      -1.452  -2.036  -0.676  0.00  0.00    +0.145 HD
ENDBRANCH   8  21
BRANCH   2  24
ATOM     24  O   UNL     1       5.117   0.859  -0.651  0.00  0.00    -0.506 OA
ATOM     25  H   UNL     1       5.665   0.533  -1.378  0.00  0.00    +0.292 HD
ENDBRANCH   2  24
BRANCH   1  26
ATOM     26  C   UNL     1       3.261  -1.247  -0.410  0.00  0.00    -0.035 C 
BRANCH  26  34
ATOM     27  C   UNL     1       1.419  -2.642  -2.016  0.00  0.00    -0.013 C 
ATOM     28  C   UNL     1       2.739  -2.134  -2.601  0.00  0.00    -0.071 C 
ATOM     29  C   UNL     1       3.218  -3.098  -3.689  0.00  0.00    -0.016 C 
ATOM     30  C   UNL     1       4.548  -2.596  -4.258  0.00  0.00    -0.003 C 
ATOM     31  C   UNL     1       5.567  -2.476  -3.121  0.00  0.00    -0.016 C 
ATOM     32  C   UNL     1       5.020  -1.531  -2.050  0.00  0.00    -0.071 C 
ATOM     33  C   UNL     1       6.026  -1.424  -0.902  0.00  0.00    -0.013 C 
ATOM     34  N   UNL     1       3.752  -2.082  -1.526  0.00  0.00    +0.386 N 
ATOM     35  H   UNL     1       3.920  -3.034  -1.181  0.00  0.00    -0.081 HD
ENDBRANCH  26  34
ENDBRANCH   1  26
TORSDOF 5
