REMARK  Name = ZINC36597687
REMARK  15 active torsions:
REMARK  status: ('A' for Active; 'I' for Inactive)
REMARK    1  A    between atoms: C_1  and  C_2
REMARK    2  A    between atoms: C_2  and  C_3
REMARK    3  A    between atoms: C_3  and  C_4
REMARK    4  A    between atoms: C_4  and  N_5
REMARK    5  A    between atoms: C_6  and  C_8
REMARK    6  A    between atoms: C_8  and  C_10
REMARK    7  A    between atoms: C_8  and  N_23
REMARK    8  A    between atoms: C_10  and  C_11
REMARK    9  A    between atoms: C_10  and  C_17
REMARK   10  A    between atoms: N_23  and  C_24
REMARK   11  A    between atoms: C_24  and  C_25
REMARK   12  A    between atoms: C_28  and  C_30
REMARK   13  A    between atoms: C_31  and  C_33
REMARK   14  A    between atoms: C_37  and  O_40
REMARK   15  A    between atoms: C_38  and  O_39
REMARK                            x       y       z     vdW  Elec       q    Type
REMARK                         _______ _______ _______ _____ _____    ______ ____
ROOT
ATOM      1  C   UNL     1       1.921  -4.104   3.655  0.00  0.00    +0.174 C 
ENDROOT
BRANCH   1   3
ATOM      2  N   UNL     1       0.672  -3.743   1.550  0.00  0.00    -0.314 N 
ATOM      3  C   UNL     1       1.595  -4.456   2.226  0.00  0.00    +0.235 C 
ATOM      4  O   UNL     1       2.162  -5.381   1.685  0.00  0.00    -0.274 OA
ATOM      5  H   UNL     1       0.218  -3.003   1.983  0.00  0.00    +0.149 HD
BRANCH   2   6
ATOM      6  C   UNL     1       0.355  -4.085   0.162  0.00  0.00    +0.104 C 
BRANCH   6   7
ATOM      7  C   UNL     1      -0.715  -3.128  -0.368  0.00  0.00    +0.018 C 
BRANCH   7   9
ATOM      8  C   UNL     1      -2.117  -2.529  -2.347  0.00  0.00    +0.004 C 
ATOM      9  C   UNL     1      -1.046  -3.486  -1.818  0.00  0.00    -0.002 C 
ENDBRANCH   7   9
ENDBRANCH   6   7
ENDBRANCH   2   6
ENDBRANCH   1   3
BRANCH   1  10
ATOM     10  N   UNL     1       2.946  -5.020   4.162  0.00  0.00    -0.278 N 
ATOM     11  C   UNL     1       2.601  -6.022   4.994  0.00  0.00    +0.251 C 
ATOM     12  O   UNL     1       1.429  -6.239   5.232  0.00  0.00    -0.270 OA
BRANCH  11  13
ATOM     13  C   UNL     1       3.647  -6.857   5.616  0.00  0.00    +0.082 A 
ATOM     14  C   UNL     1       4.560  -7.551   4.817  0.00  0.00    +0.017 A 
ATOM     15  C   UNL     1       5.535  -8.329   5.401  0.00  0.00    +0.005 A 
ATOM     16  C   UNL     1       5.618  -8.428   6.781  0.00  0.00    +0.049 A 
ATOM     17  C   UNL     1       4.721  -7.747   7.586  0.00  0.00    +0.159 A 
ATOM     18  C   UNL     1       3.734  -6.953   7.010  0.00  0.00    +0.171 A 
BRANCH  18  19
ATOM     19  O   UNL     1       2.856  -6.279   7.796  0.00  0.00    -0.503 OA
ATOM     20  H   UNL     1       2.056  -6.778   8.010  0.00  0.00    +0.292 HD
ENDBRANCH  18  19
BRANCH  17  21
ATOM     21  O   UNL     1       4.808  -7.850   8.939  0.00  0.00    -0.503 OA
ATOM     22  H   UNL     1       5.377  -7.184   9.348  0.00  0.00    +0.292 HD
ENDBRANCH  17  21
ENDBRANCH  11  13
BRANCH  10  23
ATOM     23  C   UNL     1       4.345  -4.846   3.764  0.00  0.00    +0.183 C 
BRANCH  23  24
ATOM     24  C   UNL     1       4.512  -5.253   2.323  0.00  0.00    +0.122 A 
ATOM     25  C   UNL     1       4.469  -4.426   1.262  0.00  0.00    +0.046 A 
ATOM     26  C   UNL     1       4.672  -5.224   0.113  0.00  0.00    +0.045 A 
ATOM     27  C   UNL     1       4.826  -6.491   0.540  0.00  0.00    +0.102 A 
ATOM     28  O   UNL     1       4.734  -6.501   1.879  0.00  0.00    -0.463 OA
ATOM     29  C   UNL     1       5.067  -7.693  -0.337  0.00  0.00    +0.086 C 
ENDBRANCH  23  24
ENDBRANCH  10  23
ENDBRANCH   1  10
BRANCH   1  30
ATOM     30  C   UNL     1       2.444  -2.667   3.719  0.00  0.00    +0.078 C 
BRANCH  30  31
ATOM     31  C   UNL     1       1.338  -1.713   3.349  0.00  0.00    -0.038 A 
ATOM     32  C   UNL     1       0.212  -1.618   4.144  0.00  0.00    +0.004 A 
ATOM     33  C   UNL     1      -0.803  -0.743   3.805  0.00  0.00    +0.000 A 
ATOM     34  C   UNL     1      -0.690   0.038   2.670  0.00  0.00    +0.000 A 
ATOM     35  C   UNL     1       0.437  -0.055   1.875  0.00  0.00    +0.000 A 
ATOM     36  C   UNL     1       1.453  -0.928   2.217  0.00  0.00    +0.004 A 
ENDBRANCH  30  31
BRANCH  30  37
ATOM     37  C   UNL     1       2.919  -2.368   5.118  0.00  0.00    -0.038 A 
ATOM     38  C   UNL     1       4.080  -1.643   5.314  0.00  0.00    +0.004 A 
ATOM     39  C   UNL     1       4.515  -1.368   6.596  0.00  0.00    +0.000 A 
ATOM     40  C   UNL     1       3.790  -1.818   7.684  0.00  0.00    +0.000 A 
ATOM     41  C   UNL     1       2.629  -2.542   7.488  0.00  0.00    +0.000 A 
ATOM     42  C   UNL     1       2.191  -2.813   6.205  0.00  0.00    +0.004 A 
ENDBRANCH  30  37
ENDBRANCH   1  30
TORSDOF 13
