REMARK  Name = ZINC06887647
REMARK  5 active torsions:
REMARK  status: ('A' for Active; 'I' for Inactive)
REMARK    1  A    between atoms: C_1  and  C_2
REMARK    2  A    between atoms: C_5  and  N_9
REMARK    3  A    between atoms: C_6  and  C_8
REMARK    4  A    between atoms: N_9  and  S_10
REMARK    5  A    between atoms: S_10  and  C_13
REMARK                            x       y       z     vdW  Elec       q    Type
REMARK                         _______ _______ _______ _____ _____    ______ ____
ROOT
ATOM      1  S   UNL     1       0.780  -4.979  -1.271  0.00  0.00    +0.072 S 
ATOM      2  O   UNL     1       0.556  -6.363  -1.040  0.00  0.00    -0.150 OA
ATOM      3  O   UNL     1       0.369  -4.331  -2.467  0.00  0.00    -0.150 OA
ENDROOT
BRANCH   1   4
ATOM      4  C   UNL     1       2.517  -4.719  -1.127  0.00  0.00    +0.110 A 
ATOM      5  C   UNL     1       3.104  -3.635  -1.754  0.00  0.00    +0.030 A 
ATOM      6  C   UNL     1       4.467  -3.422  -1.648  0.00  0.00    +0.018 A 
ATOM      7  C   UNL     1       5.242  -4.302  -0.909  0.00  0.00    +0.029 A 
ATOM      8  C   UNL     1       4.651  -5.393  -0.276  0.00  0.00    +0.049 A 
ATOM      9  C   UNL     1       3.285  -5.597  -0.383  0.00  0.00    +0.053 A 
ATOM     10  N   UNL     1       5.449  -6.271   0.473  0.00  0.00    -0.284 N 
ATOM     11  C   UNL     1       6.290  -5.796   1.400  0.00  0.00    +0.218 C 
ATOM     12  O   UNL     1       7.107  -6.541   1.899  0.00  0.00    -0.275 OA
ATOM     13  C   UNL     1       6.240  -4.361   1.834  0.00  0.00    +0.107 C 
ATOM     14  C   UNL     1       7.179  -3.505   0.967  0.00  0.00    +0.083 C 
ATOM     15  S   UNL     1       6.982  -4.059  -0.760  0.00  0.00    -0.123 S 
ATOM     16  H   UNL     1       5.391  -7.227   0.318  0.00  0.00    +0.155 HD
ENDBRANCH   1   4
BRANCH   1  17
ATOM     17  N   UNL     1       0.058  -4.167  -0.021  0.00  0.00    -0.216 N 
ATOM     18  H   UNL     1      -0.470  -4.653   0.632  0.00  0.00    +0.174 HD
BRANCH  17  23
ATOM     19  C   UNL     1       0.671   1.451   0.442  0.00  0.00    +0.044 C 
ATOM     20  C   UNL     1       0.508  -0.042   0.319  0.00  0.00    -0.050 A 
ATOM     21  C   UNL     1       0.416  -0.625  -0.932  0.00  0.00    +0.005 A 
ATOM     22  C   UNL     1       0.267  -1.993  -1.048  0.00  0.00    +0.025 A 
ATOM     23  C   UNL     1       0.209  -2.784   0.093  0.00  0.00    +0.051 A 
ATOM     24  C   UNL     1       0.302  -2.194   1.347  0.00  0.00    -0.028 A 
ATOM     25  C   UNL     1       0.457  -0.826   1.456  0.00  0.00    +0.008 A 
ATOM     26  C   UNL     1       0.239  -3.048   2.588  0.00  0.00    +0.046 C 
ENDBRANCH  17  23
ENDBRANCH   1  17
TORSDOF 3
