REMARK  Name = ZINC02254167
REMARK  5 active torsions:
REMARK  status: ('A' for Active; 'I' for Inactive)
REMARK    1  A    between atoms: C_1  and  C_2
REMARK    2  A    between atoms: C_5  and  C_8
REMARK    3  A    between atoms: C_19  and  C_21
REMARK    4  A    between atoms: C_33  and  S_35
REMARK    5  A    between atoms: S_35  and  C_36
REMARK                            x       y       z     vdW  Elec       q    Type
REMARK                         _______ _______ _______ _____ _____    ______ ____
ROOT
ATOM      1  C   UNL     1       0.145  -3.109  -1.098  0.00  0.00    +0.159 C 
ATOM      2  C   UNL     1       1.085  -4.143  -0.516  0.00  0.00    +0.025 C 
ATOM      3  C   UNL     1       0.636  -4.908   0.500  0.00  0.00    +0.058 C 
ATOM      4  C   UNL     1       1.573  -5.911   1.067  0.00  0.00    +0.042 A 
ATOM      5  C   UNL     1       1.124  -6.946   1.876  0.00  0.00    +0.033 A 
ATOM      6  C   UNL     1       2.031  -7.860   2.381  0.00  0.00    +0.042 A 
ATOM      7  C   UNL     1       3.378  -7.742   2.082  0.00  0.00    +0.023 A 
ATOM      8  C   UNL     1       3.832  -6.713   1.278  0.00  0.00    +0.048 A 
ATOM      9  C   UNL     1       2.936  -5.792   0.766  0.00  0.00    +0.131 A 
ATOM     10  O   UNL     1       3.355  -4.768  -0.020  0.00  0.00    -0.479 OA
ATOM     11  C   UNL     1       2.474  -4.323  -1.054  0.00  0.00    +0.235 C 
ATOM     12 CL   UNL     1       1.479  -9.157   3.394  0.00  0.00    -0.084 Cl
ATOM     13  N   UNL     1      -0.620  -4.771   0.990  0.00  0.00    -0.326 N 
ATOM     14  C   UNL     1      -1.500  -3.901   0.543  0.00  0.00    +0.216 C 
ATOM     15  N   UNL     1      -1.189  -3.041  -0.488  0.00  0.00    -0.209 N 
ATOM     16  N   UNL     1      -2.321  -2.255  -0.714  0.00  0.00    -0.239 N 
ATOM     17  C   UNL     1      -3.265  -2.672   0.187  0.00  0.00    +0.174 C 
ATOM     18  N   UNL     1      -2.767  -3.640   0.913  0.00  0.00    -0.192 NA
ATOM     19  H   UNL     1      -0.889  -5.354   1.717  0.00  0.00    +0.169 HD
ATOM     20  H   UNL     1      -2.419  -1.554  -1.377  0.00  0.00    +0.172 HD
ENDROOT
BRANCH   1  25
ATOM     21  C   UNL     1       2.628   2.083  -0.579  0.00  0.00    +0.044 C 
ATOM     22  C   UNL     1       1.981   0.729  -0.715  0.00  0.00    -0.050 A 
ATOM     23  C   UNL     1       1.643   0.246  -1.965  0.00  0.00    +0.004 A 
ATOM     24  C   UNL     1       1.049  -0.996  -2.089  0.00  0.00    +0.006 A 
ATOM     25  C   UNL     1       0.794  -1.756  -0.963  0.00  0.00    -0.021 A 
ATOM     26  C   UNL     1       1.132  -1.273   0.288  0.00  0.00    +0.006 A 
ATOM     27  C   UNL     1       1.730  -0.033   0.411  0.00  0.00    +0.004 A 
ENDBRANCH   1  25
BRANCH  11  28
ATOM     28  C   UNL     1       2.450  -5.345  -2.162  0.00  0.00    +0.015 A 
ATOM     29  C   UNL     1       2.673  -6.679  -1.877  0.00  0.00    +0.009 A 
ATOM     30  C   UNL     1       2.651  -7.616  -2.893  0.00  0.00    +0.000 A 
ATOM     31  C   UNL     1       2.407  -7.219  -4.195  0.00  0.00    +0.001 A 
ATOM     32  C   UNL     1       2.185  -5.885  -4.481  0.00  0.00    +0.020 A 
ATOM     33  C   UNL     1       2.201  -4.948  -3.463  0.00  0.00    +0.048 A 
ATOM     34 CL   UNL     1       1.915  -3.273  -3.821  0.00  0.00    -0.083 Cl
ENDBRANCH  11  28
BRANCH  17  35
ATOM     35  S   UNL     1      -4.893  -2.014   0.340  0.00  0.00    -0.092 S 
ATOM     36  C   UNL     1      -5.629  -2.976   1.690  0.00  0.00    +0.093 C 
ENDBRANCH  17  35
TORSDOF 3
