REMARK  Name = ZINC10698947
REMARK  9 active torsions:
REMARK  status: ('A' for Active; 'I' for Inactive)
REMARK    1  A    between atoms: C_1  and  C_2
REMARK    2  A    between atoms: C_2  and  O_3
REMARK    3  A    between atoms: O_3  and  C_4
REMARK    4  A    between atoms: C_7  and  C_9
REMARK    5  A    between atoms: C_13  and  N_14
REMARK    6  A    between atoms: C_15  and  C_17
REMARK    7  A    between atoms: C_17  and  C_18
REMARK    8  A    between atoms: C_21  and  C_24
REMARK    9  A    between atoms: C_26  and  C_30
REMARK                            x       y       z     vdW  Elec       q    Type
REMARK                         _______ _______ _______ _____ _____    ______ ____
ROOT
ATOM      1  C   UNL     1      -2.505   1.114   0.014  0.00  0.00    +0.069 A 
ATOM      2  C   UNL     1      -3.616   2.051   0.030  0.00  0.00    -0.023 A 
ATOM      3  C   UNL     1      -3.268   3.356   0.035  0.00  0.00    -0.004 A 
ATOM      4  S   UNL     1      -1.498   3.353   0.027  0.00  0.00    -0.077 S 
ATOM      5  C   UNL     1      -1.221   1.643   0.017  0.00  0.00    +0.084 A 
ATOM      6  C   UNL     1      -4.190   4.537   0.046  0.00  0.00    +0.046 C 
ATOM      7  C   UNL     1      -5.595   4.049   0.429  0.00  0.00    -0.009 C 
ATOM      8  C   UNL     1      -5.936   2.816  -0.413  0.00  0.00    +0.008 C 
ATOM      9  C   UNL     1      -5.080   1.629   0.034  0.00  0.00    +0.037 C 
ATOM     10  C   UNL     1      -6.614   5.158   0.156  0.00  0.00    +0.008 C 
ENDROOT
BRANCH   1  14
ATOM     11  C   UNL     1      -3.046  -2.319  -1.185  0.00  0.00    +0.407 C 
ATOM     12  O   UNL     1      -3.138  -2.929  -0.138  0.00  0.00    -0.226 OA
ATOM     13  N   UNL     1      -2.837  -0.988  -1.172  0.00  0.00    -0.217 N 
ATOM     14  C   UNL     1      -2.731  -0.333   0.001  0.00  0.00    +0.255 C 
ATOM     15  O   UNL     1      -2.824  -0.944   1.049  0.00  0.00    -0.270 OA
ATOM     16  H   UNL     1      -2.764  -0.501  -2.008  0.00  0.00    +0.161 HD
BRANCH  11  17
ATOM     17  O   UNL     1      -3.152  -2.973  -2.356  0.00  0.00    -0.450 OA
BRANCH  17  19
ATOM     18  C   UNL     1      -3.468  -4.971  -3.713  0.00  0.00    +0.048 C 
ATOM     19  C   UNL     1      -3.376  -4.406  -2.293  0.00  0.00    +0.230 C 
ENDBRANCH  17  19
ENDBRANCH  11  17
ENDBRANCH   1  14
BRANCH   5  20
ATOM     20  N   UNL     1      -0.011   0.966   0.007  0.00  0.00    -0.279 N 
ATOM     21  C   UNL     1       1.147   1.655   0.000  0.00  0.00    +0.222 C 
ATOM     22  O   UNL     1       1.130   2.868   0.007  0.00  0.00    -0.275 OA
ATOM     23  H   UNL     1       0.002  -0.004   0.002  0.00  0.00    +0.155 HD
BRANCH  21  24
ATOM     24  C   UNL     1       2.462   0.920  -0.017  0.00  0.00    +0.131 C 
BRANCH  24  25
ATOM     25  C   UNL     1       3.594   1.915  -0.022  0.00  0.00    -0.039 A 
ATOM     26  C   UNL     1       4.106   2.373  -1.222  0.00  0.00    +0.004 A 
ATOM     27  C   UNL     1       5.141   3.289  -1.227  0.00  0.00    +0.003 A 
ATOM     28  C   UNL     1       5.671   3.739  -0.032  0.00  0.00    -0.050 A 
ATOM     29  C   UNL     1       5.163   3.277   1.168  0.00  0.00    +0.003 A 
ATOM     30  C   UNL     1       4.125   2.365   1.173  0.00  0.00    +0.004 A 
ATOM     31  C   UNL     1       6.804   4.733  -0.037  0.00  0.00    +0.044 C 
ENDBRANCH  24  25
ENDBRANCH  21  24
ENDBRANCH   5  20
TORSDOF 6
