REMARK  Name = ZINC53235445
REMARK  10 active torsions:
REMARK  status: ('A' for Active; 'I' for Inactive)
REMARK    1  A    between atoms: C_1  and  C_2
REMARK    2  A    between atoms: C_2  and  C_4
REMARK    3  A    between atoms: C_2  and  N_11
REMARK    4  A    between atoms: N_11  and  C_12
REMARK    5  A    between atoms: N_11  and  C_13
REMARK    6  A    between atoms: C_13  and  C_14
REMARK    7  A    between atoms: N_16  and  C_17
REMARK    8  A    between atoms: C_17  and  C_18
REMARK    9  A    between atoms: C_21  and  S_24
REMARK   10  A    between atoms: S_24  and  N_27
REMARK                            x       y       z     vdW  Elec       q    Type
REMARK                         _______ _______ _______ _____ _____    ______ ____
ROOT
ATOM      1  C   UNL     1       2.782  -0.379   2.461  0.00  0.00    +0.197 C 
ATOM      2  O   UNL     1       2.186  -1.021   3.299  0.00  0.00    -0.278 OA
ATOM      3  N   UNL     1       4.063  -0.019   2.674  0.00  0.00    -0.313 N 
ATOM      4  H   UNL     1       4.540   0.495   2.004  0.00  0.00    +0.149 HD
ENDROOT
BRANCH   1   5
ATOM      5  C   UNL     1       2.091   0.018   1.182  0.00  0.00    +0.019 C 
BRANCH   5   6
ATOM      6  N   UNL     1       0.713  -0.491   1.192  0.00  0.00    +0.388 N 
ATOM      7  C   UNL     1       0.733  -1.960   1.184  0.00  0.00    -0.095 C 
ATOM      8  H   UNL     1       0.240  -0.165   2.022  0.00  0.00    -0.081 HD
BRANCH   6  10
ATOM      9  C   UNL     1      -0.019   1.526   0.010  0.00  0.00    -0.008 C 
ATOM     10  C   UNL     1       0.002  -0.004   0.002  0.00  0.00    -0.039 C 
BRANCH  10  11
ATOM     11  C   UNL     1      -1.412  -0.526   0.013  0.00  0.00    -0.043 A 
ATOM     12  C   UNL     1      -2.015  -0.864   1.210  0.00  0.00    +0.003 A 
ATOM     13  C   UNL     1      -3.312  -1.342   1.220  0.00  0.00    +0.000 A 
ATOM     14  C   UNL     1      -4.006  -1.483   0.033  0.00  0.00    +0.001 A 
ATOM     15  C   UNL     1      -3.404  -1.145  -1.165  0.00  0.00    +0.020 A 
ATOM     16  C   UNL     1      -2.108  -0.661  -1.175  0.00  0.00    +0.043 A 
ATOM     17 CL   UNL     1      -1.354  -0.230  -2.678  0.00  0.00    -0.083 Cl
ENDBRANCH  10  11
ENDBRANCH   6  10
ENDBRANCH   5   6
ENDBRANCH   1   5
BRANCH   3  18
ATOM     18  C   UNL     1       4.736  -0.404   3.917  0.00  0.00    +0.139 C 
BRANCH  18  19
ATOM     19  C   UNL     1       6.149   0.117   3.906  0.00  0.00    -0.030 A 
ATOM     20  C   UNL     1       7.168  -0.656   3.381  0.00  0.00    +0.007 A 
ATOM     21  C   UNL     1       8.464  -0.178   3.372  0.00  0.00    +0.029 A 
ATOM     22  C   UNL     1       8.743   1.075   3.886  0.00  0.00    +0.105 A 
ATOM     23  C   UNL     1       7.725   1.849   4.410  0.00  0.00    +0.029 A 
ATOM     24  C   UNL     1       6.427   1.372   4.416  0.00  0.00    +0.007 A 
BRANCH  22  25
ATOM     25  S   UNL     1      10.396   1.684   3.875  0.00  0.00    +0.056 S 
ATOM     26  O   UNL     1      10.478   2.655   4.909  0.00  0.00    -0.153 OA
ATOM     27  O   UNL     1      11.248   0.547   3.828  0.00  0.00    -0.153 OA
BRANCH  25  28
ATOM     28  N   UNL     1      10.610   2.494   2.446  0.00  0.00    -0.204 NA
ATOM     29  H   UNL     1      11.228   3.240   2.399  0.00  0.00    +0.144 HD
ATOM     30  H   UNL     1      10.116   2.223   1.657  0.00  0.00    +0.144 HD
ENDBRANCH  25  28
ENDBRANCH  22  25
ENDBRANCH  18  19
ENDBRANCH   3  18
TORSDOF 8
