REMARK  Name = ZINC05931421
REMARK  8 active torsions:
REMARK  status: ('A' for Active; 'I' for Inactive)
REMARK    1  A    between atoms: C_1  and  C_2
REMARK    2  A    between atoms: C_2  and  C_3
REMARK    3  A    between atoms: C_3  and  C_5
REMARK    4  A    between atoms: C_3  and  S_6
REMARK    5  A    between atoms: S_6  and  C_7
REMARK    6  A    between atoms: C_18  and  C_20
REMARK    7  A    between atoms: C_29  and  C_31
REMARK    8  A    between atoms: C_29  and  C_32
REMARK                            x       y       z     vdW  Elec       q    Type
REMARK                         _______ _______ _______ _____ _____    ______ ____
ROOT
ATOM      1  C   UNL     1      -2.083   2.439   3.410  0.00  0.00    +0.171 A 
ATOM      2  N   UNL     1      -2.583   1.380   2.713  0.00  0.00    -0.302 N 
ATOM      3  H   UNL     1      -3.513   0.894   3.044  0.00  0.00    +0.171 HD
ATOM      4  C   UNL     1      -1.938   0.926   1.618  0.00  0.00    +0.258 A 
ATOM      5  O   UNL     1      -2.379  -0.020   0.985  0.00  0.00    -0.267 OA
ATOM      6  C   UNL     1      -0.755   1.560   1.221  0.00  0.00    +0.069 A 
ATOM      7  C   UNL     1      -0.288   2.629   1.965  0.00  0.00    +0.135 A 
ATOM      8  N   UNL     1      -0.970   3.039   3.040  0.00  0.00    -0.208 NA
ATOM      9  N   UNL     1       0.880   3.264   1.591  0.00  0.00    -0.302 N 
ATOM     10  C   UNL     1       1.777   2.644   0.765  0.00  0.00    +0.017 C 
ATOM     11  C   UNL     1       1.405   1.599  -0.003  0.00  0.00    +0.024 C 
ATOM     12  C   UNL     1      -0.013   1.086   0.008  0.00  0.00    +0.092 C 
ATOM     13  C   UNL     1       2.331   0.951  -0.840  0.00  0.00    +0.162 C 
ATOM     14  O   UNL     1       1.961   0.019  -1.527  0.00  0.00    -0.292 OA
ATOM     15  C   UNL     1       3.768   1.387  -0.902  0.00  0.00    +0.086 C 
ATOM     16  C   UNL     1       4.158   2.010   0.443  0.00  0.00    -0.023 C 
ATOM     17  C   UNL     1       3.195   3.161   0.740  0.00  0.00    +0.058 C 
ATOM     18  C   UNL     1       4.057   0.956   1.547  0.00  0.00    +0.011 C 
ATOM     19  C   UNL     1       5.591   2.542   0.368  0.00  0.00    +0.011 C 
ATOM     20  H   UNL     1       1.096   4.278   1.958  0.00  0.00    +0.153 HD
ENDROOT
BRANCH  12  21
ATOM     21  C   UNL     1      -0.724   1.576  -1.227  0.00  0.00    -0.032 A 
ATOM     22  C   UNL     1      -0.886   2.933  -1.461  0.00  0.00    +0.024 A 
ATOM     23  C   UNL     1      -1.540   3.345  -2.607  0.00  0.00    +0.111 A 
ATOM     24  N   UNL     1      -2.014   2.465  -3.466  0.00  0.00    -0.263 NA
ATOM     25  C   UNL     1      -1.883   1.167  -3.274  0.00  0.00    +0.111 A 
ATOM     26  C   UNL     1      -1.236   0.681  -2.153  0.00  0.00    +0.024 A 
ENDBRANCH  12  21
BRANCH   1  27
ATOM     27  S   UNL     1      -2.943   3.018   4.835  0.00  0.00    -0.085 S 
BRANCH  27  28
ATOM     28  C   UNL     1      -1.858   4.381   5.324  0.00  0.00    +0.051 C 
ATOM     29  C   UNL     1      -1.876   5.462   4.241  0.00  0.00    +0.019 C 
BRANCH  28  31
ATOM     30  C   UNL     1      -2.215   3.931   7.756  0.00  0.00    +0.005 C 
ATOM     31  C   UNL     1      -2.350   4.975   6.646  0.00  0.00    +0.011 C 
ENDBRANCH  28  31
ENDBRANCH  27  28
ENDBRANCH   1  27
TORSDOF 4
