REMARK  Name = ZINC39867393
REMARK  6 active torsions:
REMARK  status: ('A' for Active; 'I' for Inactive)
REMARK    1  A    between atoms: C_1  and  C_2
REMARK    2  A    between atoms: C_13  and  C_15
REMARK    3  A    between atoms: C_15  and  C_16
REMARK    4  A    between atoms: C_16  and  C_17
REMARK    5  A    between atoms: C_17  and  C_18
REMARK    6  A    between atoms: C_26  and  C_28
REMARK                            x       y       z     vdW  Elec       q    Type
REMARK                         _______ _______ _______ _____ _____    ______ ____
ROOT
ATOM      1  C   UNL     1       2.327   1.448   6.823  0.00  0.00    -0.013 A 
ATOM      2  C   UNL     1       1.360   1.471   7.918  0.00  0.00    +0.005 A 
ATOM      3  C   UNL     1       0.294   0.644   8.286  0.00  0.00    +0.030 A 
ATOM      4  C   UNL     1      -0.443   0.941   9.398  0.00  0.00    +0.042 A 
ATOM      5  C   UNL     1      -0.143   2.059  10.165  0.00  0.00    +0.022 A 
ATOM      6  C   UNL     1       0.902   2.888   9.821  0.00  0.00    +0.027 A 
ATOM      7  C   UNL     1       1.667   2.606   8.694  0.00  0.00    +0.047 A 
ATOM      8  N   UNL     1       2.747   3.226   8.107  0.00  0.00    -0.353 N 
ATOM      9  C   UNL     1       3.139   2.523   6.990  0.00  0.00    +0.069 A 
ATOM     10  H   UNL     1       3.171   4.036   8.433  0.00  0.00    +0.166 HD
ATOM     11 CL   UNL     1      -1.766  -0.086   9.853  0.00  0.00    -0.084 Cl
ENDROOT
BRANCH   9  12
ATOM     12  C   UNL     1       4.267   2.884   6.108  0.00  0.00    +0.088 A 
ATOM     13  C   UNL     1       4.691   4.223   6.047  0.00  0.00    +0.030 A 
ATOM     14  C   UNL     1       5.731   4.569   5.237  0.00  0.00    +0.012 A 
ATOM     15  C   UNL     1       6.352   3.556   4.478  0.00  0.00    +0.000 A 
ATOM     16  C   UNL     1       7.428   3.844   3.625  0.00  0.00    +0.010 A 
ATOM     17  C   UNL     1       8.005   2.841   2.906  0.00  0.00    +0.001 A 
ATOM     18  C   UNL     1       7.542   1.531   3.006  0.00  0.00    +0.002 A 
ATOM     19  C   UNL     1       6.500   1.216   3.823  0.00  0.00    +0.028 A 
ATOM     20  C   UNL     1       5.878   2.224   4.582  0.00  0.00    +0.072 A 
ATOM     21  N   UNL     1       4.858   1.941   5.396  0.00  0.00    -0.245 NA
ENDBRANCH   9  12
BRANCH   1  22
ATOM     22  C   UNL     1       2.410   0.424   5.721  0.00  0.00    +0.038 C 
BRANCH  22  23
ATOM     23  C   UNL     1       1.544   0.871   4.542  0.00  0.00    +0.014 C 
BRANCH  23  24
ATOM     24  C   UNL     1       1.629  -0.169   3.423  0.00  0.00    +0.096 C 
BRANCH  24  36
ATOM     25  C   UNL     1       1.830  -2.224   2.361  0.00  0.00    +0.028 C 
ATOM     26  C   UNL     1       1.601  -1.634   0.968  0.00  0.00    +0.079 C 
ATOM     27  C   UNL     1       0.752  -2.597   0.129  0.00  0.00    +0.027 C 
ATOM     28  C   UNL     1       0.596  -2.021  -1.279  0.00  0.00    +0.039 C 
ATOM     29  C   UNL     1       0.113  -0.597  -1.215  0.00  0.00    -0.023 A 
ATOM     30  C   UNL     1      -0.495  -0.045  -2.331  0.00  0.00    +0.043 A 
ATOM     31  C   UNL     1      -0.947   1.262  -2.305  0.00  0.00    +0.124 A 
ATOM     32  C   UNL     1      -0.794   2.027  -1.161  0.00  0.00    +0.040 A 
ATOM     33  C   UNL     1      -0.191   1.482  -0.045  0.00  0.00    +0.026 A 
ATOM     34  C   UNL     1       0.263   0.169  -0.070  0.00  0.00    +0.040 A 
ATOM     35  N   UNL     1       0.868  -0.366   1.078  0.00  0.00    -0.268 N 
ATOM     36  C   UNL     1       0.776   0.272   2.262  0.00  0.00    +0.220 C 
ATOM     37  O   UNL     1       0.007   1.200   2.392  0.00  0.00    -0.275 OA
ATOM     38  F   UNL     1      -1.539   1.792  -3.397  0.00  0.00    -0.205 F 
ENDBRANCH  24  36
ENDBRANCH  23  24
ENDBRANCH  22  23
ENDBRANCH   1  22
TORSDOF 5
