REMARK  Name = ZINC63372193
REMARK  7 active torsions:
REMARK  status: ('A' for Active; 'I' for Inactive)
REMARK    1  A    between atoms: C_1  and  C_2
REMARK    2  A    between atoms: C_2  and  O_3
REMARK    3  A    between atoms: O_3  and  C_4
REMARK    4  A    between atoms: C_9  and  N_10
REMARK    5  A    between atoms: C_13  and  C_20
REMARK    6  A    between atoms: C_27  and  O_32
REMARK    7  A    between atoms: O_32  and  C_33
REMARK                            x       y       z     vdW  Elec       q    Type
REMARK                         _______ _______ _______ _____ _____    ______ ____
ROOT
ATOM      1  N   UNL     1      -3.904  -1.564   0.031  0.00  0.00    -0.225 N 
ATOM      2  C   UNL     1      -4.455  -1.164  -1.132  0.00  0.00    +0.270 A 
ATOM      3  O   UNL     1      -3.979  -1.526  -2.194  0.00  0.00    -0.267 OA
ATOM      4  C   UNL     1      -5.584  -0.326  -1.111  0.00  0.00    +0.101 A 
ATOM      5  C   UNL     1      -6.098   0.064   0.090  0.00  0.00    +0.263 A 
ATOM      6  N   UNL     1      -5.505  -0.367   1.250  0.00  0.00    -0.274 N 
ATOM      7  H   UNL     1      -5.867  -0.092   2.106  0.00  0.00    +0.173 HD
ATOM      8  C   UNL     1      -4.429  -1.173   1.206  0.00  0.00    +0.337 A 
ATOM      9  O   UNL     1      -3.920  -1.549   2.245  0.00  0.00    -0.246 OA
ATOM     10  O   UNL     1      -7.181   0.869   0.137  0.00  0.00    -0.267 OA
ENDROOT
BRANCH   4  11
ATOM     11  C   UNL     1      -6.217   0.134  -2.399  0.00  0.00    +0.121 C 
ATOM     12  C   UNL     1      -5.234   1.018  -3.170  0.00  0.00    +0.128 C 
ATOM     13  C   UNL     1      -5.880   1.296  -4.522  0.00  0.00    -0.035 C 
ATOM     14  C   UNL     1      -5.899   2.613  -4.666  0.00  0.00    +0.003 A 
ATOM     15  C   UNL     1      -6.314   3.477  -5.782  0.00  0.00    +0.055 A 
ATOM     16  C   UNL     1      -6.213   4.820  -5.586  0.00  0.00    +0.121 A 
ATOM     17  C   UNL     1      -5.743   5.407  -4.402  0.00  0.00    +0.047 A 
ATOM     18  C   UNL     1      -5.328   4.706  -3.315  0.00  0.00    +0.029 A 
ATOM     19  C   UNL     1      -5.386   3.241  -3.408  0.00  0.00    +0.043 A 
ATOM     20  N   UNL     1      -5.031   2.320  -2.536  0.00  0.00    -0.376 N 
ATOM     21  C   UNL     1      -6.439   0.184  -5.376  0.00  0.00    +0.048 C 
ATOM     22  C   UNL     1      -7.301  -0.684  -4.442  0.00  0.00    +0.086 C 
ATOM     23  N   UNL     1      -6.546  -1.032  -3.235  0.00  0.00    -0.307 NA
ATOM     24  H   UNL     1      -5.715  -1.556  -3.467  0.00  0.00    +0.123 HD
ATOM     25  H   UNL     1      -4.700   2.468  -1.636  0.00  0.00    +0.160 HD
BRANCH  16  26
ATOM     26  O   UNL     1      -6.590   5.644  -6.599  0.00  0.00    -0.495 OA
ATOM     27  C   UNL     1      -6.474   7.049  -6.371  0.00  0.00    +0.277 C 
ENDBRANCH  16  26
ENDBRANCH   4  11
BRANCH   1  33
ATOM     28  C   UNL     1      -1.498  -1.849   0.006  0.00  0.00    +0.144 A 
ATOM     29  C   UNL     1      -0.389  -2.679  -0.003  0.00  0.00    +0.048 A 
ATOM     30  C   UNL     1      -0.553  -4.052  -0.009  0.00  0.00    +0.004 A 
ATOM     31  C   UNL     1      -1.823  -4.600  -0.006  0.00  0.00    +0.002 A 
ATOM     32  C   UNL     1      -2.934  -3.779   0.004  0.00  0.00    +0.030 A 
ATOM     33  C   UNL     1      -2.777  -2.401   0.016  0.00  0.00    +0.096 A 
BRANCH  28  34
ATOM     34  O   UNL     1      -1.339  -0.499   0.012  0.00  0.00    -0.490 OA
BRANCH  34  36
ATOM     35  C   UNL     1      -0.019   1.526   0.010  0.00  0.00    +0.048 C 
ATOM     36  C   UNL     1       0.002  -0.004   0.002  0.00  0.00    +0.226 C 
ENDBRANCH  34  36
ENDBRANCH  28  34
ENDBRANCH   1  33
TORSDOF 5
