REMARK  Name = ZINC05575143
REMARK  7 active torsions:
REMARK  status: ('A' for Active; 'I' for Inactive)
REMARK    1  A    between atoms: C_1  and  C_2
REMARK    2  A    between atoms: C_4  and  C_26
REMARK    3  A    between atoms: C_16  and  C_18
REMARK    4  A    between atoms: C_16  and  C_19
REMARK    5  A    between atoms: C_20  and  S_22
REMARK    6  A    between atoms: S_22  and  C_23
REMARK    7  A    between atoms: C_23  and  C_24
REMARK                            x       y       z     vdW  Elec       q    Type
REMARK                         _______ _______ _______ _____ _____    ______ ____
ROOT
ATOM      1  C   UNL     1      -5.173   5.995   0.080  0.00  0.00    +0.067 C 
ATOM      2  C   UNL     1      -3.676   5.815   0.067  0.00  0.00    +0.061 A 
ATOM      3  C   UNL     1      -2.728   6.844   0.063  0.00  0.00    +0.048 A 
ATOM      4  C   UNL     1      -1.499   6.279   0.050  0.00  0.00    +0.045 A 
ATOM      5  N   UNL     1      -1.667   4.930   0.044  0.00  0.00    -0.202 N 
ATOM      6  N   UNL     1      -3.044   4.670   0.050  0.00  0.00    -0.169 NA
ATOM      7  C   UNL     1      -0.650   3.975   0.030  0.00  0.00    +0.254 A 
ATOM      8  N   UNL     1      -0.967   2.689   0.030  0.00  0.00    -0.203 NA
ATOM      9  C   UNL     1      -0.022   1.770   0.012  0.00  0.00    +0.115 A 
ATOM     10  C   UNL     1       1.345   2.118   0.001  0.00  0.00    +0.043 A 
ATOM     11  C   UNL     1       2.283   0.997  -0.014  0.00  0.00    -0.020 A 
ATOM     12  C   UNL     1       1.756  -0.246  -0.016  0.00  0.00    +0.021 A 
ATOM     13  S   UNL     1       0.002  -0.004   0.002  0.00  0.00    -0.071 S 
ATOM     14  C   UNL     1       2.522  -1.533  -0.030  0.00  0.00    +0.203 C 
ATOM     15  O   UNL     1       3.886  -1.231  -0.362  0.00  0.00    -0.368 OA
ATOM     16  C   UNL     1       4.434  -0.154   0.402  0.00  0.00    +0.068 C 
ATOM     17  C   UNL     1       3.800   1.173  -0.027  0.00  0.00    +0.071 C 
ATOM     18  C   UNL     1       4.155  -0.392   1.888  0.00  0.00    +0.041 C 
ATOM     19  C   UNL     1       5.945  -0.087   0.174  0.00  0.00    +0.041 C 
ATOM     20  C   UNL     1       1.622   3.514   0.005  0.00  0.00    +0.111 A 
ATOM     21  N   UNL     1       0.615   4.372   0.020  0.00  0.00    -0.204 NA
ATOM     22  C   UNL     1      -0.182   7.011   0.042  0.00  0.00    +0.066 C 
ENDROOT
BRANCH  20  23
ATOM     23  S   UNL     1       3.286   4.093  -0.008  0.00  0.00    -0.101 S 
BRANCH  23  24
ATOM     24  C   UNL     1       2.997   5.880   0.004  0.00  0.00    +0.102 C 
BRANCH  24  25
ATOM     25  C   UNL     1       4.319   6.602  -0.005  0.00  0.00    -0.023 C 
ATOM     26  C   UNL     1       4.654   7.343  -1.032  0.00  0.00    +0.005 C 
ENDBRANCH  24  25
ENDBRANCH  23  24
ENDBRANCH  20  23
TORSDOF 3
