REMARK  Name = ZINC06942914
REMARK  5 active torsions:
REMARK  status: ('A' for Active; 'I' for Inactive)
REMARK    1  A    between atoms: C_10  and  N_11
REMARK    2  A    between atoms: N_11  and  N_12
REMARK    3  A    between atoms: N_12  and  C_13
REMARK    4  A    between atoms: C_13  and  N_15
REMARK    5  A    between atoms: N_15  and  C_16
REMARK                            x       y       z     vdW  Elec       q    Type
REMARK                         _______ _______ _______ _____ _____    ______ ____
ROOT
ATOM      1  N   UNL     1      -4.789   3.957   0.299  0.00  0.00    -0.246 N 
ATOM      2  H   UNL     1      -4.717   4.907   0.482  0.00  0.00    +0.172 HD
ENDROOT
BRANCH   1   3
ATOM      3  N   UNL     1      -3.639   3.211   0.011  0.00  0.00    -0.247 N 
ATOM      4  H   UNL     1      -3.711   2.261  -0.172  0.00  0.00    +0.172 HD
BRANCH   3  14
ATOM      5  C   UNL     1       1.131   1.754  -0.858  0.00  0.00    +0.001 A 
ATOM      6  C   UNL     1      -0.083   1.071  -0.849  0.00  0.00    +0.001 A 
ATOM      7  C   UNL     1      -1.253   1.718  -0.583  0.00  0.00    +0.012 A 
ATOM      8  C   UNL     1      -1.231   3.089  -0.304  0.00  0.00    +0.027 A 
ATOM      9  C   UNL     1       0.005   3.786  -0.312  0.00  0.00    +0.005 A 
ATOM     10  C   UNL     1       1.187   3.091  -0.595  0.00  0.00    +0.010 A 
ATOM     11  C   UNL     1      -0.019   5.165  -0.032  0.00  0.00    +0.143 A 
ATOM     12  N   UNL     1      -1.169   5.745   0.223  0.00  0.00    -0.155 NA
ATOM     13  N   UNL     1      -2.288   5.122   0.233  0.00  0.00    -0.132 NA
ATOM     14  C   UNL     1      -2.400   3.829  -0.014  0.00  0.00    +0.165 A 
ENDBRANCH   3  14
ENDBRANCH   1   3
BRANCH   1  15
ATOM     15  C   UNL     1      -5.995   3.355   0.323  0.00  0.00    +0.151 C 
ATOM     16  S   UNL     1      -7.400   4.267   0.676  0.00  0.00    -0.017 S 
BRANCH  15  17
ATOM     17  N   UNL     1      -6.094   2.035   0.069  0.00  0.00    -0.295 N 
ATOM     18  H   UNL     1      -5.308   1.531  -0.192  0.00  0.00    +0.154 HD
BRANCH  17  19
ATOM     19  C   UNL     1      -7.332   1.392   0.183  0.00  0.00    +0.051 A 
ATOM     20  C   UNL     1      -8.463   1.953  -0.395  0.00  0.00    +0.026 A 
ATOM     21  C   UNL     1      -9.684   1.317  -0.282  0.00  0.00    +0.022 A 
ATOM     22  C   UNL     1      -9.781   0.120   0.407  0.00  0.00    +0.042 A 
ATOM     23  C   UNL     1      -8.656  -0.442   0.985  0.00  0.00    +0.041 A 
ATOM     24  C   UNL     1      -7.431   0.188   0.869  0.00  0.00    +0.063 A 
ATOM     25 CL   UNL     1      -6.018  -0.521   1.587  0.00  0.00    -0.082 Cl
ATOM     26 CL   UNL     1     -11.317  -0.676   0.548  0.00  0.00    -0.083 Cl
ENDBRANCH  17  19
ENDBRANCH  15  17
ENDBRANCH   1  15
TORSDOF 5
