REMARK  Name = ZINC16011430
REMARK  3 active torsions:
REMARK  status: ('A' for Active; 'I' for Inactive)
REMARK    1  A    between atoms: C_3  and  C_7
REMARK    2  A    between atoms: C_7  and  C_9
REMARK    3  A    between atoms: C_11  and  C_30
REMARK                            x       y       z     vdW  Elec       q    Type
REMARK                         _______ _______ _______ _____ _____    ______ ____
ROOT
ATOM      1  C   UNL     1      -3.337   3.606  -1.258  0.00  0.00    +0.103 C 
ATOM      2  C   UNL     1      -2.891   3.689   0.218  0.00  0.00    +0.050 C 
ATOM      3  C   UNL     1      -4.117   3.179   1.005  0.00  0.00    +0.077 C 
ATOM      4  C   UNL     1      -3.933   1.646   1.214  0.00  0.00    +0.090 C 
ATOM      5  S   UNL     1      -5.712   1.157   1.326  0.00  0.00    -0.144 S 
ATOM      6  C   UNL     1      -6.385   2.469   0.220  0.00  0.00    +0.155 C 
ATOM      7  N   UNL     1      -5.291   3.456   0.170  0.00  0.00    -0.271 NA
ATOM      8  C   UNL     1      -4.864   3.731  -1.201  0.00  0.00    +0.137 C 
ATOM      9  C   UNL     1      -5.304   5.100  -1.651  0.00  0.00    +0.005 A 
ATOM     10  C   UNL     1      -5.058   6.370  -1.180  0.00  0.00    +0.027 A 
ATOM     11  C   UNL     1      -5.616   7.465  -1.819  0.00  0.00    +0.041 A 
ATOM     12  C   UNL     1      -6.420   7.276  -2.929  0.00  0.00    +0.022 A 
ATOM     13  C   UNL     1      -6.668   6.005  -3.403  0.00  0.00    +0.025 A 
ATOM     14  C   UNL     1      -6.110   4.899  -2.765  0.00  0.00    +0.039 A 
ATOM     15  N   UNL     1      -6.211   3.535  -3.048  0.00  0.00    -0.283 N 
ATOM     16  C   UNL     1      -5.512   2.782  -2.179  0.00  0.00    +0.243 C 
ATOM     17  O   UNL     1      -5.421   1.573  -2.180  0.00  0.00    -0.273 OA
ATOM     18 CL   UNL     1      -5.308   9.068  -1.228  0.00  0.00    -0.084 Cl
ATOM     19  H   UNL     1      -6.814   3.194  -3.903  0.00  0.00    +0.155 HD
ENDROOT
BRANCH   2  20
ATOM     20  C   UNL     1      -1.699   2.800   0.462  0.00  0.00    -0.042 A 
ATOM     21  C   UNL     1      -1.690   1.507  -0.026  0.00  0.00    +0.005 A 
ATOM     22  C   UNL     1      -0.599   0.689   0.202  0.00  0.00    +0.020 A 
ATOM     23  C   UNL     1       0.489   1.169   0.909  0.00  0.00    +0.041 A 
ATOM     24  C   UNL     1       0.482   2.466   1.392  0.00  0.00    +0.020 A 
ATOM     25  C   UNL     1      -0.611   3.281   1.168  0.00  0.00    +0.005 A 
ATOM     26 CL   UNL     1       1.863   0.145   1.189  0.00  0.00    -0.084 Cl
ENDBRANCH   2  20
BRANCH   1  27
ATOM     27  C   UNL     1      -2.939   2.280  -1.854  0.00  0.00    +0.171 C 
ATOM     28  O   UNL     1      -3.641   1.306  -1.689  0.00  0.00    -0.292 OA
BRANCH  27  31
ATOM     29  C   UNL     1      -0.138   0.890  -3.922  0.00  0.00    +0.020 A 
ATOM     30  C   UNL     1      -1.312   0.939  -3.192  0.00  0.00    +0.014 A 
ATOM     31  C   UNL     1      -1.697   2.168  -2.636  0.00  0.00    +0.036 A 
ATOM     32  C   UNL     1      -0.878   3.284  -2.834  0.00  0.00    +0.122 A 
ATOM     33  N   UNL     1       0.233   3.183  -3.534  0.00  0.00    -0.263 NA
ATOM     34  C   UNL     1       0.616   2.040  -4.072  0.00  0.00    +0.111 A 
ENDBRANCH  27  31
ENDBRANCH   1  27
TORSDOF 3
