REMARK  Name = ZINC35779663
REMARK  12 active torsions:
REMARK  status: ('A' for Active; 'I' for Inactive)
REMARK    1  A    between atoms: C_1  and  C_2
REMARK    2  A    between atoms: N_8  and  C_9
REMARK    3  A    between atoms: C_9  and  C_10
REMARK    4  A    between atoms: C_10  and  C_11
REMARK    5  A    between atoms: C_11  and  N_12
REMARK    6  A    between atoms: C_13  and  C_15
REMARK    7  A    between atoms: C_15  and  C_17
REMARK    8  A    between atoms: C_15  and  N_22
REMARK    9  A    between atoms: N_30  and  C_31
REMARK   10  A    between atoms: C_34  and  C_37
REMARK   11  A    between atoms: C_37  and  C_38
REMARK   12  A    between atoms: C_37  and  C_39
REMARK                            x       y       z     vdW  Elec       q    Type
REMARK                         _______ _______ _______ _____ _____    ______ ____
ROOT
ATOM      1  C   UNL     1       1.961   0.758   9.647  0.00  0.00    +0.146 C 
ENDROOT
BRANCH   1   2
ATOM      2  N   UNL     1       0.973   0.676  10.731  0.00  0.00    -0.288 NA
ATOM      3  C   UNL     1       0.966   1.909  11.530  0.00  0.00    +0.104 C 
ATOM      4  C   UNL     1       0.059   1.717  12.751  0.00  0.00    +0.124 C 
ATOM      5  N   UNL     1      -1.262   1.269  12.286  0.00  0.00    -0.283 N 
ATOM      6  C   UNL     1      -1.325   0.121  11.369  0.00  0.00    +0.124 C 
ATOM      7  C   UNL     1      -0.364   0.376  10.203  0.00  0.00    +0.104 C 
ATOM      8  C   UNL     1      -2.386   1.895  12.689  0.00  0.00    +0.307 C 
ATOM      9  O   UNL     1      -2.311   2.902  13.366  0.00  0.00    -0.252 OA
ATOM     10  N   UNL     1      -3.592   1.403  12.343  0.00  0.00    -0.269 N 
ATOM     11  H   UNL     1      -3.654   0.557  11.873  0.00  0.00    +0.156 HD
BRANCH  10  12
ATOM     12  C   UNL     1      -4.755   2.113  12.662  0.00  0.00    +0.035 A 
ATOM     13  C   UNL     1      -4.732   3.501  12.707  0.00  0.00    +0.023 A 
ATOM     14  C   UNL     1      -5.882   4.199  13.021  0.00  0.00    +0.006 A 
ATOM     15  C   UNL     1      -7.054   3.518  13.291  0.00  0.00    -0.045 A 
ATOM     16  C   UNL     1      -7.080   2.136  13.248  0.00  0.00    +0.006 A 
ATOM     17  C   UNL     1      -5.935   1.432  12.929  0.00  0.00    +0.023 A 
BRANCH  15  18
ATOM     18  C   UNL     1      -8.307   4.282  13.634  0.00  0.00    +0.013 C 
ATOM     19  C   UNL     1      -9.396   3.964  12.608  0.00  0.00    +0.012 C 
ATOM     20  C   UNL     1      -8.786   3.877  15.029  0.00  0.00    +0.012 C 
ENDBRANCH  15  18
ENDBRANCH  10  12
ENDBRANCH   1   2
BRANCH   1  21
ATOM     21  C   UNL     1       3.333   1.099  10.232  0.00  0.00    +0.015 C 
ATOM     22  C   UNL     1       4.411   1.023   9.131  0.00  0.00    +0.005 C 
ATOM     23  C   UNL     1       5.649   0.435   9.851  0.00  0.00    +0.000 C 
ATOM     24  C   UNL     1       5.024  -0.607  10.812  0.00  0.00    +0.000 C 
ATOM     25  C   UNL     1       3.723   0.063  11.301  0.00  0.00    +0.005 C 
ENDBRANCH   1  21
BRANCH   1  27
ATOM     26  N   UNL     1       2.099   1.870   7.442  0.00  0.00    -0.314 N 
ATOM     27  C   UNL     1       1.550   1.831   8.672  0.00  0.00    +0.231 C 
ATOM     28  O   UNL     1       0.725   2.659   8.994  0.00  0.00    -0.274 OA
ATOM     29  H   UNL     1       2.804   1.247   7.205  0.00  0.00    +0.149 HD
BRANCH  26  30
ATOM     30  C   UNL     1       1.631   2.853   6.462  0.00  0.00    +0.102 C 
BRANCH  30  31
ATOM     31  C   UNL     1       2.413   2.684   5.157  0.00  0.00    +0.000 C 
BRANCH  31  32
ATOM     32  C   UNL     1       1.924   3.711   4.134  0.00  0.00    -0.077 C 
BRANCH  32  39
ATOM     33  C   UNL     1       2.532   5.975   2.588  0.00  0.00    -0.013 C 
ATOM     34  C   UNL     1       2.290   4.610   1.942  0.00  0.00    -0.072 C 
ATOM     35  C   UNL     1       3.128   4.494   0.667  0.00  0.00    -0.016 C 
ATOM     36  C   UNL     1       2.883   3.126   0.023  0.00  0.00    -0.003 C 
ATOM     37  C   UNL     1       3.216   2.029   1.038  0.00  0.00    -0.019 C 
ATOM     38  C   UNL     1       2.375   2.236   2.300  0.00  0.00    -0.078 C 
ATOM     39  N   UNL     1       2.675   3.550   2.881  0.00  0.00    +0.381 N 
ATOM     40  H   UNL     1       3.663   3.614   3.073  0.00  0.00    -0.081 HD
ENDBRANCH  32  39
ENDBRANCH  31  32
ENDBRANCH  30  31
ENDBRANCH  26  30
ENDBRANCH   1  27
TORSDOF 9
