REMARK  Name = ZINC27248564
REMARK  11 active torsions:
REMARK  status: ('A' for Active; 'I' for Inactive)
REMARK    1  A    between atoms: C_1  and  C_2
REMARK    2  A    between atoms: C_2  and  C_3
REMARK    3  A    between atoms: C_3  and  C_4
REMARK    4  A    between atoms: C_3  and  C_13
REMARK    5  A    between atoms: C_3  and  O_28
REMARK    6  A    between atoms: C_7  and  O_10
REMARK    7  A    between atoms: O_10  and  C_11
REMARK    8  A    between atoms: C_11  and  C_12
REMARK    9  A    between atoms: C_13  and  C_15
REMARK   10  A    between atoms: C_13  and  C_21
REMARK   11  A    between atoms: C_15  and  N_16
REMARK                            x       y       z     vdW  Elec       q    Type
REMARK                         _______ _______ _______ _____ _____    ______ ____
ROOT
ATOM      1  C   UNL     1       0.926  -2.138  -1.262  0.00  0.00    +0.039 C 
ENDROOT
BRANCH   1   2
ATOM      2  C   UNL     1       0.572  -2.753   0.067  0.00  0.00    -0.043 A 
ATOM      3  C   UNL     1      -0.715  -2.644   0.558  0.00  0.00    +0.005 A 
ATOM      4  C   UNL     1      -1.042  -3.214   1.774  0.00  0.00    +0.020 A 
ATOM      5  C   UNL     1      -0.077  -3.883   2.506  0.00  0.00    +0.041 A 
ATOM      6  C   UNL     1       1.213  -3.987   2.016  0.00  0.00    +0.020 A 
ATOM      7  C   UNL     1       1.537  -3.422   0.797  0.00  0.00    +0.005 A 
ATOM      8 CL   UNL     1      -0.484  -4.592   4.037  0.00  0.00    -0.084 Cl
ENDBRANCH   1   2
BRANCH   1   9
ATOM      9  C   UNL     1       0.933  -0.613  -1.133  0.00  0.00    +0.096 C 
BRANCH   9  10
ATOM     10  C   UNL     1       1.836  -0.210   0.004  0.00  0.00    -0.015 A 
ATOM     11  C   UNL     1       3.139  -0.670   0.047  0.00  0.00    +0.010 A 
ATOM     12  C   UNL     1       3.971  -0.297   1.085  0.00  0.00    +0.046 A 
ATOM     13  C   UNL     1       3.494   0.530   2.092  0.00  0.00    +0.121 A 
ATOM     14  C   UNL     1       2.184   0.986   2.050  0.00  0.00    +0.046 A 
ATOM     15  C   UNL     1       1.359   0.615   1.006  0.00  0.00    +0.010 A 
BRANCH  13  16
ATOM     16  O   UNL     1       4.309   0.894   3.117  0.00  0.00    -0.492 OA
BRANCH  16  17
ATOM     17  C   UNL     1       5.645   0.387   3.095  0.00  0.00    +0.225 C 
ATOM     18  C   UNL     1       6.405   0.900   4.320  0.00  0.00    +0.048 C 
ENDBRANCH  16  17
ENDBRANCH  13  16
ENDBRANCH   9  10
BRANCH   9  20
ATOM     19  C   UNL     1       1.580   1.521  -2.259  0.00  0.00    +0.007 C 
ATOM     20  C   UNL     1       1.444   0.007  -2.434  0.00  0.00    +0.037 C 
ENDBRANCH   9  20
BRANCH   9  21
ATOM     21  O   UNL     1      -0.394  -0.151  -0.874  0.00  0.00    -0.383 OA
ATOM     22  H   UNL     1      -0.930  -0.492   0.025  0.00  0.00    +0.211 HD
ENDBRANCH   9  21
ENDBRANCH   1   9
BRANCH   1  23
ATOM     23  C   UNL     1      -0.109  -2.555  -2.309  0.00  0.00    -0.068 C 
BRANCH  23  24
ATOM     24  N   UNL     1       0.336  -2.117  -3.639  0.00  0.00    +0.380 N 
ATOM     25  C   UNL     1       1.657  -2.703  -3.979  0.00  0.00    -0.079 C 
ATOM     26  C   UNL     1       1.709  -2.588  -5.523  0.00  0.00    -0.020 C 
ATOM     27  C   UNL     1       0.251  -2.883  -5.941  0.00  0.00    -0.020 C 
ATOM     28  C   UNL     1      -0.595  -2.584  -4.689  0.00  0.00    -0.079 C 
ATOM     29  H   UNL     1       0.375  -1.018  -3.594  0.00  0.00    -0.082 HD
ENDBRANCH  23  24
ENDBRANCH   1  23
TORSDOF 9
