REMARK  Name = ZINC04210126
REMARK  5 active torsions:
REMARK  status: ('A' for Active; 'I' for Inactive)
REMARK    1  A    between atoms: C_5  and  C_7
REMARK    2  A    between atoms: N_8  and  N_9
REMARK    3  A    between atoms: C_10  and  C_12
REMARK    4  A    between atoms: N_14  and  C_15
REMARK    5  A    between atoms: C_16  and  C_24
REMARK                            x       y       z     vdW  Elec       q    Type
REMARK                         _______ _______ _______ _____ _____    ______ ____
ROOT
ATOM      1  C   UNL     1      -2.296   7.270  -2.868  0.00  0.00    +0.305 C 
ATOM      2  O   UNL     1      -2.281   6.397  -3.712  0.00  0.00    -0.265 OA
ATOM      3  N   UNL     1      -1.978   6.979  -1.591  0.00  0.00    -0.271 N 
ATOM      4  H   UNL     1      -1.990   7.676  -0.917  0.00  0.00    +0.156 HD
ENDROOT
BRANCH   3   5
ATOM      5  C   UNL     1      -1.633   5.684  -1.242  0.00  0.00    +0.090 A 
ATOM      6  C   UNL     1      -1.276   5.182   0.004  0.00  0.00    +0.084 A 
ATOM      7  C   UNL     1      -0.956   3.769   0.100  0.00  0.00    -0.018 A 
ATOM      8  C   UNL     1      -1.036   3.058  -1.048  0.00  0.00    -0.004 A 
ATOM      9  S   UNL     1      -1.533   4.234  -2.277  0.00  0.00    -0.077 S 
ATOM     10  C   UNL     1      -0.762   1.598  -1.231  0.00  0.00    +0.043 C 
ATOM     11  C   UNL     1      -0.013   1.086   0.008  0.00  0.00    +0.005 C 
ATOM     12  C   UNL     1      -0.736   1.583   1.263  0.00  0.00    +0.005 C 
ATOM     13  C   UNL     1      -0.551   3.093   1.407  0.00  0.00    +0.037 C 
BRANCH   6  14
ATOM     14  C   UNL     1      -1.225   6.032   1.156  0.00  0.00    +0.102 C 
ATOM     15  N   UNL     1      -1.184   6.706   2.070  0.00  0.00    -0.191 NA
ENDBRANCH   6  14
ENDBRANCH   3   5
BRANCH   1  17
ATOM     16  N   UNL     1      -2.986   8.955  -4.520  0.00  0.00    -0.199 N 
ATOM     17  C   UNL     1      -2.667   8.664  -3.244  0.00  0.00    +0.318 C 
ATOM     18  O   UNL     1      -2.683   9.537  -2.399  0.00  0.00    -0.263 OA
ATOM     19  H   UNL     1      -2.974   8.258  -5.194  0.00  0.00    +0.178 HD
BRANCH  16  21
ATOM     20  C   UNL     1      -3.642  10.546  -6.104  0.00  0.00    +0.139 C 
ATOM     21  N   UNL     1      -3.335  10.265  -4.873  0.00  0.00    -0.187 NA
BRANCH  20  26
ATOM     22  C   UNL     1      -4.683  13.522  -8.139  0.00  0.00    +0.001 A 
ATOM     23  C   UNL     1      -4.699  14.515  -7.174  0.00  0.00    +0.001 A 
ATOM     24  C   UNL     1      -4.373  14.221  -5.863  0.00  0.00    +0.016 A 
ATOM     25  C   UNL     1      -4.028  12.932  -5.507  0.00  0.00    +0.027 A 
ATOM     26  C   UNL     1      -4.009  11.925  -6.476  0.00  0.00    +0.008 A 
ATOM     27  C   UNL     1      -4.335  12.232  -7.799  0.00  0.00    +0.010 A 
ATOM     28 BR   UNL     1      -3.581  12.531  -3.713  0.00  0.00    -0.050 Br
ENDBRANCH  20  26
ENDBRANCH  16  21
ENDBRANCH   1  17
TORSDOF 5
