REMARK  Name = ZINC44325524
REMARK  8 active torsions:
REMARK  status: ('A' for Active; 'I' for Inactive)
REMARK    1  A    between atoms: C_1  and  C_2
REMARK    2  A    between atoms: C_2  and  C_3
REMARK    3  A    between atoms: C_3  and  C_5
REMARK    4  A    between atoms: C_3  and  N_12
REMARK    5  A    between atoms: N_12  and  S_13
REMARK    6  A    between atoms: S_13  and  C_16
REMARK    7  A    between atoms: C_20  and  S_22
REMARK    8  A    between atoms: S_22  and  C_25
REMARK                            x       y       z     vdW  Elec       q    Type
REMARK                         _______ _______ _______ _____ _____    ______ ____
ROOT
ATOM      1  S   UNL     1       0.213   1.244  -3.337  0.00  0.00    +0.059 S 
ATOM      2  O   UNL     1      -0.718   1.336  -4.407  0.00  0.00    -0.153 OA
ATOM      3  O   UNL     1       0.427   2.309  -2.420  0.00  0.00    -0.153 OA
ENDROOT
BRANCH   1   4
ATOM      4  C   UNL     1       1.778   0.881  -4.061  0.00  0.00    +0.107 A 
ATOM      5  C   UNL     1       2.942   1.200  -3.387  0.00  0.00    +0.028 A 
ATOM      6  C   UNL     1       4.170   0.915  -3.954  0.00  0.00    +0.004 A 
ATOM      7  C   UNL     1       4.233   0.309  -5.196  0.00  0.00    +0.027 A 
ATOM      8  C   UNL     1       3.069  -0.011  -5.869  0.00  0.00    +0.090 A 
ATOM      9  C   UNL     1       1.841   0.271  -5.299  0.00  0.00    +0.055 A 
BRANCH   8  10
ATOM     10  S   UNL     1       3.150  -0.782  -7.451  0.00  0.00    -0.006 S 
ATOM     11  O   UNL     1       1.937  -0.417  -8.095  0.00  0.00    -0.170 OA
ATOM     12  O   UNL     1       4.404  -0.380  -7.987  0.00  0.00    -0.170 OA
ATOM     13  C   UNL     1       3.162  -2.562  -7.103  0.00  0.00    +0.200 C 
ENDBRANCH   8  10
ENDBRANCH   1   4
BRANCH   1  14
ATOM     14  N   UNL     1      -0.229  -0.074  -2.438  0.00  0.00    -0.183 NA
ATOM     15  H   UNL     1      -1.007  -0.595  -2.690  0.00  0.00    +0.149 HD
BRANCH  14  16
ATOM     16  C   UNL     1       0.556  -0.453  -1.260  0.00  0.00    +0.106 C 
BRANCH  16  17
ATOM     17  C   UNL     1       1.212  -1.788  -1.502  0.00  0.00    -0.029 A 
ATOM     18  C   UNL     1       0.519  -2.790  -2.157  0.00  0.00    +0.006 A 
ATOM     19  C   UNL     1       1.120  -4.014  -2.380  0.00  0.00    +0.020 A 
ATOM     20  C   UNL     1       2.415  -4.238  -1.947  0.00  0.00    +0.041 A 
ATOM     21  C   UNL     1       3.107  -3.236  -1.291  0.00  0.00    +0.020 A 
ATOM     22  C   UNL     1       2.507  -2.009  -1.074  0.00  0.00    +0.006 A 
ATOM     23 CL   UNL     1       3.170  -5.776  -2.225  0.00  0.00    -0.084 Cl
ENDBRANCH  16  17
BRANCH  16  25
ATOM     24  C   UNL     1      -0.928   0.834   0.285  0.00  0.00    +0.006 C 
ATOM     25  C   UNL     1      -0.366  -0.551  -0.043  0.00  0.00    +0.022 C 
ENDBRANCH  16  25
ENDBRANCH  14  16
ENDBRANCH   1  14
TORSDOF 6
