REMARK  Name = ZINC62869114
REMARK  6 active torsions:
REMARK  status: ('A' for Active; 'I' for Inactive)
REMARK    1  A    between atoms: C_1  and  C_2
REMARK    2  A    between atoms: C_2  and  C_3
REMARK    3  A    between atoms: C_3  and  C_9
REMARK    4  A    between atoms: N_17  and  C_18
REMARK    5  A    between atoms: C_18  and  C_19
REMARK    6  A    between atoms: C_18  and  C_20
REMARK                            x       y       z     vdW  Elec       q    Type
REMARK                         _______ _______ _______ _____ _____    ______ ____
ROOT
ATOM      1  C   UNL     1       2.036  -0.067  -1.248  0.00  0.00    +0.115 A 
ATOM      2  N   UNL     1       3.098  -0.815  -1.315  0.00  0.00    -0.232 NA
ATOM      3  C   UNL     1       4.198  -0.073  -1.024  0.00  0.00    +0.090 A 
ATOM      4  C   UNL     1       5.563  -0.363  -0.951  0.00  0.00    +0.045 A 
ATOM      5  C   UNL     1       6.456   0.631  -0.621  0.00  0.00    +0.020 A 
ATOM      6  C   UNL     1       6.011   1.920  -0.360  0.00  0.00    +0.017 A 
ATOM      7  C   UNL     1       4.668   2.223  -0.428  0.00  0.00    +0.029 A 
ATOM      8  C   UNL     1       3.753   1.232  -0.759  0.00  0.00    +0.069 A 
ATOM      9  N   UNL     1       2.381   1.206  -0.915  0.00  0.00    -0.325 N 
ATOM     10 BR   UNL     1       8.303   0.239  -0.522  0.00  0.00    -0.050 Br
ENDROOT
BRANCH   1  11
ATOM     11  C   UNL     1       0.629  -0.540  -1.507  0.00  0.00    +0.013 C 
ATOM     12  C   UNL     1       0.647  -2.029  -1.865  0.00  0.00    +0.011 C 
ATOM     13  C   UNL     1      -0.793  -2.517  -2.050  0.00  0.00    -0.018 C 
ATOM     14  C   UNL     1      -1.589  -2.237  -0.773  0.00  0.00    -0.083 C 
ATOM     15  N   UNL     1      -1.591  -0.795  -0.500  0.00  0.00    +0.380 N 
ATOM     16  C   UNL     1      -0.220  -0.334  -0.251  0.00  0.00    -0.068 C 
ATOM     17  H   UNL     1      -1.970  -0.304  -1.296  0.00  0.00    -0.086 HD
ATOM     18  H   UNL     1      -2.160  -0.609   0.311  0.00  0.00    -0.086 HD
BRANCH  11  20
ATOM     19  C   UNL     1       0.946   0.155  -3.886  0.00  0.00    +0.005 C 
ATOM     20  C   UNL     1       0.027   0.256  -2.667  0.00  0.00    +0.009 C 
ENDBRANCH  11  20
ENDBRANCH   1  11
BRANCH   9  21
ATOM     21  C   UNL     1       1.466   2.338  -0.748  0.00  0.00    +0.083 C 
ATOM     22  C   UNL     1       1.591   2.889   0.674  0.00  0.00    +0.030 C 
ATOM     23  C   UNL     1       1.823   3.434  -1.753  0.00  0.00    +0.030 C 
ENDBRANCH   9  21
TORSDOF 3
