REMARK  Name = ZINC48522899
REMARK  9 active torsions:
REMARK  status: ('A' for Active; 'I' for Inactive)
REMARK    1  A    between atoms: C_1  and  C_2
REMARK    2  A    between atoms: C_2  and  O_4
REMARK    3  A    between atoms: O_4  and  C_5
REMARK    4  A    between atoms: C_9  and  C_37
REMARK    5  A    between atoms: C_14  and  C_36
REMARK    6  A    between atoms: C_24  and  O_32
REMARK    7  A    between atoms: N_27  and  N_28
REMARK    8  A    between atoms: O_32  and  C_33
REMARK    9  A    between atoms: C_33  and  C_35
REMARK                            x       y       z     vdW  Elec       q    Type
REMARK                         _______ _______ _______ _____ _____    ______ ____
ROOT
ATOM      1  C   UNL     1      -0.381  -3.559   2.598  0.00  0.00    +0.180 C 
ATOM      2  C   UNL     1      -1.393  -4.105   1.590  0.00  0.00    +0.046 C 
ATOM      3  C   UNL     1      -2.748  -3.422   1.757  0.00  0.00    +0.015 C 
ATOM      4  C   UNL     1      -3.292  -3.633   3.171  0.00  0.00    -0.008 C 
ATOM      5  C   UNL     1      -4.623  -2.933   3.342  0.00  0.00    +0.003 C 
ATOM      6  C   UNL     1      -4.790  -1.744   2.406  0.00  0.00    +0.005 C 
ATOM      7  C   UNL     1      -6.212  -1.166   2.506  0.00  0.00    +0.013 C 
ATOM      8  C   UNL     1      -6.487  -0.752   3.930  0.00  0.00    +0.015 C 
ATOM      9  C   UNL     1      -6.254  -1.932   4.887  0.00  0.00    +0.008 C 
ATOM     10  C   UNL     1      -4.887  -2.543   4.801  0.00  0.00    +0.001 C 
ATOM     11  C   UNL     1      -3.756  -1.673   5.323  0.00  0.00    +0.031 C 
ATOM     12  C   UNL     1      -2.449  -2.401   5.145  0.00  0.00    -0.027 C 
ATOM     13  C   UNL     1      -2.250  -3.242   4.176  0.00  0.00    -0.064 C 
ATOM     14  C   UNL     1      -0.860  -3.844   4.023  0.00  0.00    +0.075 C 
ATOM     15  C   UNL     1      -6.722  -1.337   6.221  0.00  0.00    +0.055 C 
ATOM     16  C   UNL     1      -7.999  -0.559   5.785  0.00  0.00    +0.223 C 
ATOM     17  C   UNL     1      -7.932  -0.428   4.266  0.00  0.00    +0.083 C 
ATOM     18  N   UNL     1      -8.864  -0.120   3.456  0.00  0.00    -0.184 NA
ATOM     19  C   UNL     1      -5.683   0.498   4.282  0.00  0.00    +0.018 C 
ATOM     20  C   UNL     1      -3.561  -5.138   3.344  0.00  0.00    +0.016 C 
ENDROOT
BRANCH  18  21
ATOM     21  N   UNL     1     -10.118   0.268   3.946  0.00  0.00    -0.191 N 
ATOM     22  C   UNL     1     -11.092   0.632   3.090  0.00  0.00    +0.317 C 
ATOM     23  O   UNL     1     -12.181   0.969   3.515  0.00  0.00    -0.251 OA
ATOM     24  N   UNL     1     -10.861   0.624   1.762  0.00  0.00    -0.312 N 
ATOM     25  H   UNL     1     -10.284   0.274   4.902  0.00  0.00    +0.179 HD
ATOM     26  H   UNL     1      -9.993   0.355   1.423  0.00  0.00    +0.147 HD
ATOM     27  H   UNL     1     -11.562   0.886   1.146  0.00  0.00    +0.147 HD
ENDBRANCH  18  21
BRANCH   1  28
ATOM     28  O   UNL     1      -0.239  -2.147   2.417  0.00  0.00    -0.461 OA
BRANCH  28  30
ATOM     29  C   UNL     1       1.179  -0.131   2.549  0.00  0.00    +0.136 C 
ATOM     30  C   UNL     1       0.955  -1.612   2.715  0.00  0.00    +0.304 C 
ATOM     31  O   UNL     1       1.851  -2.317   3.115  0.00  0.00    -0.251 OA
ENDBRANCH  28  30
ENDBRANCH   1  28
BRANCH  16  32
ATOM     32  O   UNL     1      -9.165  -1.295   6.161  0.00  0.00    -0.455 OA
BRANCH  32  33
ATOM     33  C   UNL     1      -9.616  -1.123   7.414  0.00  0.00    +0.305 C 
ATOM     34  O   UNL     1      -9.098  -0.305   8.136  0.00  0.00    -0.251 OA
ATOM     35  C   UNL     1     -10.768  -1.952   7.920  0.00  0.00    +0.136 C 
ENDBRANCH  32  33
ENDBRANCH  16  32
TORSDOF 5
