REMARK  Name = ZINC52654395
REMARK  7 active torsions:
REMARK  status: ('A' for Active; 'I' for Inactive)
REMARK    1  A    between atoms: C_1  and  C_2
REMARK    2  A    between atoms: C_2  and  C_22
REMARK    3  A    between atoms: C_8  and  O_11
REMARK    4  A    between atoms: O_11  and  C_12
REMARK    5  A    between atoms: C_12  and  C_13
REMARK    6  A    between atoms: C_17  and  C_20
REMARK    7  A    between atoms: C_20  and  N_21
REMARK                            x       y       z     vdW  Elec       q    Type
REMARK                         _______ _______ _______ _____ _____    ______ ____
ROOT
ATOM      1  O   UNL     1       3.016  -0.742   2.983  0.00  0.00    -0.486 OA
ENDROOT
BRANCH   1   9
ATOM      2  C   UNL     1      -0.019   1.526   0.010  0.00  0.00    +0.056 C 
ATOM      3  C   UNL     1       0.002  -0.004   0.002  0.00  0.00    +0.109 C 
ATOM      4  C   UNL     1       0.832  -0.534  -1.191  0.00  0.00    +0.086 C 
ATOM      5  C   UNL     1       2.204  -0.704  -0.568  0.00  0.00    +0.002 A 
ATOM      6  C   UNL     1       3.456  -0.875  -1.120  0.00  0.00    +0.007 A 
ATOM      7  C   UNL     1       4.564  -1.000  -0.301  0.00  0.00    +0.004 A 
ATOM      8  C   UNL     1       4.412  -0.953   1.073  0.00  0.00    +0.049 A 
ATOM      9  C   UNL     1       3.157  -0.786   1.631  0.00  0.00    +0.162 A 
ATOM     10  C   UNL     1       2.034  -0.662   0.808  0.00  0.00    +0.166 A 
ATOM     11  O   UNL     1       0.721  -0.510   1.139  0.00  0.00    -0.482 OA
ATOM     12  C   UNL     1      -1.422  -0.563  -0.032  0.00  0.00    +0.056 C 
ENDBRANCH   1   9
BRANCH   1  13
ATOM     13  C   UNL     1       4.205  -0.874   3.764  0.00  0.00    +0.260 C 
BRANCH  13  14
ATOM     14  C   UNL     1       3.850  -0.801   5.250  0.00  0.00    +0.156 C 
ATOM     15  C   UNL     1       5.130  -0.871   6.121  0.00  0.00    +0.037 C 
ATOM     16  C   UNL     1       4.580  -1.417   7.462  0.00  0.00    +0.032 C 
ATOM     17  C   UNL     1       3.248  -2.089   7.078  0.00  0.00    +0.101 C 
ATOM     18  O   UNL     1       3.101  -1.968   5.652  0.00  0.00    -0.372 OA
BRANCH  17  19
ATOM     19  C   UNL     1       3.275  -3.565   7.480  0.00  0.00    -0.054 C 
BRANCH  19  20
ATOM     20  N   UNL     1       2.001  -4.196   7.110  0.00  0.00    +0.380 N 
ATOM     21  H   UNL     1       1.244  -3.732   7.588  0.00  0.00    -0.090 HD
ATOM     22  H   UNL     1       1.866  -4.122   6.113  0.00  0.00    -0.090 HD
ATOM     23  H   UNL     1       2.019  -5.170   7.375  0.00  0.00    -0.090 HD
ENDBRANCH  19  20
ENDBRANCH  17  19
ENDBRANCH  13  14
ENDBRANCH   1  13
TORSDOF 5
