REMARK  Name = ZINC22289641
REMARK  8 active torsions:
REMARK  status: ('A' for Active; 'I' for Inactive)
REMARK    1  A    between atoms: C_1  and  C_2
REMARK    2  A    between atoms: C_2  and  C_3
REMARK    3  A    between atoms: C_2  and  C_4
REMARK    4  A    between atoms: C_4  and  C_6
REMARK    5  A    between atoms: C_4  and  N_21
REMARK    6  A    between atoms: C_11  and  C_14
REMARK    7  A    between atoms: C_14  and  N_15
REMARK    8  A    between atoms: C_22  and  C_24
REMARK                            x       y       z     vdW  Elec       q    Type
REMARK                         _______ _______ _______ _____ _____    ______ ____
ROOT
ATOM      1  C   UNL     1       0.762  -2.018   1.233  0.00  0.00    +0.239 C 
ATOM      2  O   UNL     1       1.821  -2.610   1.220  0.00  0.00    -0.273 OA
ATOM      3  N   UNL     1      -0.395  -2.707   1.241  0.00  0.00    -0.263 N 
ATOM      4  C   UNL     1      -0.377  -4.097   1.233  0.00  0.00    +0.165 A 
ATOM      5  N   UNL     1      -1.396  -4.929   1.233  0.00  0.00    -0.231 NA
ATOM      6  C   UNL     1      -1.211  -6.236   1.225  0.00  0.00    +0.034 A 
ATOM      7  C   UNL     1       0.072  -6.676   1.217  0.00  0.00    +0.070 A 
ATOM      8  S   UNL     1       0.956  -5.125   1.214  0.00  0.00    -0.060 S 
ATOM      9  H   UNL     1      -1.242  -2.234   1.251  0.00  0.00    +0.157 HD
ENDROOT
BRANCH   1  10
ATOM     10  C   UNL     1       0.742  -0.511   1.242  0.00  0.00    +0.162 C 
BRANCH  10  11
ATOM     11  N   UNL     1       2.116  -0.004   1.231  0.00  0.00    -0.300 N 
ATOM     12  C   UNL     1       2.387   1.219   1.728  0.00  0.00    +0.245 C 
ATOM     13  O   UNL     1       1.491   1.902   2.186  0.00  0.00    -0.270 OA
ATOM     14  H   UNL     1       2.832  -0.548   0.866  0.00  0.00    +0.150 HD
BRANCH  12  15
ATOM     15  C   UNL     1       3.773   1.730   1.718  0.00  0.00    +0.037 A 
ATOM     16  C   UNL     1       4.804   0.951   1.188  0.00  0.00    +0.016 A 
ATOM     17  C   UNL     1       6.095   1.433   1.181  0.00  0.00    +0.039 A 
ATOM     18  C   UNL     1       6.372   2.689   1.699  0.00  0.00    +0.123 A 
ATOM     19  C   UNL     1       5.353   3.467   2.226  0.00  0.00    +0.039 A 
ATOM     20  C   UNL     1       4.057   2.998   2.233  0.00  0.00    +0.016 A 
ATOM     21  F   UNL     1       7.639   3.156   1.690  0.00  0.00    -0.205 F 
ENDBRANCH  12  15
ENDBRANCH  10  11
BRANCH  10  23
ATOM     22  C   UNL     1      -0.019   1.526   0.010  0.00  0.00    +0.009 C 
ATOM     23  C   UNL     1       0.002  -0.004   0.002  0.00  0.00    +0.012 C 
ATOM     24  C   UNL     1       0.718  -0.497  -1.257  0.00  0.00    +0.009 C 
ENDBRANCH  10  23
ENDBRANCH   1  10
BRANCH   6  25
ATOM     25  C   UNL     1      -2.372  -7.196   1.225  0.00  0.00    -0.022 C 
BRANCH  25  26
ATOM     26  N   UNL     1      -2.821  -7.421   2.606  0.00  0.00    +0.383 N 
ATOM     27  C   UNL     1      -1.754  -8.089   3.362  0.00  0.00    -0.078 C 
ATOM     28  C   UNL     1      -2.185  -8.254   4.821  0.00  0.00    -0.019 C 
ATOM     29  C   UNL     1      -3.460  -9.099   4.879  0.00  0.00    -0.004 C 
ATOM     30  C   UNL     1      -4.543  -8.431   4.026  0.00  0.00    -0.019 C 
ATOM     31  C   UNL     1      -4.025  -8.260   2.597  0.00  0.00    -0.078 C 
ATOM     32  H   UNL     1      -3.033  -6.535   3.039  0.00  0.00    -0.081 HD
ENDBRANCH  25  26
ENDBRANCH   6  25
TORSDOF 6
