REMARK  Name = ZINC20504058
REMARK  9 active torsions:
REMARK  status: ('A' for Active; 'I' for Inactive)
REMARK    1  A    between atoms: C_1  and  O_2
REMARK    2  A    between atoms: O_2  and  C_3
REMARK    3  A    between atoms: C_3  and  C_4
REMARK    4  A    between atoms: C_4  and  N_5
REMARK    5  A    between atoms: N_5  and  C_6
REMARK    6  A    between atoms: C_9  and  C_32
REMARK    7  A    between atoms: C_12  and  C_28
REMARK    8  A    between atoms: C_28  and  O_30
REMARK    9  A    between atoms: O_30  and  C_31
REMARK                            x       y       z     vdW  Elec       q    Type
REMARK                         _______ _______ _______ _____ _____    ______ ____
ROOT
ATOM      1  C   UNL     1       3.657  -0.989   2.005  0.00  0.00    -0.068 C 
ATOM      2  C   UNL     1       2.336  -1.591   2.491  0.00  0.00    +0.008 C 
ATOM      3  C   UNL     1       1.304  -1.530   1.372  0.00  0.00    +0.087 C 
ATOM      4  N   UNL     1       1.109  -0.137   0.955  0.00  0.00    -0.274 NA
ATOM      5  C   UNL     1       0.002  -0.004   0.002  0.00  0.00    +0.172 C 
ATOM      6  C   UNL     1      -0.415   1.470  -0.097  0.00  0.00    +0.068 C 
ATOM      7  C   UNL     1       0.830   2.299  -0.289  0.00  0.00    -0.016 A 
ATOM      8  C   UNL     1       0.960   3.668  -0.735  0.00  0.00    +0.003 A 
ATOM      9  C   UNL     1       0.025   4.635  -1.119  0.00  0.00    +0.010 A 
ATOM     10  C   UNL     1       0.517   5.860  -1.494  0.00  0.00    +0.001 A 
ATOM     11  C   UNL     1       1.874   6.140  -1.496  0.00  0.00    +0.002 A 
ATOM     12  C   UNL     1       2.821   5.203  -1.121  0.00  0.00    +0.026 A 
ATOM     13  C   UNL     1       2.351   3.949  -0.735  0.00  0.00    +0.047 A 
ATOM     14  N   UNL     1       2.995   2.819  -0.317  0.00  0.00    -0.356 N 
ATOM     15  H   UNL     1       4.092   2.809  -0.238  0.00  0.00    +0.166 HD
ATOM     16  C   UNL     1       2.080   1.836  -0.056  0.00  0.00    +0.038 A 
ATOM     17  C   UNL     1       2.356   0.432   0.422  0.00  0.00    +0.103 C 
ATOM     18  C   UNL     1       3.414   0.446   1.526  0.00  0.00    +0.009 C 
ENDROOT
BRANCH   3  19
ATOM     19  C   UNL     1      -0.004  -2.097   1.860  0.00  0.00    -0.030 A 
ATOM     20  C   UNL     1      -0.849  -1.320   2.631  0.00  0.00    +0.008 A 
ATOM     21  C   UNL     1      -2.051  -1.837   3.074  0.00  0.00    +0.038 A 
ATOM     22  C   UNL     1      -2.405  -3.137   2.756  0.00  0.00    +0.123 A 
ATOM     23  C   UNL     1      -1.555  -3.916   1.989  0.00  0.00    +0.038 A 
ATOM     24  C   UNL     1      -0.356  -3.395   1.542  0.00  0.00    +0.008 A 
ATOM     25  F   UNL     1      -3.577  -3.646   3.194  0.00  0.00    -0.205 F 
ENDBRANCH   3  19
BRANCH   1  26
ATOM     26  N   UNL     1       4.184  -1.793   0.894  0.00  0.00    +0.382 N 
ATOM     27  H   UNL     1       4.826  -1.155   0.270  0.00  0.00    -0.085 HD
ATOM     28  H   UNL     1       3.338  -2.162   0.294  0.00  0.00    -0.085 HD
BRANCH  26  29
ATOM     29  C   UNL     1       4.964  -2.933   1.393  0.00  0.00    -0.054 C 
BRANCH  29  30
ATOM     30  C   UNL     1       5.494  -3.746   0.210  0.00  0.00    +0.140 C 
BRANCH  30  32
ATOM     31  C   UNL     1       6.977  -3.621  -1.669  0.00  0.00    +0.193 C 
ATOM     32  O   UNL     1       6.419  -2.952  -0.536  0.00  0.00    -0.385 OA
ENDBRANCH  30  32
ENDBRANCH  29  30
ENDBRANCH  26  29
ENDBRANCH   1  26
BRANCH   5  33
ATOM     33  C   UNL     1       0.444  -0.493  -1.353  0.00  0.00    +0.325 C 
ATOM     34  O   UNL     1       1.485  -1.097  -1.468  0.00  0.00    -0.249 OA
BRANCH  33  35
ATOM     35  O   UNL     1      -0.318  -0.258  -2.433  0.00  0.00    -0.467 OA
ATOM     36  C   UNL     1       0.171  -0.758  -3.706  0.00  0.00    +0.280 C 
ENDBRANCH  33  35
ENDBRANCH   5  33
TORSDOF 7
