REMARK  Name = ZINC66174212
REMARK  9 active torsions:
REMARK  status: ('A' for Active; 'I' for Inactive)
REMARK    1  A    between atoms: C_1  and  C_2
REMARK    2  A    between atoms: C_5  and  N_8
REMARK    3  A    between atoms: C_11  and  N_14
REMARK    4  A    between atoms: N_14  and  C_15
REMARK    5  A    between atoms: N_18  and  C_19
REMARK    6  A    between atoms: C_19  and  C_21
REMARK    7  A    between atoms: C_19  and  C_22
REMARK    8  A    between atoms: C_27  and  O_28
REMARK    9  A    between atoms: O_28  and  C_29
REMARK                            x       y       z     vdW  Elec       q    Type
REMARK                         _______ _______ _______ _____ _____    ______ ____
ROOT
ATOM      1  N   UNL     1      -4.771  -0.182   7.027  0.00  0.00    -0.286 N 
ATOM      2  C   UNL     1      -4.861   1.280   7.029  0.00  0.00    +0.134 C 
ATOM      3  C   UNL     1      -5.109  -0.880   8.129  0.00  0.00    +0.303 C 
ATOM      4  O   UNL     1      -5.034  -2.093   8.126  0.00  0.00    -0.253 OA
ATOM      5  N   UNL     1      -5.532  -0.233   9.233  0.00  0.00    -0.293 N 
ATOM      6  H   UNL     1      -5.592   0.735   9.235  0.00  0.00    +0.151 HD
ENDROOT
BRANCH   1  10
ATOM      7  N   UNL     1      -3.378  -0.739   3.088  0.00  0.00    +0.382 N 
ATOM      8  C   UNL     1      -4.722  -1.245   3.390  0.00  0.00    -0.077 C 
ATOM      9  C   UNL     1      -5.251  -0.572   4.658  0.00  0.00    +0.004 C 
ATOM     10  C   UNL     1      -4.312  -0.885   5.826  0.00  0.00    +0.074 C 
ATOM     11  C   UNL     1      -2.897  -0.420   5.469  0.00  0.00    +0.004 C 
ATOM     12  C   UNL     1      -2.455  -1.098   4.171  0.00  0.00    -0.077 C 
ATOM     13  H   UNL     1      -3.412   0.266   2.996  0.00  0.00    -0.081 HD
BRANCH   7  18
ATOM     14  C   UNL     1      -2.033   0.487  -1.074  0.00  0.00    +0.007 C 
ATOM     15  C   UNL     1      -1.978  -1.036  -0.935  0.00  0.00    -0.014 C 
ATOM     16  C   UNL     1      -3.375  -1.569  -0.614  0.00  0.00    +0.002 C 
ATOM     17  C   UNL     1      -3.867  -0.955   0.698  0.00  0.00    -0.015 C 
ATOM     18  C   UNL     1      -2.906  -1.329   1.828  0.00  0.00    -0.069 C 
ATOM     19  C   UNL     1      -1.508  -0.795   1.507  0.00  0.00    -0.015 C 
ATOM     20  C   UNL     1      -1.017  -1.410   0.195  0.00  0.00    +0.002 C 
ENDBRANCH   7  18
ENDBRANCH   1  10
BRANCH   5  21
ATOM     21  C   UNL     1      -5.900  -0.992  10.431  0.00  0.00    +0.105 C 
ATOM     22  C   UNL     1      -4.654  -1.231  11.286  0.00  0.00    +0.033 C 
BRANCH  21  23
ATOM     23  C   UNL     1      -6.914  -0.212  11.227  0.00  0.00    +0.014 A 
ATOM     24  C   UNL     1      -6.945   1.167  11.146  0.00  0.00    +0.009 A 
ATOM     25  C   UNL     1      -7.875   1.883  11.877  0.00  0.00    +0.001 A 
ATOM     26  C   UNL     1      -8.776   1.222  12.691  0.00  0.00    +0.004 A 
ATOM     27  C   UNL     1      -8.749  -0.157  12.776  0.00  0.00    +0.046 A 
ATOM     28  C   UNL     1      -7.820  -0.878  12.039  0.00  0.00    +0.125 A 
BRANCH  28  29
ATOM     29  O   UNL     1      -7.795  -2.235  12.117  0.00  0.00    -0.495 OA
ATOM     30  C   UNL     1      -8.758  -2.853  12.972  0.00  0.00    +0.277 C 
ENDBRANCH  28  29
ENDBRANCH  21  23
ENDBRANCH   5  21
TORSDOF 5
