REMARK  Name = ZINC09124654
REMARK  8 active torsions:
REMARK  status: ('A' for Active; 'I' for Inactive)
REMARK    1  A    between atoms: C_4  and  O_7
REMARK    2  A    between atoms: O_7  and  C_8
REMARK    3  A    between atoms: C_12  and  C_14
REMARK    4  A    between atoms: C_17  and  C_28
REMARK    5  A    between atoms: N_24  and  C_25
REMARK    6  A    between atoms: C_25  and  C_26
REMARK    7  A    between atoms: C_26  and  O_27
REMARK    8  A    between atoms: C_33  and  O_34
REMARK                            x       y       z     vdW  Elec       q    Type
REMARK                         _______ _______ _______ _____ _____    ______ ____
ROOT
ATOM      1  C   UNL     1       5.683  -5.039  -0.059  0.00  0.00    +0.141 C 
ATOM      2  C   UNL     1       5.891  -5.590   1.326  0.00  0.00    +0.035 A 
ATOM      3  C   UNL     1       6.116  -5.334   2.641  0.00  0.00    +0.075 A 
ATOM      4  N   UNL     1       6.176  -6.545   3.270  0.00  0.00    -0.276 N 
ATOM      5  H   UNL     1       6.327  -6.672   4.219  0.00  0.00    +0.189 HD
ATOM      6  N   UNL     1       6.003  -7.491   2.417  0.00  0.00    -0.168 NA
ATOM      7  C   UNL     1       5.822  -6.996   1.209  0.00  0.00    +0.153 A 
ATOM      8  C   UNL     1       5.577  -7.321  -0.208  0.00  0.00    +0.268 C 
ATOM      9  O   UNL     1       5.464  -8.447  -0.652  0.00  0.00    -0.268 OA
ATOM     10  N   UNL     1       5.498  -6.196  -0.942  0.00  0.00    -0.283 N 
ENDROOT
BRANCH   1  15
ATOM     11  C   UNL     1       3.459  -1.984  -0.076  0.00  0.00    +0.129 A 
ATOM     12  C   UNL     1       2.199  -2.562  -0.144  0.00  0.00    +0.046 A 
ATOM     13  C   UNL     1       2.073  -3.937  -0.185  0.00  0.00    +0.004 A 
ATOM     14  C   UNL     1       3.200  -4.737  -0.157  0.00  0.00    +0.006 A 
ATOM     15  C   UNL     1       4.457  -4.164  -0.089  0.00  0.00    -0.019 A 
ATOM     16  C   UNL     1       4.588  -2.789  -0.054  0.00  0.00    +0.052 A 
BRANCH  11  17
ATOM     17  O   UNL     1       3.586  -0.632  -0.036  0.00  0.00    -0.456 OA
BRANCH  17  21
ATOM     18  C   UNL     1       3.918   1.389  -3.618  0.00  0.00    +0.000 A 
ATOM     19  C   UNL     1       3.778   0.013  -3.611  0.00  0.00    +0.004 A 
ATOM     20  C   UNL     1       3.667  -0.666  -2.414  0.00  0.00    +0.046 A 
ATOM     21  C   UNL     1       3.695   0.034  -1.216  0.00  0.00    +0.128 A 
ATOM     22  C   UNL     1       3.836   1.414  -1.225  0.00  0.00    +0.046 A 
ATOM     23  C   UNL     1       3.947   2.088  -2.425  0.00  0.00    +0.004 A 
ENDBRANCH  17  21
ENDBRANCH  11  17
ENDBRANCH   1  15
BRANCH   3  24
ATOM     24  C   UNL     1       6.266  -4.003   3.269  0.00  0.00    +0.042 A 
ATOM     25  C   UNL     1       7.483  -3.631   3.838  0.00  0.00    +0.013 A 
ATOM     26  C   UNL     1       7.618  -2.388   4.423  0.00  0.00    +0.001 A 
ATOM     27  C   UNL     1       6.549  -1.510   4.447  0.00  0.00    +0.004 A 
ATOM     28  C   UNL     1       5.338  -1.868   3.886  0.00  0.00    +0.046 A 
ATOM     29  C   UNL     1       5.189  -3.110   3.290  0.00  0.00    +0.126 A 
BRANCH  29  30
ATOM     30  O   UNL     1       4.001  -3.461   2.733  0.00  0.00    -0.506 OA
ATOM     31  H   UNL     1       3.393  -3.899   3.345  0.00  0.00    +0.292 HD
ENDBRANCH  29  30
ENDBRANCH   3  24
BRANCH  10  32
ATOM     32  C   UNL     1       5.264  -6.136  -2.387  0.00  0.00    +0.137 C 
BRANCH  32  33
ATOM     33  C   UNL     1       6.605  -6.164  -3.122  0.00  0.00    +0.175 C 
BRANCH  33  34
ATOM     34  O   UNL     1       7.246  -7.421  -2.896  0.00  0.00    -0.393 OA
ATOM     35  H   UNL     1       8.103  -7.510  -3.333  0.00  0.00    +0.209 HD
ENDBRANCH  33  34
ENDBRANCH  32  33
ENDBRANCH  10  32
TORSDOF 8
