REMARK  Name = ZINC11786744
REMARK  7 active torsions:
REMARK  status: ('A' for Active; 'I' for Inactive)
REMARK    1  A    between atoms: C_4  and  C_7
REMARK    2  A    between atoms: C_7  and  C_8
REMARK    3  A    between atoms: C_8  and  C_10
REMARK    4  A    between atoms: C_8  and  O_28
REMARK    5  A    between atoms: C_20  and  C_21
REMARK    6  A    between atoms: C_20  and  N_53
REMARK    7  A    between atoms: C_25  and  O_27
REMARK                            x       y       z     vdW  Elec       q    Type
REMARK                         _______ _______ _______ _____ _____    ______ ____
ROOT
ATOM      1  C   UNL     1      -0.789   2.923   3.224  0.00  0.00    -0.018 A 
ATOM      2  C   UNL     1      -2.039   2.417   3.530  0.00  0.00    +0.010 A 
ATOM      3  C   UNL     1      -2.643   1.499   2.692  0.00  0.00    +0.046 A 
ATOM      4  C   UNL     1      -1.990   1.085   1.540  0.00  0.00    +0.122 A 
ATOM      5  C   UNL     1      -0.729   1.578   1.252  0.00  0.00    -0.022 A 
ATOM      6  C   UNL     1      -0.132   2.501   2.081  0.00  0.00    +0.011 A 
ATOM      7  C   UNL     1      -0.013   1.086   0.008  0.00  0.00    -0.039 C 
ATOM      8  C   UNL     1      -1.844   0.713  -1.554  0.00  0.00    -0.036 C 
ATOM      9  C   UNL     1      -2.993   0.742  -0.569  0.00  0.00    +0.210 C 
ATOM     10  O   UNL     1      -2.589   0.203   0.696  0.00  0.00    -0.494 OA
ATOM     11  N   UNL     1      -0.736   1.614  -1.174  0.00  0.00    +0.387 N 
ATOM     12  H   UNL     1      -1.126   2.534  -0.937  0.00  0.00    -0.081 HD
ENDROOT
BRANCH   1  13
ATOM     13  C   UNL     1      -0.142   3.933   4.135  0.00  0.00    +0.149 C 
BRANCH  13  14
ATOM     14  O   UNL     1      -1.145   4.786   4.689  0.00  0.00    -0.387 OA
ATOM     15  H   UNL     1      -1.814   4.320   5.210  0.00  0.00    +0.210 HD
ENDBRANCH  13  14
BRANCH  13  16
ATOM     16  C   UNL     1       0.591   3.207   5.264  0.00  0.00    +0.071 C 
BRANCH  16  20
ATOM     17  C   UNL     1       2.712   6.048   7.646  0.00  0.00    +0.000 A 
ATOM     18  C   UNL     1       1.409   5.715   7.965  0.00  0.00    +0.000 A 
ATOM     19  C   UNL     1       0.723   4.795   7.194  0.00  0.00    +0.004 A 
ATOM     20  C   UNL     1       1.339   4.209   6.105  0.00  0.00    -0.045 A 
ATOM     21  C   UNL     1       2.644   4.538   5.789  0.00  0.00    +0.004 A 
ATOM     22  C   UNL     1       3.329   5.461   6.557  0.00  0.00    +0.000 A 
ENDBRANCH  16  20
ENDBRANCH  13  16
ENDBRANCH   1  13
BRANCH  11  23
ATOM     23  C   UNL     1       0.193   1.768  -2.304  0.00  0.00    -0.042 C 
BRANCH  23  24
ATOM     24  C   UNL     1      -0.598   2.030  -3.560  0.00  0.00    -0.060 A 
ATOM     25  C   UNL     1      -0.931   3.326  -3.909  0.00  0.00    +0.002 A 
ATOM     26  C   UNL     1      -1.656   3.570  -5.060  0.00  0.00    +0.004 A 
ATOM     27  C   UNL     1      -2.051   2.518  -5.865  0.00  0.00    +0.045 A 
ATOM     28  C   UNL     1      -1.719   1.217  -5.517  0.00  0.00    +0.117 A 
ATOM     29  C   UNL     1      -0.986   0.976  -4.364  0.00  0.00    +0.047 A 
BRANCH  28  30
ATOM     30  O   UNL     1      -2.105   0.181  -6.307  0.00  0.00    -0.507 OA
ATOM     31  H   UNL     1      -1.465  -0.049  -6.994  0.00  0.00    +0.292 HD
ENDBRANCH  28  30
ENDBRANCH  23  24
ENDBRANCH  11  23
TORSDOF 7
