REMARK  Name = ZINC04517117
REMARK  12 active torsions:
REMARK  status: ('A' for Active; 'I' for Inactive)
REMARK    1  A    between atoms: C_1  and  C_2
REMARK    2  A    between atoms: C_3  and  C_24
REMARK    3  A    between atoms: C_12  and  N_20
REMARK    4  A    between atoms: C_13  and  C_14
REMARK    5  A    between atoms: C_14  and  O_16
REMARK    6  A    between atoms: O_16  and  C_17
REMARK    7  A    between atoms: C_17  and  C_18
REMARK    8  A    between atoms: C_17  and  C_19
REMARK    9  A    between atoms: C_24  and  O_26
REMARK   10  A    between atoms: O_26  and  C_27
REMARK   11  A    between atoms: C_27  and  C_28
REMARK   12  A    between atoms: C_27  and  C_29
REMARK                            x       y       z     vdW  Elec       q    Type
REMARK                         _______ _______ _______ _____ _____    ______ ____
ROOT
ATOM      1  C   UNL     1       2.845   5.694  -2.824  0.00  0.00    +0.061 C 
ATOM      2  C   UNL     1       2.265   5.052  -1.590  0.00  0.00    +0.019 C 
ATOM      3  C   UNL     1       1.273   4.140  -1.613  0.00  0.00    +0.077 C 
ATOM      4  C   UNL     1       1.013   3.775  -0.169  0.00  0.00    +0.145 C 
ATOM      5  C   UNL     1       1.282   2.316   0.057  0.00  0.00    +0.019 A 
ATOM      6  C   UNL     1       2.585   1.854   0.095  0.00  0.00    +0.009 A 
ATOM      7  C   UNL     1       2.841   0.512   0.302  0.00  0.00    +0.001 A 
ATOM      8  C   UNL     1       1.794  -0.374   0.474  0.00  0.00    +0.004 A 
ATOM      9  C   UNL     1       0.491   0.080   0.437  0.00  0.00    +0.046 A 
ATOM     10  C   UNL     1       0.229   1.429   0.229  0.00  0.00    +0.135 A 
ATOM     11  O   UNL     1      -1.055   1.862   0.200  0.00  0.00    -0.441 OA
ATOM     12  C   UNL     1      -1.336   3.162   0.374  0.00  0.00    +0.196 C 
ATOM     13  C   UNL     1      -0.393   4.128   0.215  0.00  0.00    +0.117 C 
ATOM     14  C   UNL     1       2.001   4.620   0.602  0.00  0.00    +0.237 C 
ATOM     15  O   UNL     1       2.150   4.655   1.805  0.00  0.00    -0.274 OA
ATOM     16  N   UNL     1       2.682   5.327  -0.322  0.00  0.00    -0.288 N 
ATOM     17  H   UNL     1       3.386   5.959  -0.108  0.00  0.00    +0.155 HD
ENDROOT
BRANCH  12  18
ATOM     18  N   UNL     1      -2.608   3.525   0.727  0.00  0.00    -0.329 N 
ATOM     19  H   UNL     1      -3.368   3.036   0.374  0.00  0.00    +0.145 HD
ATOM     20  H   UNL     1      -2.750   4.271   1.330  0.00  0.00    +0.145 HD
ENDBRANCH  12  18
BRANCH  13  21
ATOM     21  C   UNL     1      -0.740   5.472   0.412  0.00  0.00    +0.342 C 
ATOM     22  O   UNL     1      -1.901   5.778   0.617  0.00  0.00    -0.245 OA
BRANCH  21  23
ATOM     23  O   UNL     1       0.214   6.428   0.376  0.00  0.00    -0.458 OA
BRANCH  23  24
ATOM     24  C   UNL     1      -0.211   7.776   0.585  0.00  0.00    +0.171 C 
ATOM     25  C   UNL     1       0.921   8.572   1.238  0.00  0.00    +0.052 C 
ATOM     26  C   UNL     1      -0.572   8.412  -0.759  0.00  0.00    +0.052 C 
ENDBRANCH  23  24
ENDBRANCH  21  23
ENDBRANCH  13  21
BRANCH   3  27
ATOM     27  C   UNL     1       0.612   3.628  -2.755  0.00  0.00    +0.339 C 
ATOM     28  O   UNL     1       0.927   4.014  -3.865  0.00  0.00    -0.245 OA
BRANCH  27  29
ATOM     29  O   UNL     1      -0.368   2.711  -2.612  0.00  0.00    -0.459 OA
BRANCH  29  30
ATOM     30  C   UNL     1      -0.993   2.238  -3.807  0.00  0.00    +0.171 C 
ATOM     31  C   UNL     1      -0.239   1.011  -4.325  0.00  0.00    +0.052 C 
ATOM     32  C   UNL     1      -2.444   1.857  -3.508  0.00  0.00    +0.052 C 
ENDBRANCH  29  30
ENDBRANCH  27  29
ENDBRANCH   3  27
TORSDOF 7
