REMARK  Name = ZINC16385707
REMARK  6 active torsions:
REMARK  status: ('A' for Active; 'I' for Inactive)
REMARK    1  A    between atoms: C_4  and  C_10
REMARK    2  A    between atoms: C_6  and  N_7
REMARK    3  A    between atoms: N_12  and  C_13
REMARK    4  A    between atoms: C_13  and  N_15
REMARK    5  A    between atoms: N_15  and  C_16
REMARK    6  A    between atoms: C_17  and  C_24
REMARK                            x       y       z     vdW  Elec       q    Type
REMARK                         _______ _______ _______ _____ _____    ______ ____
ROOT
ATOM      1  C   UNL     1       2.412  -2.727  -0.217  0.00  0.00    +0.141 C 
ATOM      2  S   UNL     1       3.875  -1.848  -0.355  0.00  0.00    -0.018 S 
ENDROOT
BRANCH   1   5
ATOM      3  C   UNL     1       3.581  -4.723  -0.528  0.00  0.00    +0.251 C 
ATOM      4  O   UNL     1       4.619  -4.100  -0.626  0.00  0.00    -0.270 OA
ATOM      5  N   UNL     1       2.420  -4.071  -0.319  0.00  0.00    -0.264 N 
ATOM      6  H   UNL     1       1.591  -4.568  -0.241  0.00  0.00    +0.157 HD
BRANCH   3  10
ATOM      7  C   UNL     1       3.608  -8.958  -0.847  0.00  0.00    +0.034 A 
ATOM      8  C   UNL     1       4.792  -8.253  -0.960  0.00  0.00    +0.018 A 
ATOM      9  C   UNL     1       4.791  -6.876  -0.857  0.00  0.00    +0.030 A 
ATOM     10  C   UNL     1       3.590  -6.196  -0.640  0.00  0.00    +0.053 A 
ATOM     11  C   UNL     1       2.400  -6.916  -0.522  0.00  0.00    +0.047 A 
ATOM     12  C   UNL     1       2.415  -8.291  -0.631  0.00  0.00    +0.127 A 
ATOM     13 BR   UNL     1       6.411  -5.913  -1.012  0.00  0.00    -0.050 Br
BRANCH  12  14
ATOM     14  N   UNL     1       1.153  -9.055  -0.511  0.00  0.00    +0.056 N 
ATOM     15  O   UNL     1       1.165 -10.270  -0.602  0.00  0.00    -0.126 OA
ATOM     16  O   UNL     1       0.102  -8.469  -0.321  0.00  0.00    -0.126 OA
ENDBRANCH  12  14
ENDBRANCH   3  10
ENDBRANCH   1   5
BRANCH   1  17
ATOM     17  N   UNL     1       1.251  -2.074  -0.007  0.00  0.00    -0.295 N 
ATOM     18  H   UNL     1       0.433  -2.574   0.141  0.00  0.00    +0.154 HD
BRANCH  17  19
ATOM     19  C   UNL     1       1.226  -0.682  -0.004  0.00  0.00    +0.065 A 
ATOM     20  C   UNL     1       0.307   0.009  -0.808  0.00  0.00    +0.087 A 
ATOM     21  C   UNL     1       0.292   1.406  -0.796  0.00  0.00    +0.037 A 
ATOM     22  C   UNL     1       1.178   2.097   0.004  0.00  0.00    +0.043 A 
ATOM     23  C   UNL     1       2.085   1.411   0.798  0.00  0.00    +0.042 A 
ATOM     24  C   UNL     1       2.111   0.030   0.797  0.00  0.00    +0.064 A 
ATOM     25 CL   UNL     1       3.250  -0.817   1.796  0.00  0.00    -0.082 Cl
ATOM     26 CL   UNL     1       1.157   3.833   0.018  0.00  0.00    -0.083 Cl
BRANCH  20  27
ATOM     27  C   UNL     1      -0.636  -0.735  -1.662  0.00  0.00    +0.388 C 
ATOM     28  O   UNL     1      -0.556  -1.944  -1.746  0.00  0.00    -0.241 OA
ATOM     29  O   UNL     1      -1.589  -0.073  -2.349  0.00  0.00    -0.241 OA
ENDBRANCH  20  27
ENDBRANCH  17  19
ENDBRANCH   1  17
TORSDOF 6
