REMARK  Name = ZINC58891062
REMARK  9 active torsions:
REMARK  status: ('A' for Active; 'I' for Inactive)
REMARK    1  A    between atoms: C_4  and  C_7
REMARK    2  A    between atoms: C_7  and  C_9
REMARK    3  A    between atoms: C_7  and  O_34
REMARK    4  A    between atoms: C_9  and  C_10
REMARK    5  A    between atoms: C_10  and  C_11
REMARK    6  A    between atoms: N_13  and  N_14
REMARK    7  A    between atoms: C_15  and  C_16
REMARK    8  A    between atoms: N_18  and  C_25
REMARK    9  A    between atoms: C_25  and  C_26
REMARK                            x       y       z     vdW  Elec       q    Type
REMARK                         _______ _______ _______ _____ _____    ______ ____
ROOT
ATOM      1  C   UNL     1       9.409  -3.997   3.485  0.00  0.00    +0.020 A 
ATOM      2  C   UNL     1      10.546  -4.744   3.524  0.00  0.00    +0.096 A 
ATOM      3  N   UNL     1      11.179  -4.680   2.319  0.00  0.00    -0.342 N 
ATOM      4  C   UNL     1      10.469  -3.881   1.448  0.00  0.00    +0.050 A 
ATOM      5  C   UNL     1       9.329  -3.423   2.130  0.00  0.00    +0.009 A 
ATOM      6  C   UNL     1       8.417  -2.592   1.484  0.00  0.00    +0.010 A 
ATOM      7  C   UNL     1       8.635  -2.226   0.174  0.00  0.00    +0.001 A 
ATOM      8  C   UNL     1       9.758  -2.681  -0.502  0.00  0.00    +0.002 A 
ATOM      9  C   UNL     1      10.674  -3.496   0.127  0.00  0.00    +0.026 A 
ENDROOT
BRANCH   1  11
ATOM     10  N   UNL     1       8.810  -4.009   5.810  0.00  0.00    -0.188 NA
ATOM     11  C   UNL     1       8.445  -3.805   4.580  0.00  0.00    +0.140 C 
BRANCH  10  14
ATOM     12  C   UNL     1      10.528  -4.534   7.371  0.00  0.00    +0.232 C 
ATOM     13  O   UNL     1       9.687  -4.654   8.237  0.00  0.00    -0.274 OA
ATOM     14  N   UNL     1      10.162  -4.209   6.116  0.00  0.00    -0.207 N 
ATOM     15  H   UNL     1      10.835  -4.113   5.424  0.00  0.00    +0.177 HD
BRANCH  12  16
ATOM     16  C   UNL     1      11.983  -4.749   7.700  0.00  0.00    +0.100 C 
BRANCH  16  17
ATOM     17  C   UNL     1      12.124  -5.105   9.181  0.00  0.00    +0.045 C 
BRANCH  17  18
ATOM     18  C   UNL     1      13.601  -5.323   9.515  0.00  0.00    +0.145 C 
BRANCH  18  22
ATOM     19  C   UNL     1      13.968  -6.654  13.557  0.00  0.00    +0.000 A 
ATOM     20  C   UNL     1      14.031  -7.567  12.521  0.00  0.00    +0.000 A 
ATOM     21  C   UNL     1      13.912  -7.136  11.213  0.00  0.00    +0.006 A 
ATOM     22  C   UNL     1      13.730  -5.793  10.941  0.00  0.00    -0.019 A 
ATOM     23  C   UNL     1      13.666  -4.881  11.978  0.00  0.00    +0.006 A 
ATOM     24  C   UNL     1      13.787  -5.311  13.286  0.00  0.00    +0.000 A 
ENDBRANCH  18  22
BRANCH  18  25
ATOM     25  O   UNL     1      14.313  -4.095   9.352  0.00  0.00    -0.387 OA
ATOM     26  H   UNL     1      13.995  -3.378   9.918  0.00  0.00    +0.210 HD
ENDBRANCH  18  25
ENDBRANCH  17  18
ENDBRANCH  16  17
ENDBRANCH  12  16
ENDBRANCH  10  14
ENDBRANCH   1  11
BRANCH   3  27
ATOM     27  C   UNL     1      12.435  -5.361   1.996  0.00  0.00    +0.158 C 
BRANCH  27  28
ATOM     28  C   UNL     1      13.589  -4.417   2.214  0.00  0.00    -0.009 A 
ATOM     29  C   UNL     1      14.092  -3.684   1.155  0.00  0.00    +0.008 A 
ATOM     30  C   UNL     1      15.150  -2.818   1.353  0.00  0.00    +0.020 A 
ATOM     31  C   UNL     1      15.707  -2.684   2.613  0.00  0.00    +0.042 A 
ATOM     32  C   UNL     1      15.205  -3.416   3.673  0.00  0.00    +0.040 A 
ATOM     33  C   UNL     1      14.142  -4.280   3.474  0.00  0.00    +0.047 A 
ATOM     34 CL   UNL     1      13.507  -5.195   4.805  0.00  0.00    -0.083 Cl
ATOM     35 CL   UNL     1      17.037  -1.596   2.862  0.00  0.00    -0.083 Cl
ENDBRANCH  27  28
ENDBRANCH   3  27
TORSDOF 9
