REMARK  Name = ZINC38600425
REMARK  6 active torsions:
REMARK  status: ('A' for Active; 'I' for Inactive)
REMARK    1  A    between atoms: C_1  and  O_2
REMARK    2  A    between atoms: O_2  and  C_3
REMARK    3  A    between atoms: C_3  and  C_5
REMARK    4  A    between atoms: C_7  and  N_16
REMARK    5  A    between atoms: C_17  and  C_19
REMARK    6  A    between atoms: C_19  and  N_20
REMARK                            x       y       z     vdW  Elec       q    Type
REMARK                         _______ _______ _______ _____ _____    ______ ____
ROOT
ATOM      1  C   UNL     1       2.667  -3.440  -1.197  0.00  0.00    +0.234 C 
ATOM      2  C   UNL     1       1.692  -2.664  -0.339  0.00  0.00    +0.053 C 
ATOM      3  C   UNL     1       0.752  -2.146  -1.214  0.00  0.00    +0.019 A 
ATOM      4  C   UNL     1      -0.396  -1.343  -1.015  0.00  0.00    +0.031 A 
ATOM      5  C   UNL     1      -1.152  -0.975  -2.080  0.00  0.00    +0.042 A 
ATOM      6  C   UNL     1      -0.826  -1.371  -3.381  0.00  0.00    +0.022 A 
ATOM      7  C   UNL     1       0.258  -2.140  -3.645  0.00  0.00    +0.027 A 
ATOM      8  C   UNL     1       1.098  -2.565  -2.583  0.00  0.00    +0.045 A 
ATOM      9  N   UNL     1       2.192  -3.303  -2.577  0.00  0.00    -0.367 N 
ATOM     10 CL   UNL     1      -2.557   0.010  -1.822  0.00  0.00    -0.084 Cl
ATOM     11  H   UNL     1       2.613  -3.692  -3.359  0.00  0.00    +0.161 HD
ENDROOT
BRANCH   2  12
ATOM     12  N   UNL     1       1.731  -2.508   1.014  0.00  0.00    -0.288 N 
ATOM     13  C   UNL     1       2.806  -2.927   1.710  0.00  0.00    +0.200 C 
ATOM     14  O   UNL     1       3.781  -3.348   1.125  0.00  0.00    -0.278 OA
ATOM     15  H   UNL     1       0.984  -2.096   1.476  0.00  0.00    +0.155 HD
BRANCH  13  16
ATOM     16  C   UNL     1       2.797  -2.871   3.216  0.00  0.00    +0.019 C 
BRANCH  16  17
ATOM     17  N   UNL     1       4.075  -3.379   3.733  0.00  0.00    +0.385 N 
ATOM     18  C   UNL     1       4.232  -4.783   3.308  0.00  0.00    -0.078 C 
ATOM     19  C   UNL     1       5.705  -5.109   3.286  0.00  0.00    -0.019 C 
ATOM     20  C   UNL     1       6.151  -5.789   4.594  0.00  0.00    -0.002 C 
ATOM     21  C   UNL     1       5.493  -5.141   5.829  0.00  0.00    -0.002 C 
ATOM     22  C   UNL     1       5.446  -3.638   5.732  0.00  0.00    -0.019 C 
ATOM     23  C   UNL     1       4.095  -3.214   5.119  0.00  0.00    -0.078 C 
ATOM     24  H   UNL     1       4.824  -2.835   3.332  0.00  0.00    -0.081 HD
ENDBRANCH  16  17
ENDBRANCH  13  16
ENDBRANCH   2  12
BRANCH   1  25
ATOM     25  C   UNL     1       2.675  -4.891  -0.792  0.00  0.00    +0.335 C 
ATOM     26  O   UNL     1       1.948  -5.678  -1.351  0.00  0.00    -0.248 OA
BRANCH  25  28
ATOM     27  C   UNL     1       3.443  -6.699   0.522  0.00  0.00    +0.280 C 
ATOM     28  O   UNL     1       3.489  -5.310   0.190  0.00  0.00    -0.466 OA
ENDBRANCH  25  28
ENDBRANCH   1  25
TORSDOF 5
