REMARK  Name = ZINC39735133
REMARK  10 active torsions:
REMARK  status: ('A' for Active; 'I' for Inactive)
REMARK    1  A    between atoms: C_1  and  C_2
REMARK    2  A    between atoms: C_6  and  C_8
REMARK    3  A    between atoms: C_12  and  C_16
REMARK    4  A    between atoms: C_16  and  N_17
REMARK    5  A    between atoms: N_21  and  C_24
REMARK    6  A    between atoms: C_24  and  C_25
REMARK    7  A    between atoms: N_27  and  C_28
REMARK    8  A    between atoms: C_28  and  C_29
REMARK    9  A    between atoms: C_28  and  C_30
REMARK   10  A    between atoms: C_28  and  C_31
REMARK                            x       y       z     vdW  Elec       q    Type
REMARK                         _______ _______ _______ _____ _____    ______ ____
ROOT
ATOM      1  C   UNL     1       4.298  -4.154   5.881  0.00  0.00    +0.158 C 
ENDROOT
BRANCH   1   6
ATOM      2  C   UNL     1      -0.236  -3.120   2.708  0.00  0.00    -0.009 C 
ATOM      3  C   UNL     1       0.918  -3.283   3.440  0.00  0.00    +0.076 C 
ATOM      4  C   UNL     1       0.988  -4.441   4.342  0.00  0.00    +0.112 C 
ATOM      5  N   UNL     1       2.060  -4.656   5.071  0.00  0.00    -0.226 NA
ATOM      6  C   UNL     1       3.103  -3.844   5.017  0.00  0.00    +0.138 C 
ATOM      7  N   UNL     1       3.149  -2.782   4.248  0.00  0.00    -0.160 NA
ATOM      8  C   UNL     1       2.139  -2.426   3.448  0.00  0.00    +0.272 C 
ATOM      9  O   UNL     1       2.214  -1.432   2.744  0.00  0.00    -0.268 OA
ATOM     10  S   UNL     1      -0.566  -5.275   4.142  0.00  0.00    -0.100 S 
ATOM     11  C   UNL     1      -1.326  -4.148   2.905  0.00  0.00    +0.113 C 
BRANCH   2  16
ATOM     12  C   UNL     1      -1.959   1.044  -0.224  0.00  0.00    +0.019 C 
ATOM     13  C   UNL     1      -0.891   0.420   0.676  0.00  0.00    +0.052 C 
ATOM     14  C   UNL     1       0.006  -0.570  -0.110  0.00  0.00    +0.042 C 
ATOM     15  C   UNL     1       0.352  -1.759   0.728  0.00  0.00    -0.011 C 
ATOM     16  C   UNL     1      -0.397  -2.036   1.813  0.00  0.00    +0.009 C 
ATOM     17  S   UNL     1      -1.634  -0.752   1.888  0.00  0.00    -0.122 S 
ENDBRANCH   2  16
ENDBRANCH   1   6
BRANCH   1  18
ATOM     18  N   UNL     1       5.334  -3.135   5.668  0.00  0.00    -0.297 NA
ATOM     19  C   UNL     1       4.901  -1.848   6.157  0.00  0.00    +0.083 C 
ATOM     20  C   UNL     1       5.379  -0.677   5.275  0.00  0.00    -0.003 C 
ATOM     21  C   UNL     1       6.838  -0.859   4.811  0.00  0.00    -0.077 C 
ATOM     22  N   UNL     1       7.678  -1.372   5.866  0.00  0.00    +0.386 N 
ATOM     23  C   UNL     1       7.752  -2.839   5.720  0.00  0.00    -0.063 C 
ATOM     24  C   UNL     1       6.610  -3.531   6.314  0.00  0.00    +0.066 C 
ATOM     25  H   UNL     1       7.280  -1.138   6.763  0.00  0.00    -0.081 HD
BRANCH  22  26
ATOM     26  C   UNL     1       9.024  -0.794   5.753  0.00  0.00    +0.019 C 
BRANCH  26  27
ATOM     27  C   UNL     1       8.954   0.693   5.992  0.00  0.00    +0.197 C 
ATOM     28  O   UNL     1       7.888   1.218   6.231  0.00  0.00    -0.278 OA
ATOM     29  N   UNL     1      10.076   1.437   5.938  0.00  0.00    -0.312 N 
ATOM     30  H   UNL     1      10.928   1.017   5.747  0.00  0.00    +0.149 HD
BRANCH  29  31
ATOM     31  C   UNL     1      10.007   2.882   6.170  0.00  0.00    +0.026 C 
ATOM     32  C   UNL     1       9.453   3.149   7.571  0.00  0.00    +0.031 C 
ATOM     33  C   UNL     1      11.409   3.485   6.053  0.00  0.00    +0.031 C 
ATOM     34  C   UNL     1       9.088   3.523   5.128  0.00  0.00    +0.031 C 
ENDBRANCH  29  31
ENDBRANCH  26  27
ENDBRANCH  22  26
ENDBRANCH   1  18
TORSDOF 6
