REMARK  Name = ZINC59015605
REMARK  8 active torsions:
REMARK  status: ('A' for Active; 'I' for Inactive)
REMARK    1  A    between atoms: C_6  and  C_7
REMARK    2  A    between atoms: C_7  and  C_8
REMARK    3  A    between atoms: C_8  and  N_9
REMARK    4  A    between atoms: C_10  and  C_12
REMARK    5  A    between atoms: C_12  and  S_13
REMARK    6  A    between atoms: S_13  and  C_14
REMARK    7  A    between atoms: N_19  and  N_20
REMARK    8  A    between atoms: C_21  and  C_22
REMARK                            x       y       z     vdW  Elec       q    Type
REMARK                         _______ _______ _______ _____ _____    ______ ____
ROOT
ATOM      1  C   UNL     1      -6.931  -4.085  -4.104  0.00  0.00    +0.211 A 
ATOM      2  N   UNL     1      -7.692  -4.533  -5.108  0.00  0.00    -0.186 NA
ATOM      3  C   UNL     1      -8.742  -5.162  -4.622  0.00  0.00    +0.232 A 
ATOM      4  N   UNL     1      -8.664  -5.123  -3.275  0.00  0.00    -0.245 N 
ATOM      5  N   UNL     1      -7.484  -4.428  -2.964  0.00  0.00    -0.144 NA
ATOM      6  N   UNL     1      -9.748  -5.757  -5.361  0.00  0.00    -0.205 N 
ATOM      7  H   UNL     1     -10.484  -6.199  -4.911  0.00  0.00    +0.177 HD
ATOM      8  H   UNL     1      -9.296  -5.504  -2.645  0.00  0.00    +0.192 HD
ENDROOT
BRANCH   6   9
ATOM      9  N   UNL     1      -9.702  -5.722  -6.761  0.00  0.00    -0.188 NA
ATOM     10  C   UNL     1     -10.646  -6.281  -7.455  0.00  0.00    +0.138 C 
BRANCH  10  11
ATOM     11  C   UNL     1     -10.598  -6.245  -8.928  0.00  0.00    -0.005 A 
ATOM     12  C   UNL     1      -9.535  -5.614  -9.581  0.00  0.00    +0.010 A 
ATOM     13  C   UNL     1      -9.496  -5.584 -10.959  0.00  0.00    +0.016 A 
ATOM     14  C   UNL     1     -10.508  -6.177 -11.696  0.00  0.00    +0.018 A 
ATOM     15  C   UNL     1     -11.564  -6.803 -11.056  0.00  0.00    +0.016 A 
ATOM     16  C   UNL     1     -11.612  -6.845  -9.679  0.00  0.00    +0.010 A 
ATOM     17 BR   UNL     1     -10.446  -6.130 -13.585  0.00  0.00    -0.050 Br
ENDBRANCH  10  11
ENDBRANCH   6   9
BRANCH   1  18
ATOM     18  S   UNL     1      -5.426  -3.187  -4.282  0.00  0.00    -0.075 S 
BRANCH  18  19
ATOM     19  C   UNL     1      -4.889  -2.887  -2.575  0.00  0.00    +0.173 C 
BRANCH  19  21
ATOM     20  N   UNL     1      -3.004  -1.778  -1.420  0.00  0.00    -0.314 N 
ATOM     21  C   UNL     1      -3.595  -2.116  -2.584  0.00  0.00    +0.223 C 
ATOM     22  O   UNL     1      -3.084  -1.800  -3.637  0.00  0.00    -0.275 OA
ATOM     23  H   UNL     1      -3.413  -2.030  -0.578  0.00  0.00    +0.149 HD
BRANCH  20  24
ATOM     24  C   UNL     1      -1.745  -1.028  -1.429  0.00  0.00    +0.109 C 
BRANCH  24  25
ATOM     25  C   UNL     1      -1.293  -0.775   0.011  0.00  0.00    +0.054 C 
BRANCH  25  31
ATOM     26  C   UNL     1      -0.017   1.378   0.010  0.00  0.00    +0.005 A 
ATOM     27  C   UNL     1       1.171   2.086   0.002  0.00  0.00    +0.020 A 
ATOM     28  C   UNL     1       2.378   1.410  -0.013  0.00  0.00    +0.041 A 
ATOM     29  C   UNL     1       2.396   0.027  -0.021  0.00  0.00    +0.020 A 
ATOM     30  C   UNL     1       1.208  -0.679  -0.013  0.00  0.00    +0.005 A 
ATOM     31  C   UNL     1       0.002  -0.004   0.002  0.00  0.00    -0.046 A 
ATOM     32 CL   UNL     1       3.870   2.298  -0.023  0.00  0.00    -0.084 Cl
ENDBRANCH  25  31
ENDBRANCH  24  25
ENDBRANCH  20  24
ENDBRANCH  19  21
ENDBRANCH  18  19
ENDBRANCH   1  18
TORSDOF 8
