REMARK  Name = ZINC21919882
REMARK  8 active torsions:
REMARK  status: ('A' for Active; 'I' for Inactive)
REMARK    1  A    between atoms: C_1  and  C_2
REMARK    2  A    between atoms: C_2  and  N_3
REMARK    3  A    between atoms: C_16  and  C_17
REMARK    4  A    between atoms: C_16  and  C_18
REMARK    5  A    between atoms: N_20  and  C_21
REMARK    6  A    between atoms: C_21  and  C_22
REMARK    7  A    between atoms: N_24  and  C_25
REMARK    8  A    between atoms: C_25  and  C_26
REMARK                            x       y       z     vdW  Elec       q    Type
REMARK                         _______ _______ _______ _____ _____    ______ ____
ROOT
ATOM      1  N   UNL     1       0.613  -2.716  -0.278  0.00  0.00    -0.281 N 
ATOM      2  C   UNL     1       1.650  -1.872  -0.070  0.00  0.00    +0.264 C 
ATOM      3  O   UNL     1       2.788  -2.278   0.076  0.00  0.00    -0.268 OA
ATOM      4  C   UNL     1       1.328  -0.433  -0.028  0.00  0.00    +0.106 A 
ATOM      5  C   UNL     1       2.143   0.638  -0.023  0.00  0.00    +0.041 A 
ATOM      6  C   UNL     1       1.326   1.798  -0.001  0.00  0.00    +0.001 A 
ATOM      7  C   UNL     1       1.610   3.169   0.009  0.00  0.00    +0.010 A 
ATOM      8  C   UNL     1       0.590   4.075   0.025  0.00  0.00    +0.001 A 
ATOM      9  C   UNL     1      -0.732   3.650   0.032  0.00  0.00    +0.002 A 
ATOM     10  C   UNL     1      -1.038   2.308   0.019  0.00  0.00    +0.026 A 
ATOM     11  C   UNL     1      -0.016   1.362   0.009  0.00  0.00    +0.050 A 
ATOM     12  N   UNL     1       0.002  -0.004   0.002  0.00  0.00    -0.334 N 
ATOM     13  C   UNL     1      -1.113  -0.955   0.033  0.00  0.00    +0.157 C 
ATOM     14  C   UNL     1      -0.701  -2.237  -0.690  0.00  0.00    +0.128 C 
ATOM     15  C   UNL     1      -1.738  -3.323  -0.396  0.00  0.00    +0.043 C 
ENDROOT
BRANCH  14  16
ATOM     16  C   UNL     1      -0.680  -1.974  -2.174  0.00  0.00    +0.239 C 
ATOM     17  O   UNL     1      -1.321  -1.053  -2.635  0.00  0.00    -0.273 OA
ATOM     18  N   UNL     1       0.051  -2.761  -2.987  0.00  0.00    -0.305 N 
ATOM     19  H   UNL     1       0.632  -3.596  -2.568  0.00  0.00    +0.149 HD
BRANCH  18  20
ATOM     20  C   UNL     1       0.071  -2.505  -4.430  0.00  0.00    +0.200 C 
BRANCH  20  21
ATOM     21  C   UNL     1       0.956  -3.519  -5.107  0.00  0.00    +0.230 C 
ATOM     22  O   UNL     1       1.515  -4.372  -4.450  0.00  0.00    -0.274 OA
ATOM     23  N   UNL     1       1.127  -3.479  -6.444  0.00  0.00    -0.310 N 
ATOM     24  H   UNL     1       0.620  -2.706  -7.040  0.00  0.00    +0.149 HD
BRANCH  23  25
ATOM     25  C   UNL     1       1.988  -4.465  -7.102  0.00  0.00    +0.142 C 
BRANCH  25  26
ATOM     26  C   UNL     1       2.009  -4.202  -8.586  0.00  0.00    +0.005 A 
ATOM     27  C   UNL     1       1.224  -4.961  -9.434  0.00  0.00    +0.008 A 
ATOM     28  C   UNL     1       1.239  -4.716 -10.794  0.00  0.00    +0.000 A 
ATOM     29  C   UNL     1       2.047  -3.719 -11.309  0.00  0.00    +0.003 A 
ATOM     30  C   UNL     1       2.836  -2.962 -10.464  0.00  0.00    +0.038 A 
ATOM     31  C   UNL     1       2.817  -3.203  -9.101  0.00  0.00    +0.128 A 
ATOM     32  F   UNL     1       3.589  -2.464  -8.273  0.00  0.00    -0.205 F 
ENDBRANCH  25  26
ENDBRANCH  23  25
ENDBRANCH  20  21
ENDBRANCH  18  20
ENDBRANCH  14  16
BRANCH   1  34
ATOM     33  C   UNL     1       0.501  -4.520   1.369  0.00  0.00    +0.024 C 
ATOM     34  C   UNL     1       0.816  -4.153  -0.082  0.00  0.00    +0.106 C 
ENDBRANCH   1  34
TORSDOF 6
