REMARK  Name = ZINC35315352
REMARK  6 active torsions:
REMARK  status: ('A' for Active; 'I' for Inactive)
REMARK    1  A    between atoms: C_8  and  C_10
REMARK    2  A    between atoms: C_10  and  C_33
REMARK    3  A    between atoms: C_11  and  C_12
REMARK    4  A    between atoms: C_13  and  N_27
REMARK    5  A    between atoms: C_15  and  C_16
REMARK    6  A    between atoms: C_20  and  N_22
REMARK                            x       y       z     vdW  Elec       q    Type
REMARK                         _______ _______ _______ _____ _____    ______ ____
ROOT
ATOM      1  C   UNL     1       5.243  -3.602  -0.204  0.00  0.00    -0.026 C 
ATOM      2  C   UNL     1       6.636  -3.514  -0.354  0.00  0.00    +0.020 C 
ATOM      3  C   UNL     1       7.083  -2.214  -0.358  0.00  0.00    -0.027 C 
ATOM      4  C   UNL     1       8.416  -1.819  -0.490  0.00  0.00    +0.013 C 
ATOM      5  C   UNL     1       5.907  -1.281  -0.197  0.00  0.00    +0.041 C 
ATOM      6  C   UNL     1       4.678  -2.203  -0.101  0.00  0.00    +0.041 C 
ENDROOT
BRANCH   2   7
ATOM      7  N   UNL     1       7.476  -4.625  -0.483  0.00  0.00    -0.389 NA
ATOM      8  C   UNL     1       8.476  -4.611   0.593  0.00  0.00    +0.113 C 
ATOM      9  C   UNL     1       9.393  -5.828   0.450  0.00  0.00    +0.177 C 
ATOM     10  O   UNL     1      10.010  -5.804  -0.841  0.00  0.00    -0.377 OA
ATOM     11  C   UNL     1       9.075  -5.792  -1.923  0.00  0.00    +0.177 C 
ATOM     12  C   UNL     1       8.157  -4.575  -1.784  0.00  0.00    +0.113 C 
ATOM     13  H   UNL     1       6.927  -5.470  -0.423  0.00  0.00    +0.127 HD
ENDBRANCH   2   7
BRANCH   4  14
ATOM     14  C   UNL     1       8.769  -0.460  -0.329  0.00  0.00    -0.023 A 
ATOM     15  C   UNL     1       8.132   0.328   0.649  0.00  0.00    +0.008 A 
ATOM     16  C   UNL     1       8.480   1.640   0.799  0.00  0.00    +0.003 A 
ATOM     17  C   UNL     1       9.457   2.203  -0.009  0.00  0.00    +0.033 A 
ATOM     18  C   UNL     1      10.095   1.442  -0.977  0.00  0.00    +0.127 A 
ATOM     19  C   UNL     1       9.765   0.116  -1.142  0.00  0.00    +0.040 A 
BRANCH  18  20
ATOM     20  N   UNL     1      11.136   2.056  -1.831  0.00  0.00    +0.056 N 
ATOM     21  O   UNL     1      11.457   3.323  -1.671  0.00  0.00    -0.126 OA
ATOM     22  O   UNL     1      11.743   1.334  -2.752  0.00  0.00    -0.126 OA
ENDBRANCH  18  20
ENDBRANCH   4  14
BRANCH   1  24
ATOM     23  C   UNL     1       3.870  -5.159   1.031  0.00  0.00    +0.084 C 
ATOM     24  C   UNL     1       4.511  -4.768  -0.165  0.00  0.00    +0.027 C 
BRANCH  23  32
ATOM     25  C   UNL     1       3.780  -3.066   6.752  0.00  0.00    +0.002 A 
ATOM     26  C   UNL     1       4.809  -2.156   6.514  0.00  0.00    +0.001 A 
ATOM     27  C   UNL     1       5.378  -2.083   5.258  0.00  0.00    +0.017 A 
ATOM     28  C   UNL     1       4.920  -2.908   4.260  0.00  0.00    +0.040 A 
ATOM     29  C   UNL     1       3.868  -3.851   4.468  0.00  0.00    +0.079 A 
ATOM     30  C   UNL     1       3.314  -3.888   5.782  0.00  0.00    +0.029 A 
ATOM     31  N   UNL     1       3.531  -4.581   3.414  0.00  0.00    -0.238 NA
ATOM     32  C   UNL     1       4.124  -4.455   2.234  0.00  0.00    +0.120 A 
ATOM     33  S   UNL     1       5.324  -3.168   2.549  0.00  0.00    -0.067 S 
ENDBRANCH  23  32
BRANCH  23  34
ATOM     34  C   UNL     1       2.963  -6.268   1.029  0.00  0.00    +0.102 C 
ATOM     35  N   UNL     1       2.244  -7.147   1.027  0.00  0.00    -0.191 NA
ENDBRANCH  23  34
ENDBRANCH   1  24
TORSDOF 6
