REMARK  Name = ZINC02753756
REMARK  8 active torsions:
REMARK  status: ('A' for Active; 'I' for Inactive)
REMARK    1  A    between atoms: C_1  and  C_2
REMARK    2  A    between atoms: C_3  and  C_8
REMARK    3  A    between atoms: N_5  and  C_7
REMARK    4  A    between atoms: C_8  and  N_9
REMARK    5  A    between atoms: N_9  and  C_10
REMARK    6  A    between atoms: C_11  and  C_13
REMARK    7  A    between atoms: C_19  and  C_28
REMARK    8  A    between atoms: C_22  and  C_24
REMARK                            x       y       z     vdW  Elec       q    Type
REMARK                         _______ _______ _______ _____ _____    ______ ____
ROOT
ATOM      1  C   UNL     1       3.114   1.500  -3.449  0.00  0.00    +0.096 A 
ATOM      2  C   UNL     1       3.900   0.580  -4.187  0.00  0.00    +0.149 A 
ATOM      3  N   UNL     1       5.010   1.174  -4.531  0.00  0.00    -0.177 NA
ATOM      4  N   UNL     1       5.000   2.480  -4.045  0.00  0.00    -0.238 N 
ATOM      5  C   UNL     1       3.834   2.678  -3.387  0.00  0.00    +0.130 A 
ATOM      6  N   UNL     1       3.506   3.879  -2.782  0.00  0.00    -0.322 N 
ATOM      7  C   UNL     1       4.602   4.858  -2.640  0.00  0.00    +0.104 C 
ATOM      8  C   UNL     1       5.401   4.886  -3.948  0.00  0.00    +0.063 C 
ATOM      9  C   UNL     1       6.035   3.509  -4.194  0.00  0.00    +0.215 C 
ATOM     10  H   UNL     1       2.607   4.067  -2.470  0.00  0.00    +0.148 HD
ENDROOT
BRANCH   7  11
ATOM     11  C   UNL     1       4.028   6.224  -2.363  0.00  0.00    -0.027 A 
ATOM     12  C   UNL     1       2.886   6.640  -3.021  0.00  0.00    +0.006 A 
ATOM     13  C   UNL     1       2.360   7.892  -2.767  0.00  0.00    +0.015 A 
ATOM     14  C   UNL     1       2.975   8.729  -1.854  0.00  0.00    +0.018 A 
ATOM     15  C   UNL     1       4.118   8.312  -1.196  0.00  0.00    +0.015 A 
ATOM     16  C   UNL     1       4.641   7.058  -1.447  0.00  0.00    +0.006 A 
ATOM     17 BR   UNL     1       2.256  10.443  -1.506  0.00  0.00    -0.050 Br
ENDBRANCH   7  11
BRANCH   1  20
ATOM     18  N   UNL     1       1.479   0.031  -2.392  0.00  0.00    -0.296 N 
ATOM     19  C   UNL     1       2.493  -1.027  -2.375  0.00  0.00    +0.132 C 
ATOM     20  C   UNL     1       1.788   1.253  -2.869  0.00  0.00    +0.251 C 
ATOM     21  O   UNL     1       0.968   2.151  -2.819  0.00  0.00    -0.270 OA
BRANCH  18  22
ATOM     22  C   UNL     1       0.129  -0.240  -1.890  0.00  0.00    +0.146 C 
BRANCH  22  25
ATOM     23  C   UNL     1      -0.190   2.641  -0.611  0.00  0.00    +0.068 C 
ATOM     24  C   UNL     1      -0.073   1.345   0.148  0.00  0.00    +0.065 A 
ATOM     25  C   UNL     1       0.069   0.073  -0.418  0.00  0.00    +0.010 A 
ATOM     26  C   UNL     1       0.141  -0.826   0.591  0.00  0.00    +0.113 A 
ATOM     27  N   UNL     1       0.048  -0.147   1.754  0.00  0.00    -0.274 N 
ATOM     28  N   UNL     1      -0.080   1.214   1.450  0.00  0.00    -0.176 NA
ATOM     29  C   UNL     1       0.081  -0.731   3.097  0.00  0.00    +0.172 C 
ENDBRANCH  22  25
ENDBRANCH  18  22
ENDBRANCH   1  20
BRANCH   9  30
ATOM     30  C   UNL     1       6.602   3.465  -5.614  0.00  0.00    +0.412 C 
ATOM     31  F   UNL     1       5.574   3.702  -6.534  0.00  0.00    -0.168 F 
ATOM     32  F   UNL     1       7.588   4.447  -5.754  0.00  0.00    -0.168 F 
ATOM     33  F   UNL     1       7.161   2.205  -5.854  0.00  0.00    -0.168 F 
ENDBRANCH   9  30
TORSDOF 5
