REMARK  Name = ZINC39686306
REMARK  7 active torsions:
REMARK  status: ('A' for Active; 'I' for Inactive)
REMARK    1  A    between atoms: C_1  and  C_2
REMARK    2  A    between atoms: C_2  and  C_3
REMARK    3  A    between atoms: C_2  and  C_4
REMARK    4  A    between atoms: C_4  and  C_5
REMARK    5  A    between atoms: C_10  and  N_13
REMARK    6  A    between atoms: C_14  and  C_16
REMARK    7  A    between atoms: C_27  and  C_29
REMARK                            x       y       z     vdW  Elec       q    Type
REMARK                         _______ _______ _______ _____ _____    ______ ____
ROOT
ATOM      1  C   UNL     1       7.545  -5.032  -5.200  0.00  0.00    +0.100 C 
ATOM      2  C   UNL     1       8.161  -5.046  -3.783  0.00  0.00    +0.121 C 
ATOM      3  N   UNL     1       9.569  -5.457  -3.990  0.00  0.00    -0.300 N 
ATOM      4  C   UNL     1       9.978  -4.758  -5.232  0.00  0.00    +0.115 C 
ATOM      5  C   UNL     1       8.741  -4.842  -6.148  0.00  0.00    -0.004 C 
ATOM      6  C   UNL     1       8.585  -3.549  -6.943  0.00  0.00    -0.010 C 
ATOM      7  C   UNL     1       9.756  -3.411  -7.920  0.00  0.00    -0.082 C 
ATOM      8  N   UNL     1       9.779  -4.566  -8.826  0.00  0.00    +0.379 N 
ATOM      9  C   UNL     1      10.022  -5.796  -8.063  0.00  0.00    -0.082 C 
ATOM     10  C   UNL     1       8.862  -6.035  -7.091  0.00  0.00    -0.010 C 
ATOM     11  C   UNL     1      10.311  -6.282  -3.224  0.00  0.00    +0.219 C 
ATOM     12  O   UNL     1       9.806  -6.844  -2.275  0.00  0.00    -0.275 OA
ATOM     13  H   UNL     1       8.891  -4.637  -9.301  0.00  0.00    -0.086 HD
ATOM     14  H   UNL     1      10.513  -4.444  -9.507  0.00  0.00    -0.086 HD
ENDROOT
BRANCH  11  15
ATOM     15  C   UNL     1      11.766  -6.504  -3.546  0.00  0.00    +0.079 C 
ATOM     16  C   UNL     1      12.213  -7.866  -3.000  0.00  0.00    +0.017 C 
ATOM     17  C   UNL     1      13.634  -8.142  -3.493  0.00  0.00    +0.027 C 
ATOM     18  C   UNL     1      14.513  -6.954  -3.230  0.00  0.00    -0.031 C 
ATOM     19  C   UNL     1      14.068  -5.767  -2.968  0.00  0.00    -0.030 C 
ATOM     20  C   UNL     1      12.611  -5.412  -2.886  0.00  0.00    +0.039 C 
ENDBRANCH  11  15
BRANCH   1  22
ATOM     21  N   UNL     1       5.547  -3.976  -6.205  0.00  0.00    -0.312 N 
ATOM     22  C   UNL     1       6.577  -3.886  -5.340  0.00  0.00    +0.218 C 
ATOM     23  O   UNL     1       6.725  -2.882  -4.676  0.00  0.00    -0.275 OA
ATOM     24  H   UNL     1       5.428  -4.778  -6.736  0.00  0.00    +0.149 HD
BRANCH  21  30
ATOM     25  C   UNL     1       0.716  -1.715  -6.995  0.00  0.00    +0.216 C 
ATOM     26  O   UNL     1      -0.063  -1.725  -6.065  0.00  0.00    -0.276 OA
ATOM     27  N   UNL     1       2.043  -1.741  -6.762  0.00  0.00    -0.301 N 
ATOM     28  C   UNL     1       2.999  -1.723  -7.878  0.00  0.00    +0.109 C 
ATOM     29  C   UNL     1       3.956  -2.909  -7.726  0.00  0.00    +0.041 C 
ATOM     30  C   UNL     1       4.606  -2.861  -6.341  0.00  0.00    +0.076 C 
ATOM     31  C   UNL     1       3.524  -2.973  -5.264  0.00  0.00    +0.041 C 
ATOM     32  C   UNL     1       2.561  -1.782  -5.388  0.00  0.00    +0.109 C 
BRANCH  25  33
ATOM     33  C   UNL     1       0.199  -1.673  -8.410  0.00  0.00    +0.099 C 
BRANCH  33  35
ATOM     34  C   UNL     1      -1.814  -0.349  -7.748  0.00  0.00    +0.008 C 
ATOM     35  C   UNL     1      -1.330  -1.649  -8.395  0.00  0.00    -0.008 C 
ATOM     36  C   UNL     1      -1.856  -1.732  -9.829  0.00  0.00    +0.008 C 
ENDBRANCH  33  35
ENDBRANCH  25  33
ENDBRANCH  21  30
ENDBRANCH   1  22
TORSDOF 5
