REMARK  Name = ZINC14651253
REMARK  13 active torsions:
REMARK  status: ('A' for Active; 'I' for Inactive)
REMARK    1  A    between atoms: C_1  and  C_2
REMARK    2  A    between atoms: C_4  and  C_30
REMARK    3  A    between atoms: N_5  and  N_11
REMARK    4  A    between atoms: C_8  and  C_9
REMARK    5  A    between atoms: N_11  and  C_12
REMARK    6  A    between atoms: C_12  and  N_14
REMARK    7  A    between atoms: C_15  and  C_17
REMARK    8  A    between atoms: C_22  and  O_23
REMARK    9  A    between atoms: O_23  and  C_24
REMARK   10  A    between atoms: C_24  and  C_25
REMARK   11  A    between atoms: C_25  and  C_26
REMARK   12  A    between atoms: C_26  and  C_27
REMARK   13  A    between atoms: C_26  and  C_28
REMARK                            x       y       z     vdW  Elec       q    Type
REMARK                         _______ _______ _______ _____ _____    ______ ____
ROOT
ATOM      1  N   UNL     1       2.388   5.298   0.007  0.00  0.00    -0.262 N 
ATOM      2  C   UNL     1       2.416   3.950  -0.000  0.00  0.00    +0.253 C 
ATOM      3  O   UNL     1       3.481   3.365  -0.014  0.00  0.00    -0.270 OA
ATOM      4  H   UNL     1       1.538   5.765   0.018  0.00  0.00    +0.157 HD
ENDROOT
BRANCH   2   5
ATOM      5  C   UNL     1       1.155   3.186   0.008  0.00  0.00    +0.080 A 
ATOM      6  C   UNL     1      -0.072   3.855   0.023  0.00  0.00    +0.032 A 
ATOM      7  C   UNL     1      -1.247   3.135   0.031  0.00  0.00    +0.019 A 
ATOM      8  C   UNL     1      -1.218   1.749   0.017  0.00  0.00    +0.019 A 
ATOM      9  C   UNL     1      -0.013   1.076   0.008  0.00  0.00    +0.047 A 
ATOM     10  C   UNL     1       1.180   1.785   0.000  0.00  0.00    +0.133 A 
ATOM     11 BR   UNL     1      -2.907   4.041   0.051  0.00  0.00    -0.050 Br
BRANCH  10  12
ATOM     12  O   UNL     1       2.365   1.124  -0.015  0.00  0.00    -0.491 OA
BRANCH  12  13
ATOM     13  C   UNL     1       2.312  -0.304  -0.023  0.00  0.00    +0.229 C 
BRANCH  13  14
ATOM     14  C   UNL     1       3.734  -0.867  -0.040  0.00  0.00    +0.044 C 
BRANCH  14  15
ATOM     15  C   UNL     1       3.677  -2.396  -0.048  0.00  0.00    -0.014 C 
ATOM     16  C   UNL     1       5.093  -2.958  -0.191  0.00  0.00    +0.007 C 
ATOM     17  C   UNL     1       3.062  -2.890   1.263  0.00  0.00    +0.007 C 
ENDBRANCH  14  15
ENDBRANCH  13  14
ENDBRANCH  12  13
ENDBRANCH  10  12
ENDBRANCH   2   5
BRANCH   1  18
ATOM     18  C   UNL     1       3.540   5.996  -0.001  0.00  0.00    +0.155 C 
ATOM     19  S   UNL     1       5.041   5.171  -0.020  0.00  0.00    -0.017 S 
BRANCH  18  20
ATOM     20  N   UNL     1       3.512   7.343   0.007  0.00  0.00    -0.231 N 
ATOM     21  H   UNL     1       4.342   7.846   0.002  0.00  0.00    +0.175 HD
BRANCH  20  26
ATOM     22  C   UNL     1      -1.445  10.091   0.002  0.00  0.00    +0.045 C 
ATOM     23  C   UNL     1      -0.130   9.357   0.019  0.00  0.00    -0.026 A 
ATOM     24  C   UNL     1       0.653   9.277  -1.134  0.00  0.00    +0.027 A 
ATOM     25  C   UNL     1       1.839   8.618  -1.108  0.00  0.00    +0.040 A 
ATOM     26  N   UNL     1       2.284   8.018   0.023  0.00  0.00    -0.228 N 
ATOM     27  C   UNL     1       1.569   8.065   1.163  0.00  0.00    +0.286 A 
ATOM     28  O   UNL     1       1.988   7.523   2.171  0.00  0.00    -0.265 OA
ATOM     29  C   UNL     1       0.324   8.747   1.186  0.00  0.00    +0.121 A 
ATOM     30  C   UNL     1       2.673   8.547  -2.361  0.00  0.00    +0.065 C 
BRANCH  29  31
ATOM     31  C   UNL     1      -0.450   8.809   2.389  0.00  0.00    +0.105 C 
ATOM     32  N   UNL     1      -1.065   8.857   3.343  0.00  0.00    -0.191 NA
ENDBRANCH  29  31
ENDBRANCH  20  26
ENDBRANCH  18  20
ENDBRANCH   1  18
TORSDOF 9
