REMARK  Name = ZINC43286039
REMARK  9 active torsions:
REMARK  status: ('A' for Active; 'I' for Inactive)
REMARK    1  A    between atoms: C_1  and  C_2
REMARK    2  A    between atoms: C_4  and  C_7
REMARK    3  A    between atoms: C_7  and  N_8
REMARK    4  A    between atoms: N_8  and  C_9
REMARK    5  A    between atoms: N_8  and  C_10
REMARK    6  A    between atoms: C_10  and  C_12
REMARK    7  A    between atoms: C_10  and  C_18
REMARK    8  A    between atoms: C_18  and  C_20
REMARK    9  A    between atoms: C_18  and  N_21
REMARK                            x       y       z     vdW  Elec       q    Type
REMARK                         _______ _______ _______ _____ _____    ______ ____
ROOT
ATOM      1  C   UNL     1      -2.680  -4.804  -1.358  0.00  0.00    +0.079 C 
ENDROOT
BRANCH   1   2
ATOM      2  C   UNL     1      -2.622  -5.130  -2.828  0.00  0.00    +0.006 A 
ATOM      3  C   UNL     1      -3.605  -5.590  -3.639  0.00  0.00    +0.028 A 
ATOM      4  C   UNL     1      -3.321  -5.822  -4.973  0.00  0.00    +0.025 A 
ATOM      5  C   UNL     1      -2.066  -5.581  -5.428  0.00  0.00    +0.060 A 
ATOM      6  S   UNL     1      -1.243  -5.002  -3.954  0.00  0.00    -0.099 S 
ATOM      7 BR   UNL     1      -4.660  -6.465  -6.143  0.00  0.00    -0.050 Br
ENDBRANCH   1   2
BRANCH   1   8
ATOM      8  N   UNL     1      -2.086  -3.481  -1.126  0.00  0.00    -0.294 NA
ATOM      9  C   UNL     1      -2.914  -2.420  -1.715  0.00  0.00    +0.105 C 
BRANCH   8  10
ATOM     10  C   UNL     1      -0.712  -3.423  -1.641  0.00  0.00    +0.143 C 
BRANCH  10  14
ATOM     11  C   UNL     1       2.243  -0.781   1.560  0.00  0.00    +0.089 C 
ATOM     12  C   UNL     1       1.320  -1.143   0.424  0.00  0.00    +0.135 A 
ATOM     13  C   UNL     1       0.848  -2.373   0.149  0.00  0.00    +0.072 A 
ATOM     14  C   UNL     1       0.023  -2.282  -0.987  0.00  0.00    +0.098 A 
ATOM     15  N   UNL     1       0.006  -1.038  -1.375  0.00  0.00    -0.082 NA
ATOM     16  O   UNL     1       0.821  -0.294  -0.487  0.00  0.00    -0.360 OA
ENDBRANCH  10  14
ENDBRANCH   8  10
ENDBRANCH   1   8
BRANCH   1  17
ATOM     17  C   UNL     1      -1.901  -5.859  -0.570  0.00  0.00    -0.056 C 
ATOM     18  C   UNL     1      -1.840  -5.453   0.904  0.00  0.00    -0.012 C 
BRANCH  17  19
ATOM     19  N   UNL     1      -2.574  -7.158  -0.693  0.00  0.00    +0.381 N 
ATOM     20  H   UNL     1      -2.615  -7.426  -1.665  0.00  0.00    -0.090 HD
ATOM     21  H   UNL     1      -2.060  -7.854  -0.173  0.00  0.00    -0.090 HD
ATOM     22  H   UNL     1      -3.511  -7.088  -0.324  0.00  0.00    -0.090 HD
ENDBRANCH  17  19
ENDBRANCH   1  17
TORSDOF 6
