REMARK  Name = ZINC67254670
REMARK  4 active torsions:
REMARK  status: ('A' for Active; 'I' for Inactive)
REMARK    1  A    between atoms: C_6  and  C_7
REMARK    2  A    between atoms: C_7  and  C_10
REMARK    3  A    between atoms: C_10  and  N_11
REMARK    4  A    between atoms: C_18  and  C_20
REMARK                            x       y       z     vdW  Elec       q    Type
REMARK                         _______ _______ _______ _____ _____    ______ ____
ROOT
ATOM      1  N   UNL     1      -2.462   1.229   0.785  0.00  0.00    -0.298 N 
ATOM      2  C   UNL     1      -3.322   1.934   1.547  0.00  0.00    +0.305 C 
ATOM      3  O   UNL     1      -4.073   1.357   2.309  0.00  0.00    -0.252 OA
ATOM      4  N   UNL     1      -3.349   3.279   1.463  0.00  0.00    -0.247 N 
ATOM      5  C   UNL     1      -4.237   4.006   2.248  0.00  0.00    +0.189 A 
ATOM      6  N   UNL     1      -5.117   3.572   3.129  0.00  0.00    -0.125 NA
ATOM      7  N   UNL     1      -5.862   4.363   3.774  0.00  0.00    -0.136 NA
ATOM      8  C   UNL     1      -5.759   5.659   3.561  0.00  0.00    +0.206 A 
ATOM      9  S   UNL     1      -4.464   5.675   2.328  0.00  0.00    -0.027 S 
ATOM     10  H   UNL     1      -1.862   1.689   0.177  0.00  0.00    +0.150 HD
ATOM     11  H   UNL     1      -2.750   3.739   0.855  0.00  0.00    +0.158 HD
ENDROOT
BRANCH   8  12
ATOM     12  C   UNL     1      -6.515   6.804   4.183  0.00  0.00    +0.443 C 
ATOM     13  F   UNL     1      -7.355   6.316   5.190  0.00  0.00    -0.164 F 
ATOM     14  F   UNL     1      -5.609   7.717   4.734  0.00  0.00    -0.164 F 
ATOM     15  F   UNL     1      -7.283   7.443   3.204  0.00  0.00    -0.164 F 
ENDBRANCH   8  12
BRANCH   1  16
ATOM     16  C   UNL     1      -2.432  -0.233   0.877  0.00  0.00    +0.117 C 
BRANCH  16  17
ATOM     17  C   UNL     1      -1.292  -0.775   0.011  0.00  0.00    +0.011 C 
ATOM     18  C   UNL     1      -1.543  -0.897  -1.493  0.00  0.00    +0.014 C 
ATOM     19  C   UNL     1      -1.481  -2.154  -0.623  0.00  0.00    +0.014 C 
BRANCH  17  25
ATOM     20  C   UNL     1       0.709  -1.099   1.479  0.00  0.00    +0.005 A 
ATOM     21  C   UNL     1       1.984  -0.754   1.888  0.00  0.00    +0.020 A 
ATOM     22  C   UNL     1       2.647   0.292   1.273  0.00  0.00    +0.041 A 
ATOM     23  C   UNL     1       2.035   0.993   0.250  0.00  0.00    +0.020 A 
ATOM     24  C   UNL     1       0.760   0.648  -0.158  0.00  0.00    +0.005 A 
ATOM     25  C   UNL     1       0.097  -0.398   0.457  0.00  0.00    -0.040 A 
ATOM     26 CL   UNL     1       4.248   0.726   1.786  0.00  0.00    -0.084 Cl
ENDBRANCH  17  25
ENDBRANCH  16  17
ENDBRANCH   1  16
TORSDOF 4
