REMARK  Name = ZINC40437812
REMARK  6 active torsions:
REMARK  status: ('A' for Active; 'I' for Inactive)
REMARK    1  A    between atoms: C_1  and  C_2
REMARK    2  A    between atoms: C_6  and  C_22
REMARK    3  A    between atoms: C_8  and  N_11
REMARK    4  A    between atoms: C_12  and  C_14
REMARK    5  A    between atoms: C_22  and  C_23
REMARK    6  A    between atoms: C_22  and  C_24
REMARK                            x       y       z     vdW  Elec       q    Type
REMARK                         _______ _______ _______ _____ _____    ______ ____
ROOT
ATOM      1  N   UNL     1       1.537  -2.391   2.465  0.00  0.00    -0.308 N 
ATOM      2  C   UNL     1       2.884  -2.336   2.462  0.00  0.00    +0.246 C 
ATOM      3  O   UNL     1       3.475  -1.969   1.465  0.00  0.00    -0.270 OA
ATOM      4  H   UNL     1       1.065  -2.684   3.261  0.00  0.00    +0.149 HD
ENDROOT
BRANCH   2   5
ATOM      5  C   UNL     1       3.640  -2.721   3.668  0.00  0.00    +0.053 A 
ATOM      6  C   UNL     1       2.957  -3.155   4.830  0.00  0.00    +0.020 A 
ATOM      7  C   UNL     1       3.680  -3.503   5.928  0.00  0.00    +0.071 A 
ATOM      8  C   UNL     1       5.085  -3.426   5.886  0.00  0.00    +0.249 A 
ATOM      9  O   UNL     1       5.738  -3.738   6.868  0.00  0.00    -0.268 OA
ATOM     10  N   UNL     1       5.713  -3.012   4.771  0.00  0.00    -0.328 N 
ATOM     11  H   UNL     1       6.682  -2.965   4.758  0.00  0.00    +0.168 HD
ATOM     12  C   UNL     1       5.019  -2.667   3.671  0.00  0.00    +0.099 A 
ENDBRANCH   2   5
BRANCH   1  18
ATOM     13  C   UNL     1      -0.301   1.434  -0.071  0.00  0.00    +0.007 C 
ATOM     14  C   UNL     1      -0.150  -0.088  -0.028  0.00  0.00    -0.012 C 
ATOM     15  C   UNL     1      -1.535  -0.737   0.011  0.00  0.00    +0.004 C 
ATOM     16  C   UNL     1      -1.385  -2.259   0.054  0.00  0.00    +0.006 C 
ATOM     17  C   UNL     1      -0.600  -2.658   1.305  0.00  0.00    +0.012 C 
ATOM     18  C   UNL     1       0.785  -2.009   1.267  0.00  0.00    +0.077 C 
ATOM     19  C   UNL     1       0.634  -0.487   1.224  0.00  0.00    +0.026 C 
BRANCH  17  20
ATOM     20  C   UNL     1      -0.449  -4.180   1.349  0.00  0.00    -0.012 C 
ATOM     21  C   UNL     1      -1.824  -4.824   1.536  0.00  0.00    +0.007 C 
ATOM     22  C   UNL     1       0.169  -4.669   0.037  0.00  0.00    +0.007 C 
ENDBRANCH  17  20
ENDBRANCH   1  18
TORSDOF 3
