REMARK  Name = ZINC38772575
REMARK  8 active torsions:
REMARK  status: ('A' for Active; 'I' for Inactive)
REMARK    1  A    between atoms: C_1  and  C_2
REMARK    2  A    between atoms: C_2  and  C_3
REMARK    3  A    between atoms: N_15  and  C_18
REMARK    4  A    between atoms: C_18  and  C_19
REMARK    5  A    between atoms: C_19  and  N_20
REMARK    6  A    between atoms: C_21  and  C_23
REMARK    7  A    between atoms: C_24  and  C_25
REMARK    8  A    between atoms: C_28  and  N_31
REMARK                            x       y       z     vdW  Elec       q    Type
REMARK                         _______ _______ _______ _____ _____    ______ ____
ROOT
ATOM      1  C   UNL     1       1.797  -3.520  -0.713  0.00  0.00    -0.046 A 
ATOM      2  C   UNL     1       1.105  -3.922  -1.847  0.00  0.00    +0.006 A 
ATOM      3  C   UNL     1       1.746  -4.125  -3.042  0.00  0.00    +0.029 A 
ATOM      4  C   UNL     1       3.141  -3.929  -3.156  0.00  0.00    +0.080 A 
ATOM      5  C   UNL     1       3.812  -3.520  -1.982  0.00  0.00    +0.041 A 
ATOM      6  C   UNL     1       3.162  -3.314  -0.791  0.00  0.00    +0.021 A 
ATOM      7  S   UNL     1       5.496  -3.389  -2.534  0.00  0.00    -0.052 S 
ATOM      8  C   UNL     1       5.214  -3.870  -4.232  0.00  0.00    +0.162 A 
ATOM      9  N   UNL     1       3.918  -4.084  -4.251  0.00  0.00    -0.225 NA
ATOM     10  N   UNL     1       6.126  -3.986  -5.261  0.00  0.00    -0.313 N 
ATOM     11  C   UNL     1       7.553  -3.705  -5.043  0.00  0.00    +0.088 C 
ATOM     12  C   UNL     1       8.030  -2.736  -6.130  0.00  0.00    -0.059 C 
ATOM     13  N   UNL     1       7.717  -3.294  -7.452  0.00  0.00    +0.383 N 
ATOM     14  C   UNL     1       6.262  -3.393  -7.622  0.00  0.00    -0.059 C 
ATOM     15  C   UNL     1       5.699  -4.400  -6.607  0.00  0.00    +0.088 C 
ATOM     16  H   UNL     1       8.127  -4.212  -7.534  0.00  0.00    -0.082 HD
ENDROOT
BRANCH   1  18
ATOM     17  C   UNL     1       0.591  -1.853   0.671  0.00  0.00    +0.009 C 
ATOM     18  C   UNL     1       1.067  -3.305   0.587  0.00  0.00    +0.032 C 
ENDBRANCH   1  18
BRANCH  13  19
ATOM     19  C   UNL     1       8.271  -2.419  -8.494  0.00  0.00    -0.060 C 
BRANCH  19  20
ATOM     20  C   UNL     1       8.056  -3.060  -9.866  0.00  0.00    +0.086 C 
BRANCH  20  21
ATOM     21  N   UNL     1       8.608  -2.187 -10.905  0.00  0.00    -0.314 N 
ATOM     22  C   UNL     1       8.532  -2.550 -12.201  0.00  0.00    +0.237 C 
ATOM     23  O   UNL     1       8.005  -3.603 -12.508  0.00  0.00    -0.271 OA
ATOM     24  H   UNL     1       9.028  -1.348 -10.661  0.00  0.00    +0.149 HD
BRANCH  22  25
ATOM     25  C   UNL     1       9.084  -1.678 -13.239  0.00  0.00    +0.068 C 
ATOM     26  C   UNL     1       8.891  -1.973 -14.540  0.00  0.00    +0.013 C 
BRANCH  26  27
ATOM     27  C   UNL     1       7.923  -3.014 -14.923  0.00  0.00    -0.025 A 
ATOM     28  C   UNL     1       6.649  -3.036 -14.346  0.00  0.00    +0.010 A 
ATOM     29  C   UNL     1       5.748  -4.014 -14.710  0.00  0.00    +0.033 A 
ATOM     30  C   UNL     1       6.101  -4.973 -15.643  0.00  0.00    +0.126 A 
ATOM     31  C   UNL     1       7.360  -4.959 -16.218  0.00  0.00    +0.033 A 
ATOM     32  C   UNL     1       8.270  -3.983 -15.869  0.00  0.00    +0.010 A 
BRANCH  30  33
ATOM     33  N   UNL     1       5.128  -6.020 -16.028  0.00  0.00    +0.056 N 
ATOM     34  O   UNL     1       4.028  -6.036 -15.527  0.00  0.00    -0.126 OA
ATOM     35  O   UNL     1       5.434  -6.859 -16.843  0.00  0.00    -0.126 OA
ENDBRANCH  30  33
ENDBRANCH  26  27
ENDBRANCH  22  25
ENDBRANCH  20  21
ENDBRANCH  19  20
ENDBRANCH  13  19
TORSDOF 7
