REMARK  Name = ZINC55067555
REMARK  6 active torsions:
REMARK  status: ('A' for Active; 'I' for Inactive)
REMARK    1  A    between atoms: C_1  and  C_2
REMARK    2  A    between atoms: C_2  and  C_3
REMARK    3  A    between atoms: C_3  and  C_5
REMARK    4  A    between atoms: C_3  and  N_6
REMARK    5  A    between atoms: N_9  and  C_12
REMARK    6  A    between atoms: C_17  and  C_18
REMARK                            x       y       z     vdW  Elec       q    Type
REMARK                         _______ _______ _______ _____ _____    ______ ____
ROOT
ATOM      1  N   UNL     1       1.978   0.018  -1.231  0.00  0.00    +0.383 N 
ATOM      2  C   UNL     1       1.963   1.466  -0.987  0.00  0.00    -0.059 C 
ATOM      3  C   UNL     1       3.403   1.982  -0.894  0.00  0.00    +0.086 C 
ATOM      4  N   UNL     1       4.122   1.579  -2.112  0.00  0.00    -0.333 N 
ATOM      5  C   UNL     1       4.054   0.168  -2.522  0.00  0.00    +0.086 C 
ATOM      6  C   UNL     1       2.583  -0.263  -2.539  0.00  0.00    -0.059 C 
ATOM      7  H   UNL     1       2.515  -0.437  -0.508  0.00  0.00    -0.081 HD
ENDROOT
BRANCH   4   8
ATOM      8  C   UNL     1       4.845   2.503  -2.853  0.00  0.00    +0.045 A 
ATOM      9  C   UNL     1       6.187   2.726  -2.574  0.00  0.00    +0.039 A 
ATOM     10  C   UNL     1       6.904   3.646  -3.312  0.00  0.00    +0.020 A 
ATOM     11  C   UNL     1       6.292   4.354  -4.337  0.00  0.00    +0.016 A 
ATOM     12  C   UNL     1       4.964   4.147  -4.630  0.00  0.00    +0.018 A 
ATOM     13  C   UNL     1       4.224   3.214  -3.894  0.00  0.00    +0.084 A 
ATOM     14 BR   UNL     1       8.730   3.944  -2.925  0.00  0.00    -0.050 Br
BRANCH  13  15
ATOM     15  C   UNL     1       2.806   2.984  -4.204  0.00  0.00    +0.388 C 
ATOM     16  O   UNL     1       2.269   3.606  -5.112  0.00  0.00    -0.241 OA
ATOM     17  O   UNL     1       2.162   2.171  -3.555  0.00  0.00    -0.241 OA
ENDBRANCH  13  15
ENDBRANCH   4   8
BRANCH   1  18
ATOM     18  C   UNL     1       0.601  -0.494  -1.211  0.00  0.00    -0.072 C 
ATOM     19  C   UNL     1      -0.174   0.080  -2.398  0.00  0.00    -0.013 C 
BRANCH  18  21
ATOM     20  C   UNL     1       1.283  -2.601  -0.054  0.00  0.00    +0.002 C 
ATOM     21  C   UNL     1       0.624  -2.021  -1.306  0.00  0.00    -0.019 C 
ENDBRANCH  18  21
ENDBRANCH   1  18
TORSDOF 4
