REMARK  Name = ZINC31712002
REMARK  5 active torsions:
REMARK  status: ('A' for Active; 'I' for Inactive)
REMARK    1  A    between atoms: C_1  and  C_2
REMARK    2  A    between atoms: C_2  and  C_3
REMARK    3  A    between atoms: C_2  and  C_4
REMARK    4  A    between atoms: C_10  and  C_12
REMARK    5  A    between atoms: C_14  and  N_19
REMARK                            x       y       z     vdW  Elec       q    Type
REMARK                         _______ _______ _______ _____ _____    ______ ____
ROOT
ATOM      1  C   UNL     1      -5.903  -1.192   0.055  0.00  0.00    +0.053 A 
ATOM      2  C   UNL     1      -5.663  -2.526   0.046  0.00  0.00    +0.072 A 
ATOM      3  S   UNL     1      -3.876  -2.542   0.028  0.00  0.00    -0.060 S 
ATOM      4  C   UNL     1      -3.635  -0.823   0.034  0.00  0.00    +0.165 A 
ATOM      5  N   UNL     1      -4.873  -0.368   0.054  0.00  0.00    -0.229 NA
ATOM      6  N   UNL     1      -2.443  -0.109   0.026  0.00  0.00    -0.261 N 
ATOM      7  C   UNL     1      -1.265  -0.764   0.011  0.00  0.00    +0.251 C 
ATOM      8  O   UNL     1      -1.246  -1.979   0.004  0.00  0.00    -0.270 OA
ATOM      9  H   UNL     1      -2.461   0.991   0.032  0.00  0.00    +0.157 HD
ENDROOT
BRANCH   7  10
ATOM     10  C   UNL     1       0.002  -0.004   0.002  0.00  0.00    +0.052 A 
ATOM     11  C   UNL     1      -0.017   1.392   0.010  0.00  0.00    +0.046 A 
ATOM     12  C   UNL     1       1.170   2.095   0.002  0.00  0.00    +0.127 A 
ATOM     13  C   UNL     1       2.378   1.420  -0.013  0.00  0.00    +0.034 A 
ATOM     14  C   UNL     1       2.405   0.037  -0.021  0.00  0.00    +0.017 A 
ATOM     15  C   UNL     1       1.224  -0.679  -0.013  0.00  0.00    +0.026 A 
ATOM     16  I   UNL     1       1.267  -2.774  -0.024  0.00  0.00    -0.043 I 
BRANCH  12  17
ATOM     17  N   UNL     1       1.151   3.575   0.010  0.00  0.00    +0.056 N 
ATOM     18  O   UNL     1       0.089   4.171   0.023  0.00  0.00    -0.126 OA
ATOM     19  O   UNL     1       2.198   4.197   0.003  0.00  0.00    -0.126 OA
ENDBRANCH  12  17
ENDBRANCH   7  10
BRANCH   1  21
ATOM     20  C   UNL     1      -7.849  -0.594  -1.360  0.00  0.00    +0.014 C 
ATOM     21  C   UNL     1      -7.313  -0.662   0.071  0.00  0.00    +0.032 C 
ATOM     22  C   UNL     1      -8.198  -1.594   0.902  0.00  0.00    +0.014 C 
ENDBRANCH   1  21
TORSDOF 3
