REMARK  Name = ZINC35392010
REMARK  4 active torsions:
REMARK  status: ('A' for Active; 'I' for Inactive)
REMARK    1  A    between atoms: C_1  and  O_2
REMARK    2  A    between atoms: O_2  and  C_3
REMARK    3  A    between atoms: C_5  and  N_27
REMARK    4  A    between atoms: C_10  and  C_19
REMARK                            x       y       z     vdW  Elec       q    Type
REMARK                         _______ _______ _______ _____ _____    ______ ____
ROOT
ATOM      1  C   UNL     1      -1.732  -0.851  -0.090  0.00  0.00    +0.143 A 
ATOM      2  C   UNL     1      -2.998  -0.295  -0.152  0.00  0.00    +0.080 A 
ATOM      3  C   UNL     1      -4.112  -1.113  -0.203  0.00  0.00    +0.130 A 
ATOM      4  C   UNL     1      -3.963  -2.487  -0.183  0.00  0.00    +0.039 A 
ATOM      5  C   UNL     1      -2.706  -3.052  -0.117  0.00  0.00    -0.014 A 
ATOM      6  C   UNL     1      -1.572  -2.235  -0.085  0.00  0.00    +0.074 A 
ATOM      7  N   UNL     1      -0.278  -2.778  -0.066  0.00  0.00    -0.334 N 
ATOM      8  C   UNL     1      -0.062  -4.241  -0.047  0.00  0.00    +0.105 C 
ATOM      9  C   UNL     1      -1.190  -4.833  -0.873  0.00  0.00    +0.029 C 
ATOM     10  C   UNL     1      -2.495  -4.515  -0.070  0.00  0.00    +0.049 C 
ATOM     11  C   UNL     1      -3.479  -5.470  -0.641  0.00  0.00    -0.023 C 
ATOM     12  C   UNL     1      -2.827  -6.541  -1.076  0.00  0.00    -0.030 C 
ATOM     13  C   UNL     1      -1.308  -6.363  -0.899  0.00  0.00    +0.033 C 
ATOM     14  H   UNL     1       0.488  -2.183  -0.065  0.00  0.00    +0.147 HD
ENDROOT
BRANCH   8  15
ATOM     15  C   UNL     1      -0.121  -4.758   1.367  0.00  0.00    -0.026 A 
ATOM     16  C   UNL     1       0.553  -5.915   1.709  0.00  0.00    +0.007 A 
ATOM     17  C   UNL     1       0.498  -6.391   3.006  0.00  0.00    +0.022 A 
ATOM     18  C   UNL     1      -0.230  -5.708   3.963  0.00  0.00    +0.059 A 
ATOM     19  C   UNL     1      -0.905  -4.548   3.621  0.00  0.00    +0.060 A 
ATOM     20  C   UNL     1      -0.845  -4.071   2.324  0.00  0.00    +0.027 A 
ATOM     21 CL   UNL     1      -1.820  -3.690   4.821  0.00  0.00    -0.082 Cl
ATOM     22 CL   UNL     1      -0.299  -6.304   5.591  0.00  0.00    -0.082 Cl
ENDBRANCH   8  15
BRANCH   3  23
ATOM     23  N   UNL     1      -5.464  -0.516  -0.279  0.00  0.00    +0.057 N 
ATOM     24  O   UNL     1      -5.595   0.685  -0.296  0.00  0.00    -0.126 OA
ATOM     25  O   UNL     1      -6.438  -1.231  -0.323  0.00  0.00    -0.126 OA
ENDBRANCH   3  23
BRANCH   1  27
ATOM     26  C   UNL     1      -0.873   1.367  -0.048  0.00  0.00    +0.277 C 
ATOM     27  O   UNL     1      -0.639  -0.043  -0.039  0.00  0.00    -0.493 OA
ENDBRANCH   1  27
TORSDOF 3
