REMARK  Name = ZINC03050849
REMARK  7 active torsions:
REMARK  status: ('A' for Active; 'I' for Inactive)
REMARK    1  A    between atoms: C_1  and  C_2
REMARK    2  A    between atoms: C_5  and  N_8
REMARK    3  A    between atoms: N_8  and  C_9
REMARK    4  A    between atoms: C_9  and  C_10
REMARK    5  A    between atoms: N_12  and  N_13
REMARK    6  A    between atoms: C_14  and  C_15
REMARK    7  A    between atoms: C_18  and  C_20
REMARK                            x       y       z     vdW  Elec       q    Type
REMARK                         _______ _______ _______ _____ _____    ______ ____
ROOT
ATOM      1  N   UNL     1       4.748   0.323  -0.042  0.00  0.00    -0.185 NA
ATOM      2  C   UNL     1       5.969   0.773  -0.051  0.00  0.00    +0.176 C 
ENDROOT
BRANCH   2   3
ATOM      3  C   UNL     1       7.095  -0.163  -0.067  0.00  0.00    +0.148 A 
ATOM      4  C   UNL     1       8.429   0.177  -0.083  0.00  0.00    +0.051 A 
ATOM      5  C   UNL     1       9.152  -1.023  -0.090  0.00  0.00    +0.050 A 
ATOM      6  C   UNL     1       8.243  -2.039  -0.088  0.00  0.00    +0.137 A 
ATOM      7  O   UNL     1       7.005  -1.509  -0.073  0.00  0.00    -0.454 OA
BRANCH   6   8
ATOM      8  C   UNL     1       8.562  -3.480  -0.099  0.00  0.00    +0.037 A 
ATOM      9  C   UNL     1       7.964  -4.338   0.827  0.00  0.00    +0.033 A 
ATOM     10  C   UNL     1       8.267  -5.685   0.810  0.00  0.00    +0.042 A 
ATOM     11  C   UNL     1       9.162  -6.185  -0.121  0.00  0.00    +0.021 A 
ATOM     12  C   UNL     1       9.757  -5.341  -1.041  0.00  0.00    +0.022 A 
ATOM     13  C   UNL     1       9.460  -3.993  -1.040  0.00  0.00    +0.052 A 
ATOM     14 CL   UNL     1      10.203  -2.936  -2.199  0.00  0.00    -0.083 Cl
ATOM     15 CL   UNL     1       7.525  -6.753   1.959  0.00  0.00    -0.084 Cl
ENDBRANCH   6   8
ENDBRANCH   2   3
BRANCH   1  18
ATOM     16  C   UNL     1       2.406   0.752  -0.017  0.00  0.00    +0.249 C 
ATOM     17  O   UNL     1       2.201  -0.444  -0.021  0.00  0.00    -0.272 OA
ATOM     18  N   UNL     1       3.671   1.218  -0.026  0.00  0.00    -0.206 N 
ATOM     19  H   UNL     1       3.835   2.174  -0.023  0.00  0.00    +0.177 HD
BRANCH  16  20
ATOM     20  C   UNL     1       1.248   1.716  -0.001  0.00  0.00    +0.199 C 
BRANCH  20  21
ATOM     21  N   UNL     1      -0.011   0.966   0.007  0.00  0.00    -0.335 N 
ATOM     22  H   UNL     1       0.002  -0.004   0.002  0.00  0.00    +0.147 HD
BRANCH  21  27
ATOM     23  C   UNL     1      -4.960   3.734   0.047  0.00  0.00    +0.044 C 
ATOM     24  C   UNL     1      -3.645   2.998   0.037  0.00  0.00    -0.050 A 
ATOM     25  C   UNL     1      -3.628   1.616   0.029  0.00  0.00    +0.005 A 
ATOM     26  C   UNL     1      -2.424   0.938   0.019  0.00  0.00    +0.023 A 
ATOM     27  C   UNL     1      -1.230   1.648   0.017  0.00  0.00    +0.028 A 
ATOM     28  C   UNL     1      -1.251   3.037   0.030  0.00  0.00    +0.023 A 
ATOM     29  C   UNL     1      -2.458   3.708   0.035  0.00  0.00    +0.005 A 
ENDBRANCH  21  27
ENDBRANCH  20  21
ENDBRANCH  16  20
ENDBRANCH   1  18
TORSDOF 6
