REMARK  Name = ZINC34714436
REMARK  8 active torsions:
REMARK  status: ('A' for Active; 'I' for Inactive)
REMARK    1  A    between atoms: C_1  and  C_2
REMARK    2  A    between atoms: C_2  and  C_3
REMARK    3  A    between atoms: C_3  and  N_4
REMARK    4  A    between atoms: C_5  and  C_7
REMARK    5  A    between atoms: C_10  and  C_12
REMARK    6  A    between atoms: C_17  and  O_18
REMARK    7  A    between atoms: O_18  and  C_19
REMARK    8  A    between atoms: C_19  and  C_20
REMARK                            x       y       z     vdW  Elec       q    Type
REMARK                         _______ _______ _______ _____ _____    ______ ____
ROOT
ATOM      1  C   UNL     1      -0.301  -7.095  -0.025  0.00  0.00    +0.049 A 
ATOM      2  C   UNL     1       1.014  -6.630  -0.023  0.00  0.00    +0.014 A 
ATOM      3  C   UNL     1       2.061  -7.528  -0.034  0.00  0.00    +0.001 A 
ATOM      4  C   UNL     1       1.813  -8.890  -0.046  0.00  0.00    +0.004 A 
ATOM      5  C   UNL     1       0.514  -9.362  -0.049  0.00  0.00    +0.046 A 
ATOM      6  C   UNL     1      -0.548  -8.473  -0.032  0.00  0.00    +0.131 A 
ENDROOT
BRANCH   1  10
ATOM      7  C   UNL     1      -2.551  -4.161   0.004  0.00  0.00    +0.133 A 
ATOM      8  C   UNL     1      -3.722  -4.871   0.006  0.00  0.00    +0.080 A 
ATOM      9  S   UNL     1      -3.182  -6.465  -0.006  0.00  0.00    -0.075 S 
ATOM     10  C   UNL     1      -1.427  -6.138  -0.013  0.00  0.00    +0.113 A 
ATOM     11  N   UNL     1      -1.399  -4.818  -0.011  0.00  0.00    -0.234 NA
BRANCH   7  13
ATOM     12  N   UNL     1      -1.413  -1.998   0.005  0.00  0.00    -0.310 N 
ATOM     13  C   UNL     1      -2.571  -2.688   0.012  0.00  0.00    +0.263 C 
ATOM     14  O   UNL     1      -3.633  -2.094   0.025  0.00  0.00    -0.269 OA
ATOM     15  H   UNL     1      -0.567  -2.472  -0.006  0.00  0.00    +0.149 HD
BRANCH  12  16
ATOM     16  C   UNL     1      -1.433  -0.534   0.013  0.00  0.00    +0.104 C 
BRANCH  16  18
ATOM     17  C   UNL     1      -0.019   1.526   0.010  0.00  0.00    +0.005 C 
ATOM     18  C   UNL     1       0.002  -0.004   0.002  0.00  0.00    +0.015 C 
ENDBRANCH  16  18
ENDBRANCH  12  16
ENDBRANCH   7  13
ENDBRANCH   1  10
BRANCH   6  19
ATOM     19  O   UNL     1      -1.825  -8.937  -0.028  0.00  0.00    -0.487 OA
BRANCH  19  20
ATOM     20  C   UNL     1      -2.000 -10.355  -0.036  0.00  0.00    +0.264 C 
BRANCH  20  21
ATOM     21  C   UNL     1      -3.472 -10.679  -0.030  0.00  0.00    -0.009 A 
ATOM     22  C   UNL     1      -4.141 -10.830   1.171  0.00  0.00    +0.008 A 
ATOM     23  C   UNL     1      -5.491 -11.127   1.177  0.00  0.00    +0.022 A 
ATOM     24  C   UNL     1      -6.173 -11.275  -0.017  0.00  0.00    +0.059 A 
ATOM     25  C   UNL     1      -5.503 -11.124  -1.219  0.00  0.00    +0.060 A 
ATOM     26  C   UNL     1      -4.153 -10.820  -1.224  0.00  0.00    +0.028 A 
ATOM     27 CL   UNL     1      -6.357 -11.309  -2.719  0.00  0.00    -0.082 Cl
ATOM     28 CL   UNL     1      -7.868 -11.649  -0.009  0.00  0.00    -0.082 Cl
ENDBRANCH  20  21
ENDBRANCH  19  20
ENDBRANCH   6  19
TORSDOF 7
