REMARK  Name = ZINC35666281
REMARK  11 active torsions:
REMARK  status: ('A' for Active; 'I' for Inactive)
REMARK    1  A    between atoms: C_1  and  C_2
REMARK    2  A    between atoms: C_2  and  N_3
REMARK    3  A    between atoms: C_11  and  C_29
REMARK    4  A    between atoms: C_13  and  S_15
REMARK    5  A    between atoms: S_15  and  C_16
REMARK    6  A    between atoms: C_16  and  C_17
REMARK    7  A    between atoms: C_20  and  C_22
REMARK    8  A    between atoms: N_24  and  C_25
REMARK    9  A    between atoms: C_25  and  C_26
REMARK   10  A    between atoms: C_26  and  C_27
REMARK   11  A    between atoms: C_26  and  C_28
REMARK                            x       y       z     vdW  Elec       q    Type
REMARK                         _______ _______ _______ _____ _____    ______ ____
ROOT
ATOM      1  N   UNL     1      -1.339  -0.643   0.119  0.00  0.00    +0.382 N 
ATOM      2  C   UNL     1      -1.832  -0.317  -1.225  0.00  0.00    -0.060 C 
ATOM      3  C   UNL     1      -3.337  -0.596  -1.297  0.00  0.00    +0.088 C 
ATOM      4  N   UNL     1      -3.574  -1.988  -0.884  0.00  0.00    -0.319 N 
ATOM      5  C   UNL     1      -2.974  -2.449   0.378  0.00  0.00    +0.088 C 
ATOM      6  C   UNL     1      -1.486  -2.082   0.370  0.00  0.00    -0.060 C 
ATOM      7  C   UNL     1      -4.340  -2.841  -1.662  0.00  0.00    +0.126 A 
ATOM      8  C   UNL     1      -5.076  -2.347  -2.741  0.00  0.00    +0.076 A 
ATOM      9  C   UNL     1      -5.825  -3.234  -3.489  0.00  0.00    +0.150 A 
ATOM     10  N   UNL     1      -5.824  -4.519  -3.164  0.00  0.00    -0.218 NA
ATOM     11  C   UNL     1      -5.116  -4.960  -2.134  0.00  0.00    +0.191 A 
ATOM     12  N   UNL     1      -4.381  -4.143  -1.395  0.00  0.00    -0.207 NA
ATOM     13  H   UNL     1      -1.870  -0.127   0.804  0.00  0.00    -0.082 HD
ENDROOT
BRANCH   9  14
ATOM     14  C   UNL     1      -6.636  -2.746  -4.662  0.00  0.00    +0.434 C 
ATOM     15  F   UNL     1      -5.854  -2.796  -5.821  0.00  0.00    -0.164 F 
ATOM     16  F   UNL     1      -7.761  -3.562  -4.823  0.00  0.00    -0.164 F 
ATOM     17  F   UNL     1      -7.044  -1.428  -4.431  0.00  0.00    -0.164 F 
ENDBRANCH   9  14
BRANCH   1  19
ATOM     18  C   UNL     1       0.221   1.244   0.083  0.00  0.00    -0.017 C 
ATOM     19  C   UNL     1       0.079  -0.273   0.221  0.00  0.00    -0.082 C 
ENDBRANCH   1  19
BRANCH  11  20
ATOM     20  S   UNL     1      -5.149  -6.678  -1.742  0.00  0.00    -0.078 S 
BRANCH  20  21
ATOM     21  C   UNL     1      -6.253  -7.392  -2.992  0.00  0.00    +0.151 C 
BRANCH  21  22
ATOM     22  C   UNL     1      -6.370  -8.878  -2.768  0.00  0.00    +0.116 A 
ATOM     23  C   UNL     1      -7.294  -9.486  -1.993  0.00  0.00    +0.046 A 
ATOM     24  C   UNL     1      -7.049 -10.867  -2.063  0.00  0.00    +0.055 A 
ATOM     25  C   UNL     1      -5.973 -11.032  -2.888  0.00  0.00    +0.189 A 
ATOM     26  O   UNL     1      -5.579  -9.813  -3.310  0.00  0.00    -0.454 OA
BRANCH  25  27
ATOM     27  C   UNL     1      -5.358 -12.312  -3.255  0.00  0.00    +0.279 C 
ATOM     28  O   UNL     1      -5.807 -13.352  -2.812  0.00  0.00    -0.267 OA
ATOM     29  N   UNL     1      -4.295 -12.335  -4.084  0.00  0.00    -0.309 N 
ATOM     30  H   UNL     1      -3.937 -11.506  -4.437  0.00  0.00    +0.149 HD
BRANCH  29  31
ATOM     31  C   UNL     1      -3.680 -13.614  -4.450  0.00  0.00    +0.107 C 
BRANCH  31  32
ATOM     32  C   UNL     1      -2.502 -13.361  -5.393  0.00  0.00    -0.000 C 
ATOM     33  C   UNL     1      -1.784 -14.682  -5.677  0.00  0.00    +0.009 C 
ATOM     34  C   UNL     1      -3.018 -12.769  -6.706  0.00  0.00    +0.009 C 
ENDBRANCH  31  32
ENDBRANCH  29  31
ENDBRANCH  25  27
ENDBRANCH  21  22
ENDBRANCH  20  21
ENDBRANCH  11  20
TORSDOF 8
