REMARK  Name = ZINC63295828
REMARK  8 active torsions:
REMARK  status: ('A' for Active; 'I' for Inactive)
REMARK    1  A    between atoms: C_1  and  C_2
REMARK    2  A    between atoms: C_2  and  O_3
REMARK    3  A    between atoms: O_3  and  C_4
REMARK    4  A    between atoms: C_7  and  N_10
REMARK    5  A    between atoms: C_11  and  C_13
REMARK    6  A    between atoms: C_13  and  C_14
REMARK    7  A    between atoms: C_14  and  C_15
REMARK    8  A    between atoms: C_15  and  N_16
REMARK                            x       y       z     vdW  Elec       q    Type
REMARK                         _______ _______ _______ _____ _____    ______ ____
ROOT
ATOM      1  N   UNL     1       3.939 -10.082   5.390  0.00  0.00    -0.299 N 
ATOM      2  C   UNL     1       4.262 -11.358   5.681  0.00  0.00    +0.302 C 
ATOM      3  O   UNL     1       3.959 -12.251   4.913  0.00  0.00    -0.253 OA
ATOM      4  N   UNL     1       4.919 -11.644   6.822  0.00  0.00    -0.283 N 
ATOM      5  C   UNL     1       5.374 -10.553   7.690  0.00  0.00    +0.114 C 
ATOM      6  C   UNL     1       4.765 -10.727   9.094  0.00  0.00    +0.052 C 
ATOM      7  C   UNL     1       4.936 -12.180   9.462  0.00  0.00    -0.035 C 
ATOM      8  C   UNL     1       5.457 -12.758  10.537  0.00  0.00    +0.001 A 
ATOM      9  C   UNL     1       5.957 -12.200  11.804  0.00  0.00    +0.030 A 
ATOM     10  C   UNL     1       6.452 -13.096  12.700  0.00  0.00    +0.042 A 
ATOM     11  C   UNL     1       6.499 -14.475  12.463  0.00  0.00    +0.022 A 
ATOM     12  C   UNL     1       6.054 -15.074  11.331  0.00  0.00    +0.027 A 
ATOM     13  C   UNL     1       5.503 -14.236  10.318  0.00  0.00    +0.043 A 
ATOM     14  N   UNL     1       4.990 -14.540   9.162  0.00  0.00    -0.376 N 
ATOM     15  C   UNL     1       4.502 -13.311   8.536  0.00  0.00    +0.124 C 
ATOM     16  C   UNL     1       5.167 -13.048   7.187  0.00  0.00    +0.138 C 
ATOM     17 CL   UNL     1       7.056 -12.499  14.214  0.00  0.00    -0.084 Cl
ATOM     18  H   UNL     1       4.244  -9.362   5.965  0.00  0.00    +0.150 HD
ATOM     19  H   UNL     1       4.940 -15.431   8.780  0.00  0.00    +0.160 HD
ENDROOT
BRANCH   1  20
ATOM     20  C   UNL     1       3.129  -9.782   4.207  0.00  0.00    +0.106 C 
BRANCH  20  21
ATOM     21  C   UNL     1       2.909  -8.271   4.109  0.00  0.00    +0.028 C 
BRANCH  21  22
ATOM     22  C   UNL     1       2.063  -7.958   2.873  0.00  0.00    +0.097 C 
BRANCH  22  24
ATOM     23  N   UNL     1       1.124  -5.959   1.760  0.00  0.00    -0.285 N 
ATOM     24  C   UNL     1       1.847  -6.470   2.776  0.00  0.00    +0.217 C 
ATOM     25  O   UNL     1       2.322  -5.732   3.614  0.00  0.00    -0.275 OA
ATOM     26  H   UNL     1       0.682  -6.552   1.133  0.00  0.00    +0.155 HD
BRANCH  23  30
ATOM     27  C   UNL     1       0.792  -1.827   1.310  0.00  0.00    +0.121 A 
ATOM     28  C   UNL     1       1.959  -2.377   1.818  0.00  0.00    +0.047 A 
ATOM     29  C   UNL     1       2.070  -3.745   1.968  0.00  0.00    +0.027 A 
ATOM     30  C   UNL     1       1.012  -4.571   1.609  0.00  0.00    +0.034 A 
ATOM     31  C   UNL     1      -0.156  -4.019   1.100  0.00  0.00    +0.027 A 
ATOM     32  C   UNL     1      -0.267  -2.650   0.956  0.00  0.00    +0.047 A 
BRANCH  27  33
ATOM     33  O   UNL     1       0.683  -0.480   1.163  0.00  0.00    -0.492 OA
BRANCH  33  35
ATOM     34  C   UNL     1       1.505   1.788   1.311  0.00  0.00    +0.048 C 
ATOM     35  C   UNL     1       1.812   0.308   1.546  0.00  0.00    +0.225 C 
ENDBRANCH  33  35
ENDBRANCH  27  33
ENDBRANCH  23  30
ENDBRANCH  22  24
ENDBRANCH  21  22
ENDBRANCH  20  21
ENDBRANCH   1  20
TORSDOF 7
