REMARK  Name = ZINC06300407
REMARK  9 active torsions:
REMARK  status: ('A' for Active; 'I' for Inactive)
REMARK    1  A    between atoms: C_1  and  C_2
REMARK    2  A    between atoms: C_4  and  C_33
REMARK    3  A    between atoms: C_9  and  C_14
REMARK    4  A    between atoms: C_14  and  N_15
REMARK    5  A    between atoms: N_15  and  C_16
REMARK    6  A    between atoms: N_15  and  C_24
REMARK    7  A    between atoms: C_16  and  C_17
REMARK    8  A    between atoms: C_24  and  N_26
REMARK    9  A    between atoms: N_26  and  C_27
REMARK                            x       y       z     vdW  Elec       q    Type
REMARK                         _______ _______ _______ _____ _____    ______ ____
ROOT
ATOM      1  N   UNL     1      -1.280  -5.404   3.976  0.00  0.00    -0.304 N 
ENDROOT
BRANCH   1   2
ATOM      2  C   UNL     1      -2.022  -4.605   4.769  0.00  0.00    +0.134 C 
ATOM      3  S   UNL     1      -1.363  -3.141   5.364  0.00  0.00    -0.019 S 
BRANCH   2   4
ATOM      4  N   UNL     1      -3.281  -4.959   5.093  0.00  0.00    -0.324 N 
ATOM      5  H   UNL     1      -3.654  -5.789   4.756  0.00  0.00    +0.148 HD
BRANCH   4   6
ATOM      6  C   UNL     1      -4.087  -4.090   5.954  0.00  0.00    +0.072 C 
ATOM      7  C   UNL     1      -3.779  -4.399   7.421  0.00  0.00    +0.022 C 
ATOM      8  C   UNL     1      -4.621  -3.492   8.320  0.00  0.00    +0.002 C 
ATOM      9  C   UNL     1      -6.106  -3.739   8.048  0.00  0.00    +0.000 C 
ATOM     10  C   UNL     1      -6.414  -3.431   6.581  0.00  0.00    +0.002 C 
ATOM     11  C   UNL     1      -5.572  -4.338   5.681  0.00  0.00    +0.022 C 
ENDBRANCH   4   6
ENDBRANCH   2   4
ENDBRANCH   1   2
BRANCH   1  12
ATOM     12  C   UNL     1       0.089  -5.020   3.624  0.00  0.00    +0.147 C 
BRANCH  12  21
ATOM     13  C   UNL     1      -0.018   1.503   0.010  0.00  0.00    +0.044 C 
ATOM     14  C   UNL     1       0.002  -0.004   0.002  0.00  0.00    -0.050 A 
ATOM     15  C   UNL     1       0.006  -0.685  -1.208  0.00  0.00    +0.008 A 
ATOM     16  C   UNL     1       0.024  -2.063  -1.239  0.00  0.00    -0.026 A 
ATOM     17  C   UNL     1       0.040  -2.780  -0.047  0.00  0.00    +0.052 A 
ATOM     18  C   UNL     1       0.037  -2.086   1.177  0.00  0.00    -0.001 A 
ATOM     19  C   UNL     1       0.023  -0.687   1.185  0.00  0.00    +0.013 A 
ATOM     20  C   UNL     1       0.053  -2.850   2.426  0.00  0.00    +0.020 A 
ATOM     21  C   UNL     1       0.072  -4.204   2.357  0.00  0.00    +0.035 A 
ATOM     22  C   UNL     1       0.074  -4.852   1.103  0.00  0.00    +0.254 A 
ATOM     23  O   UNL     1       0.091  -6.070   1.064  0.00  0.00    -0.268 OA
ATOM     24  N   UNL     1       0.059  -4.159  -0.049  0.00  0.00    -0.322 N 
ATOM     25  H   UNL     1       0.061  -4.636  -0.893  0.00  0.00    +0.169 HD
ATOM     26  C   UNL     1       0.027  -2.790  -2.559  0.00  0.00    +0.046 C 
ENDBRANCH  12  21
ENDBRANCH   1  12
BRANCH   1  27
ATOM     27  C   UNL     1      -1.843  -6.657   3.467  0.00  0.00    +0.142 C 
BRANCH  27  28
ATOM     28  C   UNL     1      -1.549  -7.771   4.439  0.00  0.00    -0.030 A 
ATOM     29  C   UNL     1      -0.385  -8.507   4.314  0.00  0.00    +0.008 A 
ATOM     30  C   UNL     1      -0.114  -9.528   5.205  0.00  0.00    +0.038 A 
ATOM     31  C   UNL     1      -1.009  -9.815   6.222  0.00  0.00    +0.123 A 
ATOM     32  C   UNL     1      -2.175  -9.078   6.345  0.00  0.00    +0.038 A 
ATOM     33  C   UNL     1      -2.441  -8.054   5.457  0.00  0.00    +0.008 A 
ATOM     34  F   UNL     1      -0.746 -10.814   7.093  0.00  0.00    -0.205 F 
ENDBRANCH  27  28
ENDBRANCH   1  27
TORSDOF 7
