REMARK  Name = ZINC02846267
REMARK  5 active torsions:
REMARK  status: ('A' for Active; 'I' for Inactive)
REMARK    1  A    between atoms: C_4  and  N_7
REMARK    2  A    between atoms: C_16  and  S_17
REMARK    3  A    between atoms: S_17  and  C_18
REMARK    4  A    between atoms: C_18  and  C_19
REMARK    5  A    between atoms: C_24  and  C_25
REMARK                            x       y       z     vdW  Elec       q    Type
REMARK                         _______ _______ _______ _____ _____    ______ ____
ROOT
ATOM      1  N   UNL     1      -0.118   1.163   4.055  0.00  0.00    -0.255 N 
ATOM      2  C   UNL     1       0.223   0.111   4.821  0.00  0.00    +0.268 A 
ATOM      3  O   UNL     1      -0.433  -0.173   5.809  0.00  0.00    -0.267 OA
ATOM      4  C   UNL     1       1.367  -0.670   4.462  0.00  0.00    +0.076 A 
ATOM      5  C   UNL     1       1.913  -1.845   5.144  0.00  0.00    -0.023 A 
ATOM      6  C   UNL     1       3.011  -2.411   4.602  0.00  0.00    -0.004 A 
ATOM      7  S   UNL     1       3.378  -1.429   3.173  0.00  0.00    -0.073 S 
ATOM      8  C   UNL     1       2.052  -0.257   3.307  0.00  0.00    +0.117 A 
ATOM      9  N   UNL     1       1.661   0.789   2.589  0.00  0.00    -0.215 NA
ATOM     10  C   UNL     1       0.607   1.495   2.945  0.00  0.00    +0.178 A 
ATOM     11  C   UNL     1       3.755  -3.611   5.105  0.00  0.00    +0.043 C 
ATOM     12  C   UNL     1       3.305  -3.891   6.546  0.00  0.00    +0.005 C 
ATOM     13  C   UNL     1       1.775  -3.854   6.599  0.00  0.00    +0.005 C 
ATOM     14  C   UNL     1       1.283  -2.419   6.410  0.00  0.00    +0.037 C 
ENDROOT
BRANCH   1  18
ATOM     15  C   UNL     1      -3.446   3.450   5.086  0.00  0.00    +0.000 A 
ATOM     16  C   UNL     1      -3.592   2.358   4.250  0.00  0.00    +0.002 A 
ATOM     17  C   UNL     1      -2.490   1.598   3.907  0.00  0.00    +0.026 A 
ATOM     18  C   UNL     1      -1.237   1.932   4.402  0.00  0.00    +0.052 A 
ATOM     19  C   UNL     1      -1.095   3.026   5.245  0.00  0.00    +0.026 A 
ATOM     20  C   UNL     1      -2.199   3.785   5.580  0.00  0.00    +0.002 A 
ENDBRANCH   1  18
BRANCH  10  21
ATOM     21  S   UNL     1       0.120   2.882   1.972  0.00  0.00    -0.083 S 
BRANCH  21  22
ATOM     22  C   UNL     1       1.399   2.832   0.692  0.00  0.00    +0.113 C 
BRANCH  22  23
ATOM     23  C   UNL     1       1.179   3.961  -0.282  0.00  0.00    -0.020 A 
ATOM     24  C   UNL     1       0.390   3.767  -1.397  0.00  0.00    +0.006 A 
ATOM     25  C   UNL     1       0.183   4.803  -2.290  0.00  0.00    +0.000 A 
ATOM     26  C   UNL     1       0.773   6.037  -2.077  0.00  0.00    +0.001 A 
ATOM     27  C   UNL     1       1.569   6.242  -0.970  0.00  0.00    +0.019 A 
ATOM     28  C   UNL     1       1.778   5.202  -0.062  0.00  0.00    +0.056 A 
BRANCH  28  29
ATOM     29  C   UNL     1       2.604   5.408   1.090  0.00  0.00    +0.099 C 
ATOM     30  N   UNL     1       3.259   5.571   2.004  0.00  0.00    -0.191 NA
ENDBRANCH  28  29
ENDBRANCH  22  23
ENDBRANCH  21  22
ENDBRANCH  10  21
TORSDOF 5
