REMARK  Name = ZINC36599672
REMARK  20 active torsions:
REMARK  status: ('A' for Active; 'I' for Inactive)
REMARK    1  A    between atoms: C_1  and  C_2
REMARK    2  A    between atoms: C_2  and  C_3
REMARK    3  A    between atoms: C_3  and  C_4
REMARK    4  A    between atoms: N_6  and  C_7
REMARK    5  A    between atoms: N_6  and  C_14
REMARK    6  A    between atoms: C_7  and  C_8
REMARK    7  A    between atoms: C_11  and  C_13
REMARK    8  A    between atoms: C_14  and  C_16
REMARK    9  A    between atoms: C_14  and  C_25
REMARK   10  A    between atoms: C_17  and  O_24
REMARK   11  A    between atoms: C_19  and  O_23
REMARK   12  A    between atoms: C_21  and  O_22
REMARK   13  A    between atoms: N_27  and  C_28
REMARK   14  A    between atoms: C_28  and  C_29
REMARK   15  A    between atoms: C_28  and  C_30
REMARK   16  A    between atoms: C_28  and  C_31
REMARK   17  A    between atoms: C_31  and  C_32
REMARK   18  A    between atoms: C_32  and  C_33
REMARK   19  A    between atoms: C_32  and  C_34
REMARK   20  A    between atoms: C_32  and  C_35
REMARK                            x       y       z     vdW  Elec       q    Type
REMARK                         _______ _______ _______ _____ _____    ______ ____
ROOT
ATOM      1  C   UNL     1      -5.304  -1.120  -0.284  0.00  0.00    +0.200 C 
ENDROOT
BRANCH   1   2
ATOM      2  C   UNL     1      -5.178   0.003   0.713  0.00  0.00    +0.065 A 
ATOM      3  C   UNL     1      -4.069   0.835   0.684  0.00  0.00    +0.129 A 
ATOM      4  C   UNL     1      -3.954   1.869   1.602  0.00  0.00    +0.091 A 
ATOM      5  C   UNL     1      -4.948   2.070   2.548  0.00  0.00    +0.124 A 
ATOM      6  C   UNL     1      -6.058   1.238   2.576  0.00  0.00    +0.091 A 
ATOM      7  C   UNL     1      -6.175   0.208   1.655  0.00  0.00    +0.129 A 
BRANCH   7   8
ATOM      8  O   UNL     1      -7.264  -0.604   1.679  0.00  0.00    -0.506 OA
ATOM      9  H   UNL     1      -7.163  -1.382   2.245  0.00  0.00    +0.292 HD
ENDBRANCH   7   8
BRANCH   5  10
ATOM     10  O   UNL     1      -4.835   3.082   3.448  0.00  0.00    -0.507 OA
ATOM     11  H   UNL     1      -5.222   3.917   3.151  0.00  0.00    +0.292 HD
ENDBRANCH   5  10
BRANCH   3  12
ATOM     12  O   UNL     1      -3.095   0.638  -0.242  0.00  0.00    -0.506 OA
ATOM     13  H   UNL     1      -3.192   1.181  -1.037  0.00  0.00    +0.292 HD
ENDBRANCH   3  12
ENDBRANCH   1   2
BRANCH   1  14
ATOM     14  C   UNL     1      -5.766  -0.567  -1.608  0.00  0.00    +0.239 C 
ATOM     15  O   UNL     1      -5.231  -0.927  -2.635  0.00  0.00    -0.273 OA
ATOM     16  N   UNL     1      -6.773   0.327  -1.650  0.00  0.00    -0.308 N 
ATOM     17  H   UNL     1      -7.153   0.670  -0.825  0.00  0.00    +0.149 HD
BRANCH  16  18
ATOM     18  C   UNL     1      -7.296   0.783  -2.941  0.00  0.00    +0.030 C 
ATOM     19  C   UNL     1      -6.224   1.600  -3.665  0.00  0.00    +0.031 C 
ATOM     20  C   UNL     1      -7.675  -0.430  -3.793  0.00  0.00    +0.031 C 
BRANCH  18  21
ATOM     21  C   UNL     1      -8.533   1.653  -2.712  0.00  0.00    +0.031 C 
BRANCH  21  22
ATOM     22  C   UNL     1      -9.673   0.786  -2.171  0.00  0.00    -0.036 C 
ATOM     23  C   UNL     1      -9.127  -0.170  -1.109  0.00  0.00    +0.010 C 
ATOM     24  C   UNL     1     -10.744   1.683  -1.547  0.00  0.00    +0.010 C 
ATOM     25  C   UNL     1     -10.288  -0.020  -3.317  0.00  0.00    +0.010 C 
ENDBRANCH  21  22
ENDBRANCH  18  21
ENDBRANCH  16  18
ENDBRANCH   1  14
BRANCH   1  28
ATOM     26  C   UNL     1      -3.509  -2.558   0.521  0.00  0.00    +0.217 C 
ATOM     27  O   UNL     1      -2.392  -3.019   0.422  0.00  0.00    -0.276 OA
ATOM     28  N   UNL     1      -4.002  -1.769  -0.455  0.00  0.00    -0.278 N 
BRANCH  26  29
ATOM     29  C   UNL     1      -4.346  -2.865   1.736  0.00  0.00    +0.096 C 
BRANCH  29  31
ATOM     30  C   UNL     1      -4.471  -4.204   3.842  0.00  0.00    +0.004 C 
ATOM     31  C   UNL     1      -3.621  -3.892   2.609  0.00  0.00    +0.006 C 
ENDBRANCH  29  31
ENDBRANCH  26  29
BRANCH  28  32
ATOM     32  C   UNL     1      -3.235  -1.562  -1.685  0.00  0.00    +0.183 C 
BRANCH  32  33
ATOM     33  C   UNL     1      -3.427  -2.743  -2.602  0.00  0.00    +0.122 A 
ATOM     34  C   UNL     1      -4.187  -2.762  -3.711  0.00  0.00    +0.046 A 
ATOM     35  C   UNL     1      -4.079  -4.061  -4.259  0.00  0.00    +0.045 A 
ATOM     36  C   UNL     1      -3.260  -4.758  -3.451  0.00  0.00    +0.102 A 
ATOM     37  O   UNL     1      -2.863  -3.952  -2.453  0.00  0.00    -0.463 OA
ATOM     38  C   UNL     1      -2.851  -6.196  -3.639  0.00  0.00    +0.086 C 
ENDBRANCH  32  33
ENDBRANCH  28  32
ENDBRANCH   1  28
TORSDOF 13
