REMARK  Name = ZINC16247872
REMARK  9 active torsions:
REMARK  status: ('A' for Active; 'I' for Inactive)
REMARK    1  A    between atoms: C_1  and  C_2
REMARK    2  A    between atoms: C_2  and  O_3
REMARK    3  A    between atoms: O_3  and  C_4
REMARK    4  A    between atoms: C_12  and  N_24
REMARK    5  A    between atoms: C_13  and  C_14
REMARK    6  A    between atoms: N_16  and  C_17
REMARK    7  A    between atoms: C_21  and  C_23
REMARK    8  A    between atoms: C_25  and  C_27
REMARK    9  A    between atoms: C_27  and  N_66
REMARK                            x       y       z     vdW  Elec       q    Type
REMARK                         _______ _______ _______ _____ _____    ______ ____
ROOT
ATOM      1  C   UNL     1       4.537   1.949  -4.080  0.00  0.00    +0.403 C 
ATOM      2  O   UNL     1       4.159   1.364  -5.075  0.00  0.00    -0.226 OA
ATOM      3  N   UNL     1       3.640   2.526  -3.256  0.00  0.00    -0.262 N 
ATOM      4  C   UNL     1       2.198   2.464  -3.535  0.00  0.00    +0.116 C 
ATOM      5  C   UNL     1       1.497   1.667  -2.433  0.00  0.00    +0.056 C 
ATOM      6  C   UNL     1       1.969   2.169  -1.074  0.00  0.00    -0.020 A 
ATOM      7  C   UNL     1       3.121   2.862  -0.943  0.00  0.00    +0.013 A 
ATOM      8  S   UNL     1       3.249   3.212   0.787  0.00  0.00    -0.076 S 
ATOM      9  C   UNL     1       1.788   2.456   1.333  0.00  0.00    +0.084 A 
ATOM     10  C   UNL     1       1.241   1.945   0.164  0.00  0.00    +0.069 A 
ATOM     11  C   UNL     1       4.069   3.244  -2.039  0.00  0.00    +0.153 C 
ENDROOT
BRANCH  10  12
ATOM     12  C   UNL     1      -0.027   1.210   0.178  0.00  0.00    +0.251 C 
ATOM     13  O   UNL     1      -0.029   0.002   0.328  0.00  0.00    -0.270 OA
ATOM     14  N   UNL     1      -1.191   1.871   0.018  0.00  0.00    -0.281 N 
ATOM     15  H   UNL     1      -1.196   2.840  -0.025  0.00  0.00    +0.155 HD
BRANCH  14  16
ATOM     16  C   UNL     1      -2.390   1.160  -0.086  0.00  0.00    +0.034 A 
ATOM     17  C   UNL     1      -2.410  -0.087  -0.699  0.00  0.00    +0.023 A 
ATOM     18  C   UNL     1      -3.596  -0.786  -0.799  0.00  0.00    +0.002 A 
ATOM     19  C   UNL     1      -4.764  -0.247  -0.291  0.00  0.00    +0.003 A 
ATOM     20  C   UNL     1      -4.748   0.994   0.319  0.00  0.00    -0.049 A 
ATOM     21  C   UNL     1      -3.564   1.696   0.429  0.00  0.00    +0.026 A 
ATOM     22  C   UNL     1      -6.023   1.577   0.872  0.00  0.00    +0.044 C 
ENDBRANCH  14  16
ENDBRANCH  10  12
BRANCH   9  23
ATOM     23  N   UNL     1       1.288   2.380   2.624  0.00  0.00    -0.281 N 
ATOM     24  C   UNL     1       1.966   2.943   3.643  0.00  0.00    +0.201 C 
ATOM     25  O   UNL     1       3.013   3.517   3.432  0.00  0.00    -0.278 OA
ATOM     26  H   UNL     1       0.451   1.921   2.793  0.00  0.00    +0.155 HD
BRANCH  24  27
ATOM     27  C   UNL     1       1.423   2.860   5.046  0.00  0.00    +0.019 C 
BRANCH  27  33
ATOM     28  C   UNL     1       3.628   2.847   6.045  0.00  0.00    -0.078 C 
ATOM     29  C   UNL     1       4.603   3.664   6.896  0.00  0.00    -0.019 C 
ATOM     30  C   UNL     1       4.017   3.849   8.298  0.00  0.00    -0.004 C 
ATOM     31  C   UNL     1       2.652   4.535   8.186  0.00  0.00    -0.019 C 
ATOM     32  C   UNL     1       1.734   3.692   7.298  0.00  0.00    -0.078 C 
ATOM     33  N   UNL     1       2.343   3.572   5.956  0.00  0.00    +0.385 N 
ATOM     34  H   UNL     1       2.517   4.513   5.584  0.00  0.00    -0.081 HD
ENDBRANCH  27  33
ENDBRANCH  24  27
ENDBRANCH   9  23
BRANCH   1  35
ATOM     35  O   UNL     1       5.852   2.022  -3.801  0.00  0.00    -0.451 OA
BRANCH  35  37
ATOM     36  C   UNL     1       8.201   1.565  -4.252  0.00  0.00    +0.048 C 
ATOM     37  C   UNL     1       6.761   1.377  -4.732  0.00  0.00    +0.230 C 
ENDBRANCH  35  37
ENDBRANCH   1  35
TORSDOF 7
