REMARK  Name = ZINC41660071
REMARK  10 active torsions:
REMARK  status: ('A' for Active; 'I' for Inactive)
REMARK    1  A    between atoms: C_1  and  C_2
REMARK    2  A    between atoms: C_2  and  C_3
REMARK    3  A    between atoms: C_3  and  C_5
REMARK    4  A    between atoms: C_3  and  N_6
REMARK    5  A    between atoms: C_7  and  C_9
REMARK    6  A    between atoms: C_9  and  C_10
REMARK    7  A    between atoms: C_10  and  N_11
REMARK    8  A    between atoms: N_11  and  C_12
REMARK    9  A    between atoms: C_12  and  C_14
REMARK   10  A    between atoms: C_12  and  C_15
REMARK                            x       y       z     vdW  Elec       q    Type
REMARK                         _______ _______ _______ _____ _____    ______ ____
ROOT
ATOM      1  N   UNL     1      -6.325   0.793  -3.559  0.00  0.00    +0.384 N 
ATOM      2  H   UNL     1      -5.999   1.702  -3.850  0.00  0.00    -0.085 HD
ATOM      3  H   UNL     1      -6.117   0.116  -4.278  0.00  0.00    -0.085 HD
ENDROOT
BRANCH   1   4
ATOM      4  C   UNL     1      -7.777   0.840  -3.337  0.00  0.00    -0.043 C 
ATOM      5  C   UNL     1      -8.290  -0.565  -3.018  0.00  0.00    -0.009 C 
BRANCH   4   6
ATOM      6  C   UNL     1      -8.458   1.355  -4.579  0.00  0.00    -0.048 A 
ATOM      7  C   UNL     1      -7.852   1.205  -5.812  0.00  0.00    +0.004 A 
ATOM      8  C   UNL     1      -8.477   1.676  -6.951  0.00  0.00    +0.015 A 
ATOM      9  C   UNL     1      -9.710   2.297  -6.858  0.00  0.00    +0.019 A 
ATOM     10  C   UNL     1     -10.316   2.447  -5.624  0.00  0.00    +0.030 A 
ATOM     11  C   UNL     1      -9.693   1.971  -4.485  0.00  0.00    +0.021 A 
ATOM     12 BR   UNL     1     -10.526   2.168  -2.798  0.00  0.00    -0.050 Br
ATOM     13 BR   UNL     1     -10.565   2.942  -8.416  0.00  0.00    -0.050 Br
ENDBRANCH   4   6
ENDBRANCH   1   4
BRANCH   1  14
ATOM     14  C   UNL     1      -5.651   0.406  -2.312  0.00  0.00    -0.073 C 
BRANCH  14  15
ATOM     15  C   UNL     1      -4.140   0.357  -2.544  0.00  0.00    +0.077 C 
BRANCH  15  17
ATOM     16  N   UNL     1      -2.105  -0.148  -1.230  0.00  0.00    -0.313 N 
ATOM     17  C   UNL     1      -3.448  -0.040  -1.265  0.00  0.00    +0.211 C 
ATOM     18  O   UNL     1      -4.100  -0.261  -0.267  0.00  0.00    -0.276 OA
ATOM     19  H   UNL     1      -1.584   0.029  -2.029  0.00  0.00    +0.149 HD
BRANCH  16  20
ATOM     20  C   UNL     1      -1.433  -0.534   0.013  0.00  0.00    +0.070 C 
ATOM     21  C   UNL     1      -1.413  -2.059   0.130  0.00  0.00    +0.028 C 
BRANCH  20  23
ATOM     22  C   UNL     1      -0.019   1.526   0.010  0.00  0.00    +0.005 C 
ATOM     23  C   UNL     1       0.002  -0.004   0.002  0.00  0.00    +0.018 C 
ENDBRANCH  20  23
ENDBRANCH  16  20
ENDBRANCH  15  17
ENDBRANCH  14  15
ENDBRANCH   1  14
TORSDOF 7
