REMARK  Name = ZINC30858482
REMARK  8 active torsions:
REMARK  status: ('A' for Active; 'I' for Inactive)
REMARK    1  A    between atoms: C_1  and  C_2
REMARK    2  A    between atoms: C_5  and  C_8
REMARK    3  A    between atoms: C_8  and  C_10
REMARK    4  A    between atoms: C_8  and  N_16
REMARK    5  A    between atoms: C_17  and  C_19
REMARK    6  A    between atoms: N_22  and  S_30
REMARK    7  A    between atoms: S_30  and  C_33
REMARK    8  A    between atoms: C_36  and  C_39
REMARK                            x       y       z     vdW  Elec       q    Type
REMARK                         _______ _______ _______ _____ _____    ______ ____
ROOT
ATOM      1  C   UNL     1       4.647   2.067   3.173  0.00  0.00    +0.277 C 
ATOM      2  C   UNL     1       4.271   3.552   3.065  0.00  0.00    +0.186 C 
ATOM      3  N   UNL     1       5.052   4.283   4.078  0.00  0.00    -0.195 N 
ATOM      4  C   UNL     1       5.178   3.701   5.349  0.00  0.00    +0.093 A 
ATOM      5  C   UNL     1       5.647   4.453   6.414  0.00  0.00    +0.028 A 
ATOM      6  C   UNL     1       5.776   3.874   7.663  0.00  0.00    +0.002 A 
ATOM      7  C   UNL     1       5.437   2.547   7.849  0.00  0.00    +0.004 A 
ATOM      8  C   UNL     1       4.966   1.792   6.791  0.00  0.00    +0.047 A 
ATOM      9  C   UNL     1       4.833   2.365   5.535  0.00  0.00    +0.144 A 
ATOM     10  O   UNL     1       4.367   1.616   4.500  0.00  0.00    -0.476 OA
ENDROOT
BRANCH   1  12
ATOM     11  N   UNL     1       4.011   1.451   0.863  0.00  0.00    -0.301 N 
ATOM     12  C   UNL     1       3.835   1.268   2.186  0.00  0.00    +0.256 C 
ATOM     13  O   UNL     1       3.022   0.460   2.583  0.00  0.00    -0.272 OA
ATOM     14  H   UNL     1       4.748   2.184   0.503  0.00  0.00    +0.150 HD
BRANCH  11  15
ATOM     15  C   UNL     1       3.222   0.674  -0.096  0.00  0.00    +0.134 C 
BRANCH  15  20
ATOM     16  C   UNL     1       6.088   0.306  -5.101  0.00  0.00    +0.044 C 
ATOM     17  C   UNL     1       5.341   0.402  -3.795  0.00  0.00    -0.050 A 
ATOM     18  C   UNL     1       4.654  -0.695  -3.310  0.00  0.00    +0.004 A 
ATOM     19  C   UNL     1       3.969  -0.607  -2.112  0.00  0.00    +0.006 A 
ATOM     20  C   UNL     1       3.970   0.578  -1.401  0.00  0.00    -0.023 A 
ATOM     21  C   UNL     1       4.653   1.677  -1.889  0.00  0.00    +0.006 A 
ATOM     22  C   UNL     1       5.343   1.587  -3.084  0.00  0.00    +0.004 A 
ENDBRANCH  15  20
BRANCH  15  23
ATOM     23  C   UNL     1       1.898   1.356  -0.325  0.00  0.00    -0.023 A 
ATOM     24  C   UNL     1       0.744   0.603  -0.439  0.00  0.00    +0.006 A 
ATOM     25  C   UNL     1      -0.470   1.228  -0.654  0.00  0.00    +0.000 A 
ATOM     26  C   UNL     1      -0.532   2.606  -0.746  0.00  0.00    +0.000 A 
ATOM     27  C   UNL     1       0.622   3.358  -0.633  0.00  0.00    +0.000 A 
ATOM     28  C   UNL     1       1.837   2.733  -0.422  0.00  0.00    +0.006 A 
ENDBRANCH  15  23
ENDBRANCH  11  15
ENDBRANCH   1  12
BRANCH   3  29
ATOM     29  S   UNL     1       5.757   5.740   3.729  0.00  0.00    +0.075 S 
ATOM     30  O   UNL     1       6.902   5.848   4.564  0.00  0.00    -0.150 OA
ATOM     31  O   UNL     1       5.837   5.824   2.313  0.00  0.00    -0.150 OA
BRANCH  29  32
ATOM     32  C   UNL     1       4.636   6.998   4.246  0.00  0.00    +0.109 A 
ATOM     33  C   UNL     1       3.689   7.484   3.365  0.00  0.00    +0.029 A 
ATOM     34  C   UNL     1       2.807   8.467   3.771  0.00  0.00    +0.005 A 
ATOM     35  C   UNL     1       2.878   8.971   5.056  0.00  0.00    -0.050 A 
ATOM     36  C   UNL     1       3.829   8.489   5.936  0.00  0.00    +0.005 A 
ATOM     37  C   UNL     1       4.708   7.503   5.531  0.00  0.00    +0.029 A 
ATOM     38  C   UNL     1       1.919  10.046   5.499  0.00  0.00    +0.044 C 
ENDBRANCH  29  32
ENDBRANCH   3  29
TORSDOF 6
