REMARK  Name = ZINC36061285
REMARK  15 active torsions:
REMARK  status: ('A' for Active; 'I' for Inactive)
REMARK    1  A    between atoms: C_1  and  C_2
REMARK    2  A    between atoms: C_3  and  C_27
REMARK    3  A    between atoms: C_4  and  C_21
REMARK    4  A    between atoms: C_7  and  C_12
REMARK    5  A    between atoms: C_13  and  N_15
REMARK    6  A    between atoms: N_15  and  C_16
REMARK    7  A    between atoms: C_16  and  C_17
REMARK    8  A    between atoms: C_17  and  N_18
REMARK    9  A    between atoms: N_18  and  C_19
REMARK   10  A    between atoms: N_18  and  C_20
REMARK   11  A    between atoms: C_27  and  O_29
REMARK   12  A    between atoms: O_29  and  C_30
REMARK   13  A    between atoms: C_30  and  C_31
REMARK   14  A    between atoms: C_30  and  C_32
REMARK   15  A    between atoms: C_30  and  C_33
REMARK                            x       y       z     vdW  Elec       q    Type
REMARK                         _______ _______ _______ _____ _____    ______ ____
ROOT
ATOM      1  C   UNL     1      -0.014   1.548   0.224  0.00  0.00    +0.066 C 
ATOM      2  C   UNL     1      -0.012   0.043   0.164  0.00  0.00    +0.053 C 
ATOM      3  C   UNL     1      -1.210  -0.645   0.147  0.00  0.00    +0.083 C 
ATOM      4  C   UNL     1      -1.155  -2.155   0.086  0.00  0.00    +0.150 C 
ATOM      5  N   UNL     1       0.192  -2.783   0.048  0.00  0.00    -0.267 N 
ATOM      6  C   UNL     1       0.479  -4.132  -0.010  0.00  0.00    +0.048 C 
ATOM      7  C   UNL     1       1.781  -4.495  -0.037  0.00  0.00    +0.072 C 
ATOM      8  S   UNL     1       2.605  -2.917   0.018  0.00  0.00    -0.060 S 
ATOM      9  C   UNL     1       1.254  -1.923   0.072  0.00  0.00    +0.166 C 
ATOM     10  N   UNL     1       1.137  -0.612   0.121  0.00  0.00    -0.230 NA
ENDROOT
BRANCH   4  11
ATOM     11  C   UNL     1      -1.907  -2.597  -1.143  0.00  0.00    -0.022 A 
ATOM     12  C   UNL     1      -1.346  -2.428  -2.395  0.00  0.00    +0.006 A 
ATOM     13  C   UNL     1      -2.035  -2.833  -3.522  0.00  0.00    +0.000 A 
ATOM     14  C   UNL     1      -3.286  -3.408  -3.398  0.00  0.00    +0.000 A 
ATOM     15  C   UNL     1      -3.847  -3.578  -2.146  0.00  0.00    +0.000 A 
ATOM     16  C   UNL     1      -3.156  -3.177  -1.018  0.00  0.00    +0.006 A 
ENDBRANCH   4  11
BRANCH   6  17
ATOM     17  C   UNL     1      -0.592  -5.138  -0.040  0.00  0.00    +0.091 C 
ATOM     18  C   UNL     1      -0.290  -6.447   0.051  0.00  0.00    +0.239 C 
ATOM     19  O   UNL     1       0.985  -6.832   0.303  0.00  0.00    -0.271 OA
BRANCH  18  20
ATOM     20  N   UNL     1      -1.282  -7.399  -0.114  0.00  0.00    -0.314 N 
ATOM     21  H   UNL     1      -2.205  -7.124  -0.221  0.00  0.00    +0.149 HD
BRANCH  20  22
ATOM     22  C   UNL     1      -0.935  -8.823  -0.127  0.00  0.00    +0.086 C 
BRANCH  22  23
ATOM     23  C   UNL     1      -2.183  -9.649  -0.445  0.00  0.00    -0.061 C 
BRANCH  23  24
ATOM     24  N   UNL     1      -1.835 -11.076  -0.458  0.00  0.00    +0.377 N 
ATOM     25  C   UNL     1      -1.427 -11.493   0.890  0.00  0.00    -0.097 C 
ATOM     26  C   UNL     1      -3.003 -11.861  -0.881  0.00  0.00    -0.097 C 
ATOM     27  H   UNL     1      -1.075 -11.231  -1.103  0.00  0.00    -0.083 HD
ENDBRANCH  23  24
ENDBRANCH  22  23
ENDBRANCH  20  22
ENDBRANCH  18  20
ENDBRANCH   6  17
BRANCH   3  28
ATOM     28  C   UNL     1      -2.434   0.034   0.187  0.00  0.00    +0.340 C 
ATOM     29  O   UNL     1      -2.454   1.251   0.237  0.00  0.00    -0.245 OA
BRANCH  28  30
ATOM     30  O   UNL     1      -3.593  -0.662   0.170  0.00  0.00    -0.456 OA
BRANCH  30  31
ATOM     31  C   UNL     1      -4.804   0.095   0.213  0.00  0.00    +0.106 C 
ATOM     32  C   UNL     1      -4.866   1.027  -0.999  0.00  0.00    +0.055 C 
ATOM     33  C   UNL     1      -6.002  -0.857   0.186  0.00  0.00    +0.055 C 
ATOM     34  C   UNL     1      -4.841   0.926   1.498  0.00  0.00    +0.055 C 
ENDBRANCH  30  31
ENDBRANCH  28  30
ENDBRANCH   3  28
TORSDOF 9
