REMARK  Name = ZINC62977213
REMARK  9 active torsions:
REMARK  status: ('A' for Active; 'I' for Inactive)
REMARK    1  A    between atoms: C_1  and  C_2
REMARK    2  A    between atoms: C_2  and  N_3
REMARK    3  A    between atoms: N_3  and  C_4
REMARK    4  A    between atoms: N_3  and  C_6
REMARK    5  A    between atoms: C_4  and  C_5
REMARK    6  A    between atoms: C_9  and  C_12
REMARK    7  A    between atoms: C_19  and  O_40
REMARK    8  A    between atoms: C_20  and  C_23
REMARK    9  A    between atoms: C_23  and  N_24
REMARK                            x       y       z     vdW  Elec       q    Type
REMARK                         _______ _______ _______ _____ _____    ______ ____
ROOT
ATOM      1  C   UNL     1       1.191  -6.103   0.932  0.00  0.00    +0.058 C 
ATOM      2  C   UNL     1       2.416  -6.675   0.829  0.00  0.00    +0.176 C 
ATOM      3  C   UNL     1       3.710  -5.975   0.883  0.00  0.00    +0.231 C 
ATOM      4  O   UNL     1       3.908  -4.781   1.027  0.00  0.00    -0.283 OA
ATOM      5  C   UNL     1       4.714  -7.043   0.725  0.00  0.00    +0.068 A 
ATOM      6  C   UNL     1       6.109  -7.043   0.689  0.00  0.00    +0.019 A 
ATOM      7  C   UNL     1       6.786  -8.219   0.525  0.00  0.00    +0.046 A 
ATOM      8  C   UNL     1       6.086  -9.416   0.395  0.00  0.00    +0.122 A 
ATOM      9  C   UNL     1       4.701  -9.430   0.428  0.00  0.00    +0.020 A 
ATOM     10  C   UNL     1       3.998  -8.243   0.594  0.00  0.00    +0.144 A 
ATOM     11  O   UNL     1       2.672  -7.994   0.664  0.00  0.00    -0.451 OA
ENDROOT
BRANCH   1  15
ATOM     12  C   UNL     1       0.815  -1.879   0.914  0.00  0.00    +0.013 A 
ATOM     13  C   UNL     1       0.024  -2.637   1.760  0.00  0.00    +0.022 A 
ATOM     14  C   UNL     1       0.140  -4.011   1.772  0.00  0.00    +0.010 A 
ATOM     15  C   UNL     1       1.061  -4.638   0.926  0.00  0.00    -0.021 A 
ATOM     16  C   UNL     1       1.857  -3.865   0.073  0.00  0.00    +0.010 A 
ATOM     17  C   UNL     1       1.724  -2.493   0.070  0.00  0.00    +0.022 A 
BRANCH  12  18
ATOM     18  N   UNL     1       0.692  -0.486   0.909  0.00  0.00    -0.394 NA
ATOM     19  H   UNL     1       1.334  -0.095   0.236  0.00  0.00    +0.126 HD
BRANCH  18  21
ATOM     20  C   UNL     1      -0.787   1.402   0.417  0.00  0.00    +0.022 C 
ATOM     21  C   UNL     1      -0.683  -0.119   0.545  0.00  0.00    +0.081 C 
ENDBRANCH  18  21
BRANCH  18  22
ATOM     22  C   UNL     1       1.002   0.038   2.245  0.00  0.00    +0.081 C 
ATOM     23  C   UNL     1       2.471  -0.236   2.572  0.00  0.00    +0.022 C 
ENDBRANCH  18  22
ENDBRANCH  12  18
ENDBRANCH   1  15
BRANCH   8  24
ATOM     24  O   UNL     1       6.767 -10.579   0.232  0.00  0.00    -0.506 OA
ATOM     25  H   UNL     1       6.987 -11.025   1.061  0.00  0.00    +0.292 HD
ENDBRANCH   8  24
BRANCH   9  26
ATOM     26  C   UNL     1       3.957 -10.733   0.285  0.00  0.00    -0.036 C 
BRANCH  26  27
ATOM     27  N   UNL     1       3.751 -11.328   1.613  0.00  0.00    +0.383 N 
ATOM     28  C   UNL     1       3.143 -12.653   1.463  0.00  0.00    -0.073 C 
ATOM     29  C   UNL     1       2.908 -13.306   2.817  0.00  0.00    -0.007 C 
ATOM     30  C   UNL     1       2.048 -12.407   3.711  0.00  0.00    +0.011 C 
ATOM     31  C   UNL     1       2.759 -11.053   3.819  0.00  0.00    +0.020 C 
ATOM     32  C   UNL     1       2.868 -10.460   2.405  0.00  0.00    -0.069 C 
ATOM     33  C   UNL     1       4.160 -11.271   4.343  0.00  0.00    +0.023 A 
ATOM     34  C   UNL     1       4.729 -10.263   5.056  0.00  0.00    +0.022 A 
ATOM     35  C   UNL     1       6.046 -10.372   5.515  0.00  0.00    +0.007 A 
ATOM     36  C   UNL     1       6.758 -11.496   5.213  0.00  0.00    +0.070 A 
ATOM     37  C   UNL     1       6.143 -12.516   4.473  0.00  0.00    +0.251 A 
ATOM     38  O   UNL     1       6.788 -13.498   4.145  0.00  0.00    -0.268 OA
ATOM     39  N   UNL     1       4.837 -12.421   4.119  0.00  0.00    -0.312 N 
ATOM     40  C   UNL     1       4.215 -13.605   3.533  0.00  0.00    +0.126 C 
ATOM     41  H   UNL     1       4.640 -11.419   2.081  0.00  0.00    -0.081 HD
ENDBRANCH  26  27
ENDBRANCH   9  26
TORSDOF 7
