REMARK  Name = ZINC46644957
REMARK  7 active torsions:
REMARK  status: ('A' for Active; 'I' for Inactive)
REMARK    1  A    between atoms: C_1  and  C_2
REMARK    2  A    between atoms: C_2  and  C_4
REMARK    3  A    between atoms: C_2  and  N_22
REMARK    4  A    between atoms: C_4  and  N_5
REMARK    5  A    between atoms: C_6  and  C_8
REMARK    6  A    between atoms: N_17  and  S_18
REMARK    7  A    between atoms: S_18  and  C_21
REMARK                            x       y       z     vdW  Elec       q    Type
REMARK                         _______ _______ _______ _____ _____    ______ ____
ROOT
ATOM      1  N   UNL     1      -0.766  -2.444  -1.608  0.00  0.00    -0.313 N 
ATOM      2  C   UNL     1      -0.096  -3.176  -2.520  0.00  0.00    +0.244 C 
ATOM      3  O   UNL     1       0.291  -2.658  -3.549  0.00  0.00    -0.270 OA
ATOM      4  H   UNL     1      -1.075  -2.857  -0.787  0.00  0.00    +0.149 HD
ENDROOT
BRANCH   2   5
ATOM      5  C   UNL     1       0.167  -4.606  -2.269  0.00  0.00    +0.037 A 
ATOM      6  C   UNL     1      -0.283  -5.204  -1.089  0.00  0.00    +0.015 A 
ATOM      7  C   UNL     1      -0.033  -6.537  -0.861  0.00  0.00    +0.026 A 
ATOM      8  C   UNL     1       0.665  -7.291  -1.803  0.00  0.00    +0.054 A 
ATOM      9  C   UNL     1       1.112  -6.702  -2.979  0.00  0.00    -0.024 A 
ATOM     10  C   UNL     1       0.861  -5.365  -3.213  0.00  0.00    +0.018 A 
ATOM     11  C   UNL     1       1.860  -7.493  -4.021  0.00  0.00    +0.038 C 
ATOM     12  C   UNL     1       2.463  -8.754  -3.402  0.00  0.00    +0.025 C 
ATOM     13  C   UNL     1       1.365  -9.505  -2.638  0.00  0.00    +0.131 C 
ATOM     14  N   UNL     1       0.908  -8.639  -1.543  0.00  0.00    -0.207 N 
BRANCH  14  15
ATOM     15  S   UNL     1       0.685  -9.254  -0.021  0.00  0.00    +0.043 S 
ATOM     16  O   UNL     1       1.388 -10.489  -0.024  0.00  0.00    -0.155 OA
ATOM     17  O   UNL     1       1.069  -8.203   0.855  0.00  0.00    -0.155 OA
ATOM     18  C   UNL     1      -1.100  -9.551   0.104  0.00  0.00    +0.218 C 
ENDBRANCH  14  15
ENDBRANCH   2   5
BRANCH   1  19
ATOM     19  C   UNL     1      -1.028  -1.024  -1.857  0.00  0.00    +0.089 C 
BRANCH  19  21
ATOM     20  C   UNL     1      -2.227   1.005  -1.028  0.00  0.00    -0.012 C 
ATOM     21  C   UNL     1      -1.930  -0.470  -0.752  0.00  0.00    -0.054 C 
BRANCH  21  22
ATOM     22  N   UNL     1      -3.189  -1.226  -0.723  0.00  0.00    +0.385 N 
ATOM     23  C   UNL     1      -3.917  -1.002  -1.979  0.00  0.00    -0.073 C 
ATOM     24  C   UNL     1      -5.051  -2.035  -2.088  0.00  0.00    +0.024 C 
ATOM     25  C   UNL     1      -5.768  -2.057  -0.777  0.00  0.00    -0.011 A 
ATOM     26  C   UNL     1      -5.334  -1.506   0.391  0.00  0.00    -0.054 A 
ATOM     27  C   UNL     1      -6.174  -1.644   1.493  0.00  0.00    +0.009 A 
ATOM     28  C   UNL     1      -7.350  -2.303   1.369  0.00  0.00    +0.045 A 
ATOM     29  S   UNL     1      -7.330  -2.772  -0.355  0.00  0.00    -0.101 S 
ATOM     30  C   UNL     1      -3.988  -0.789   0.428  0.00  0.00    -0.042 C 
ATOM     31  H   UNL     1      -2.983  -2.210  -0.630  0.00  0.00    -0.081 HD
ENDBRANCH  21  22
ENDBRANCH  19  21
ENDBRANCH   1  19
TORSDOF 5
