REMARK  Name = ZINC22909599
REMARK  9 active torsions:
REMARK  status: ('A' for Active; 'I' for Inactive)
REMARK    1  A    between atoms: C_1  and  C_2
REMARK    2  A    between atoms: C_8  and  N_10
REMARK    3  A    between atoms: C_11  and  C_13
REMARK    4  A    between atoms: C_13  and  N_14
REMARK    5  A    between atoms: N_14  and  C_15
REMARK    6  A    between atoms: C_18  and  S_21
REMARK    7  A    between atoms: S_21  and  N_24
REMARK    8  A    between atoms: C_26  and  C_33
REMARK    9  A    between atoms: C_29  and  C_32
REMARK                            x       y       z     vdW  Elec       q    Type
REMARK                         _______ _______ _______ _____ _____    ______ ____
ROOT
ATOM      1  C   UNL     1       6.020   1.151   3.993  0.00  0.00    +0.028 A 
ATOM      2  C   UNL     1       6.824   1.561   2.938  0.00  0.00    +0.025 A 
ATOM      3  C   UNL     1       8.108   2.009   3.183  0.00  0.00    +0.030 A 
ATOM      4  C   UNL     1       8.592   2.049   4.477  0.00  0.00    +0.106 A 
ATOM      5  C   UNL     1       7.794   1.642   5.530  0.00  0.00    +0.030 A 
ATOM      6  C   UNL     1       6.508   1.198   5.293  0.00  0.00    +0.025 A 
ENDROOT
BRANCH   4   7
ATOM      7  S   UNL     1      10.230   2.620   4.785  0.00  0.00    +0.061 S 
ATOM      8  O   UNL     1      10.635   2.047   6.021  0.00  0.00    -0.153 OA
ATOM      9  O   UNL     1      10.960   2.429   3.582  0.00  0.00    -0.153 OA
BRANCH   7  10
ATOM     10  N   UNL     1      10.141   4.256   5.029  0.00  0.00    -0.172 NA
ATOM     11  C   UNL     1      10.259   5.197   3.904  0.00  0.00    +0.140 C 
ATOM     12  C   UNL     1      11.307   6.255   4.267  0.00  0.00    +0.131 C 
ATOM     13  O   UNL     1      10.982   6.823   5.538  0.00  0.00    -0.371 OA
ATOM     14  C   UNL     1      11.004   5.888   6.620  0.00  0.00    +0.131 C 
ATOM     15  C   UNL     1       9.935   4.811   6.377  0.00  0.00    +0.140 C 
ATOM     16  C   UNL     1      10.706   6.616   7.931  0.00  0.00    +0.039 C 
ATOM     17  C   UNL     1      11.314   7.354   3.202  0.00  0.00    +0.039 C 
ENDBRANCH   7  10
ENDBRANCH   4   7
BRANCH   1  18
ATOM     18  N   UNL     1       4.722   0.698   3.749  0.00  0.00    -0.335 N 
ATOM     19  H   UNL     1       4.160   0.416   4.487  0.00  0.00    +0.147 HD
BRANCH  18  20
ATOM     20  C   UNL     1       4.209   0.649   2.377  0.00  0.00    +0.197 C 
BRANCH  20  22
ATOM     21  N   UNL     1       2.116  -0.004   1.231  0.00  0.00    -0.311 N 
ATOM     22  C   UNL     1       2.795   0.128   2.388  0.00  0.00    +0.230 C 
ATOM     23  O   UNL     1       2.268  -0.174   3.438  0.00  0.00    -0.274 OA
ATOM     24  H   UNL     1       2.538   0.237   0.392  0.00  0.00    +0.149 HD
BRANCH  21  31
ATOM     25  C   UNL     1      -0.019   1.526   0.010  0.00  0.00    +0.009 C 
ATOM     26  C   UNL     1       0.002  -0.004   0.002  0.00  0.00    +0.006 C 
ATOM     27  C   UNL     1       0.718  -0.497  -1.257  0.00  0.00    +0.005 C 
ATOM     28  C   UNL     1       0.739  -2.027  -1.265  0.00  0.00    +0.000 C 
ATOM     29  C   UNL     1       1.479  -2.534  -0.026  0.00  0.00    +0.002 C 
ATOM     30  C   UNL     1       0.763  -2.041   1.233  0.00  0.00    +0.022 C 
ATOM     31  C   UNL     1       0.742  -0.511   1.242  0.00  0.00    +0.076 C 
ENDBRANCH  21  31
ENDBRANCH  20  22
ENDBRANCH  18  20
ENDBRANCH   1  18
TORSDOF 6
