REMARK  Name = ZINC48058021
REMARK  6 active torsions:
REMARK  status: ('A' for Active; 'I' for Inactive)
REMARK    1  A    between atoms: C_1  and  C_2
REMARK    2  A    between atoms: N_19  and  C_20
REMARK    3  A    between atoms: C_23  and  N_26
REMARK    4  A    between atoms: C_27  and  C_29
REMARK    5  A    between atoms: C_29  and  C_30
REMARK    6  A    between atoms: C_29  and  C_31
REMARK                            x       y       z     vdW  Elec       q    Type
REMARK                         _______ _______ _______ _____ _____    ______ ____
ROOT
ATOM      1  C   UNL     1      -1.216   1.208   1.619  0.00  0.00    +0.035 C 
ATOM      2  C   UNL     1      -0.827  -0.151   1.033  0.00  0.00    +0.121 C 
ATOM      3  C   UNL     1      -1.886  -1.177   1.369  0.00  0.00    +0.041 A 
ATOM      4  C   UNL     1      -1.609  -2.389   1.895  0.00  0.00    -0.016 A 
ATOM      5  C   UNL     1      -2.874  -3.075   2.067  0.00  0.00    +0.003 A 
ATOM      6  C   UNL     1      -3.207  -4.341   2.558  0.00  0.00    +0.010 A 
ATOM      7  C   UNL     1      -4.540  -4.668   2.578  0.00  0.00    +0.001 A 
ATOM      8  C   UNL     1      -5.519  -3.794   2.134  0.00  0.00    +0.002 A 
ATOM      9  C   UNL     1      -5.218  -2.536   1.643  0.00  0.00    +0.026 A 
ATOM     10  C   UNL     1      -3.872  -2.176   1.611  0.00  0.00    +0.047 A 
ATOM     11  N   UNL     1      -3.238  -1.040   1.197  0.00  0.00    -0.356 N 
ATOM     12  H   UNL     1      -3.679  -0.255   0.837  0.00  0.00    +0.166 HD
ATOM     13  C   UNL     1      -0.225  -2.886   2.228  0.00  0.00    +0.056 C 
ATOM     14  C   UNL     1       0.805  -2.026   1.486  0.00  0.00    +0.115 C 
ATOM     15  N   UNL     1       0.439  -0.609   1.629  0.00  0.00    -0.277 N 
ATOM     16  C   UNL     1       1.242   0.249   2.291  0.00  0.00    +0.307 C 
ATOM     17  O   UNL     1       0.903   1.407   2.439  0.00  0.00    -0.252 OA
ATOM     18  N   UNL     1       2.420  -0.178   2.788  0.00  0.00    -0.269 N 
ATOM     19  H   UNL     1       2.718  -1.085   2.617  0.00  0.00    +0.156 HD
ENDROOT
BRANCH  18  20
ATOM     20  C   UNL     1       3.213   0.689   3.551  0.00  0.00    +0.035 A 
ATOM     21  C   UNL     1       3.216   2.050   3.277  0.00  0.00    +0.025 A 
ATOM     22  C   UNL     1       3.998   2.904   4.029  0.00  0.00    +0.025 A 
ATOM     23  C   UNL     1       4.781   2.402   5.060  0.00  0.00    +0.034 A 
ATOM     24  C   UNL     1       4.777   1.040   5.335  0.00  0.00    +0.025 A 
ATOM     25  C   UNL     1       3.991   0.187   4.586  0.00  0.00    +0.025 A 
BRANCH  23  26
ATOM     26  N   UNL     1       5.575   3.268   5.823  0.00  0.00    -0.285 N 
ATOM     27  C   UNL     1       5.162   4.530   6.056  0.00  0.00    +0.220 C 
ATOM     28  O   UNL     1       4.066   4.888   5.683  0.00  0.00    -0.275 OA
ATOM     29  H   UNL     1       6.421   2.960   6.183  0.00  0.00    +0.155 HD
BRANCH  27  30
ATOM     30  C   UNL     1       6.064   5.495   6.782  0.00  0.00    +0.069 C 
ATOM     31  C   UNL     1       7.363   5.671   5.994  0.00  0.00    +0.017 C 
ATOM     32  C   UNL     1       5.361   6.848   6.915  0.00  0.00    +0.017 C 
ENDBRANCH  27  30
ENDBRANCH  23  26
ENDBRANCH  18  20
TORSDOF 3
