REMARK  Name = ZINC60367974
REMARK  7 active torsions:
REMARK  status: ('A' for Active; 'I' for Inactive)
REMARK    1  A    between atoms: C_4  and  C_14
REMARK    2  A    between atoms: C_5  and  C_7
REMARK    3  A    between atoms: C_7  and  N_8
REMARK    4  A    between atoms: N_15  and  O_16
REMARK    5  A    between atoms: O_16  and  C_17
REMARK    6  A    between atoms: C_17  and  C_18
REMARK    7  A    between atoms: C_21  and  C_23
REMARK                            x       y       z     vdW  Elec       q    Type
REMARK                         _______ _______ _______ _____ _____    ______ ____
ROOT
ATOM      1  C   UNL     1       3.765  -0.821   0.503  0.00  0.00    +0.163 C 
ATOM      2  N   UNL     1       4.768  -0.689  -0.314  0.00  0.00    -0.069 NA
ATOM      3  N   UNL     1       3.812  -1.771   1.509  0.00  0.00    -0.340 N 
ATOM      4  H   UNL     1       3.064  -1.870   2.119  0.00  0.00    +0.144 HD
ATOM      5  H   UNL     1       4.593  -2.339   1.604  0.00  0.00    +0.144 HD
ENDROOT
BRANCH   1   9
ATOM      6  C   UNL     1       0.344   1.665   0.086  0.00  0.00    +0.000 A 
ATOM      7  C   UNL     1       1.593   2.235   0.257  0.00  0.00    +0.001 A 
ATOM      8  C   UNL     1       2.707   1.433   0.393  0.00  0.00    +0.011 A 
ATOM      9  C   UNL     1       2.573   0.045   0.358  0.00  0.00    +0.019 A 
ATOM     10  C   UNL     1       1.311  -0.523   0.186  0.00  0.00    -0.053 A 
ATOM     11  C   UNL     1       0.204   0.289   0.051  0.00  0.00    +0.002 A 
BRANCH  10  12
ATOM     12  C   UNL     1       1.157  -2.022   0.146  0.00  0.00    -0.042 C 
BRANCH  12  13
ATOM     13  N   UNL     1       1.646  -2.531  -1.142  0.00  0.00    +0.382 N 
ATOM     14  C   UNL     1       0.787  -2.030  -2.222  0.00  0.00    -0.078 C 
ATOM     15  C   UNL     1       1.338  -2.490  -3.573  0.00  0.00    -0.019 C 
ATOM     16  C   UNL     1       1.369  -4.021  -3.611  0.00  0.00    -0.004 C 
ATOM     17  C   UNL     1       2.207  -4.534  -2.437  0.00  0.00    -0.019 C 
ATOM     18  C   UNL     1       1.623  -3.998  -1.128  0.00  0.00    -0.078 C 
ATOM     19  H   UNL     1       2.591  -2.212  -1.292  0.00  0.00    -0.081 HD
ENDBRANCH  12  13
ENDBRANCH  10  12
ENDBRANCH   1   9
BRANCH   2  20
ATOM     20  O   UNL     1       4.675   0.201  -1.411  0.00  0.00    -0.386 OA
BRANCH  20  21
ATOM     21  C   UNL     1       5.802   0.163  -2.289  0.00  0.00    +0.321 C 
BRANCH  21  22
ATOM     22  C   UNL     1       5.654   1.228  -3.344  0.00  0.00    +0.120 A 
ATOM     23  C   UNL     1       4.679   2.153  -3.405  0.00  0.00    +0.224 A 
ATOM     24  O   UNL     1       4.912   2.910  -4.495  0.00  0.00    -0.443 OA
ATOM     25  C   UNL     1       6.024   2.441  -5.088  0.00  0.00    +0.229 A 
ATOM     26  N   UNL     1       6.475   1.427  -4.386  0.00  0.00    -0.210 NA
BRANCH  25  27
ATOM     27  C   UNL     1       6.639   2.980  -6.319  0.00  0.00    +0.055 A 
ATOM     28  C   UNL     1       7.796   2.397  -6.838  0.00  0.00    +0.014 A 
ATOM     29  C   UNL     1       8.366   2.905  -7.987  0.00  0.00    +0.001 A 
ATOM     30  C   UNL     1       7.793   3.991  -8.625  0.00  0.00    +0.001 A 
ATOM     31  C   UNL     1       6.647   4.575  -8.117  0.00  0.00    +0.021 A 
ATOM     32  C   UNL     1       6.062   4.072  -6.971  0.00  0.00    +0.053 A 
ATOM     33 CL   UNL     1       4.619   4.801  -6.338  0.00  0.00    -0.083 Cl
ENDBRANCH  25  27
ENDBRANCH  21  22
ENDBRANCH  20  21
ENDBRANCH   2  20
TORSDOF 7
