REMARK  Name = ZINC58991677
REMARK  10 active torsions:
REMARK  status: ('A' for Active; 'I' for Inactive)
REMARK    1  A    between atoms: C_1  and  C_2
REMARK    2  A    between atoms: C_2  and  C_24
REMARK    3  A    between atoms: N_3  and  N_4
REMARK    4  A    between atoms: C_5  and  C_7
REMARK    5  A    between atoms: C_7  and  C_8
REMARK    6  A    between atoms: C_8  and  C_9
REMARK    7  A    between atoms: C_9  and  S_10
REMARK    8  A    between atoms: S_10  and  C_11
REMARK    9  A    between atoms: C_14  and  C_17
REMARK   10  A    between atoms: N_15  and  N_16
REMARK                            x       y       z     vdW  Elec       q    Type
REMARK                         _______ _______ _______ _____ _____    ______ ____
ROOT
ATOM      1  S   UNL     1      -0.107  -1.314   8.672  0.00  0.00    -0.084 S 
ENDROOT
BRANCH   1   2
ATOM      2  C   UNL     1       0.020  -0.308  10.113  0.00  0.00    +0.209 A 
ATOM      3  N   UNL     1       0.166   0.998  10.142  0.00  0.00    -0.121 NA
ATOM      4  N   UNL     1       0.224   1.408  11.359  0.00  0.00    -0.127 NA
ATOM      5  C   UNL     1       0.118   0.390  12.181  0.00  0.00    +0.183 A 
ATOM      6  N   UNL     1      -0.022  -0.740  11.408  0.00  0.00    -0.224 N 
BRANCH   5   7
ATOM      7  C   UNL     1       0.140   0.448  13.658  0.00  0.00    +0.035 A 
ATOM      8  C   UNL     1       0.946  -0.432  14.382  0.00  0.00    +0.013 A 
ATOM      9  C   UNL     1       0.963  -0.373  15.760  0.00  0.00    +0.001 A 
ATOM     10  C   UNL     1       0.181   0.556  16.425  0.00  0.00    +0.001 A 
ATOM     11  C   UNL     1      -0.620   1.431  15.715  0.00  0.00    +0.016 A 
ATOM     12  C   UNL     1      -0.642   1.386  14.335  0.00  0.00    +0.029 A 
ATOM     13 BR   UNL     1      -1.732   2.588  13.364  0.00  0.00    -0.050 Br
ENDBRANCH   5   7
BRANCH   6  14
ATOM     14  N   UNL     1      -0.168  -2.026  11.846  0.00  0.00    -0.295 N 
ATOM     15  H   UNL     1       0.729  -2.447  12.036  0.00  0.00    +0.163 HD
ATOM     16  H   UNL     1      -0.766  -2.066  12.657  0.00  0.00    +0.163 HD
ENDBRANCH   6  14
ENDBRANCH   1   2
BRANCH   1  17
ATOM     17  C   UNL     1       0.020  -0.133   7.301  0.00  0.00    +0.078 C 
BRANCH  17  18
ATOM     18  C   UNL     1      -0.076  -0.884   5.971  0.00  0.00    +0.020 C 
BRANCH  18  19
ATOM     19  C   UNL     1       0.032   0.112   4.814  0.00  0.00    +0.098 C 
BRANCH  19  21
ATOM     20  N   UNL     1       0.007   0.050   2.341  0.00  0.00    -0.207 N 
ATOM     21  C   UNL     1      -0.063  -0.628   3.504  0.00  0.00    +0.232 C 
ATOM     22  O   UNL     1      -0.203  -1.833   3.497  0.00  0.00    -0.274 OA
ATOM     23  H   UNL     1       0.119   1.014   2.348  0.00  0.00    +0.177 HD
BRANCH  20  26
ATOM     24  C   UNL     1       0.161   1.513   0.011  0.00  0.00    +0.068 C 
ATOM     25  C   UNL     1      -0.013   0.017   0.002  0.00  0.00    +0.070 C 
ATOM     26  N   UNL     1      -0.081  -0.637   1.124  0.00  0.00    -0.184 NA
BRANCH  25  27
ATOM     27  C   UNL     1      -0.105  -0.703  -1.273  0.00  0.00    +0.035 A 
ATOM     28  C   UNL     1      -0.270  -2.058  -1.500  0.00  0.00    +0.017 A 
ATOM     29  C   UNL     1      -0.329  -2.501  -2.801  0.00  0.00    +0.008 A 
ATOM     30  C   UNL     1      -0.225  -1.602  -3.815  0.00  0.00    +0.046 A 
ATOM     31  S   UNL     1      -0.042  -0.058  -2.937  0.00  0.00    -0.095 S 
ENDBRANCH  25  27
ENDBRANCH  20  26
ENDBRANCH  19  21
ENDBRANCH  18  19
ENDBRANCH  17  18
ENDBRANCH   1  17
TORSDOF 9
