REMARK  Name = ZINC08983454
REMARK  10 active torsions:
REMARK  status: ('A' for Active; 'I' for Inactive)
REMARK    1  A    between atoms: C_1  and  C_2
REMARK    2  A    between atoms: C_8  and  C_28
REMARK    3  A    between atoms: C_9  and  C_22
REMARK    4  A    between atoms: N_10  and  C_11
REMARK    5  A    between atoms: C_11  and  C_12
REMARK    6  A    between atoms: C_12  and  C_14
REMARK    7  A    between atoms: C_12  and  O_21
REMARK    8  A    between atoms: C_14  and  N_60
REMARK    9  A    between atoms: C_15  and  C_16
REMARK   10  A    between atoms: C_15  and  N_60
REMARK                            x       y       z     vdW  Elec       q    Type
REMARK                         _______ _______ _______ _____ _____    ______ ____
ROOT
ATOM      1  C   UNL     1      -1.506  -3.681  -4.070  0.00  0.00    +0.044 C 
ATOM      2  C   UNL     1      -0.585  -3.899  -2.897  0.00  0.00    -0.050 A 
ATOM      3  C   UNL     1       0.004  -5.141  -2.704  0.00  0.00    +0.005 A 
ATOM      4  C   UNL     1       0.848  -5.360  -1.637  0.00  0.00    +0.027 A 
ATOM      5  C   UNL     1       1.116  -4.328  -0.742  0.00  0.00    +0.050 A 
ATOM      6  C   UNL     1       0.517  -3.072  -0.944  0.00  0.00    +0.008 A 
ATOM      7  C   UNL     1      -0.335  -2.872  -2.031  0.00  0.00    +0.014 A 
ATOM      8  C   UNL     1       0.989  -2.210   0.149  0.00  0.00    +0.015 A 
ATOM      9  C   UNL     1       1.830  -2.982   0.922  0.00  0.00    +0.058 A 
ATOM     10  N   UNL     1       1.898  -4.247   0.390  0.00  0.00    -0.337 N 
ENDROOT
BRANCH   9  11
ATOM     11  C   UNL     1       2.542  -2.523   2.132  0.00  0.00    -0.001 A 
ATOM     12  C   UNL     1       3.390  -1.415   2.069  0.00  0.00    +0.010 A 
ATOM     13  C   UNL     1       4.047  -0.989   3.204  0.00  0.00    +0.001 A 
ATOM     14  C   UNL     1       3.878  -1.664   4.400  0.00  0.00    +0.000 A 
ATOM     15  C   UNL     1       3.044  -2.766   4.468  0.00  0.00    +0.001 A 
ATOM     16  C   UNL     1       2.375  -3.200   3.342  0.00  0.00    +0.010 A 
ENDBRANCH   9  11
BRANCH   8  17
ATOM     17  C   UNL     1       0.635  -0.790   0.372  0.00  0.00    -0.015 A 
ATOM     18  C   UNL     1      -0.649  -0.446   0.795  0.00  0.00    +0.008 A 
ATOM     19  C   UNL     1      -0.973   0.879   1.001  0.00  0.00    +0.001 A 
ATOM     20  C   UNL     1      -0.026   1.866   0.790  0.00  0.00    +0.000 A 
ATOM     21  C   UNL     1       1.249   1.532   0.370  0.00  0.00    +0.001 A 
ATOM     22  C   UNL     1       1.585   0.210   0.161  0.00  0.00    +0.008 A 
ENDBRANCH   8  17
BRANCH  10  23
ATOM     23  C   UNL     1       2.693  -5.347   0.941  0.00  0.00    +0.151 C 
BRANCH  23  24
ATOM     24  C   UNL     1       4.093  -5.323   0.326  0.00  0.00    +0.117 C 
BRANCH  24  25
ATOM     25  O   UNL     1       4.770  -4.130   0.728  0.00  0.00    -0.392 OA
ATOM     26  H   UNL     1       4.877  -4.042   1.685  0.00  0.00    +0.210 HD
ENDBRANCH  24  25
BRANCH  24  27
ATOM     27  C   UNL     1       4.882  -6.543   0.806  0.00  0.00    -0.049 C 
BRANCH  27  28
ATOM     28  N   UNL     1       6.231  -6.512   0.209  0.00  0.00    +0.385 N 
ATOM     29  H   UNL     1       6.710  -5.651   0.498  0.00  0.00    -0.085 HD
ATOM     30  H   UNL     1       6.149  -6.531  -0.814  0.00  0.00    -0.085 HD
BRANCH  28  31
ATOM     31  C   UNL     1       7.015  -7.679   0.655  0.00  0.00    -0.007 C 
BRANCH  31  32
ATOM     32  C   UNL     1       8.385  -7.621   0.031  0.00  0.00    +0.088 A 
ATOM     33  C   UNL     1       9.466  -7.019   0.559  0.00  0.00    +0.042 A 
ATOM     34  C   UNL     1      10.528  -7.208  -0.355  0.00  0.00    +0.041 A 
ATOM     35  C   UNL     1      10.033  -7.915  -1.387  0.00  0.00    +0.195 A 
ATOM     36  O   UNL     1       8.736  -8.167  -1.145  0.00  0.00    -0.470 OA
ENDBRANCH  31  32
ENDBRANCH  28  31
ENDBRANCH  27  28
ENDBRANCH  24  27
ENDBRANCH  23  24
ENDBRANCH  10  23
TORSDOF 9
