REMARK  Name = ZINC58267274
REMARK  9 active torsions:
REMARK  status: ('A' for Active; 'I' for Inactive)
REMARK    1  A    between atoms: C_1  and  C_2
REMARK    2  A    between atoms: C_5  and  C_22
REMARK    3  A    between atoms: N_8  and  C_10
REMARK    4  A    between atoms: C_10  and  C_11
REMARK    5  A    between atoms: C_13  and  N_21
REMARK    6  A    between atoms: C_15  and  O_19
REMARK    7  A    between atoms: C_16  and  O_17
REMARK    8  A    between atoms: O_17  and  C_18
REMARK    9  A    between atoms: O_19  and  C_20
REMARK                            x       y       z     vdW  Elec       q    Type
REMARK                         _______ _______ _______ _____ _____    ______ ____
ROOT
ATOM      1  C   UNL     1       2.146   0.211   3.650  0.00  0.00    -0.017 A 
ATOM      2  C   UNL     1       2.707   1.334   4.230  0.00  0.00    +0.028 A 
ATOM      3  C   UNL     1       2.100   1.927   5.328  0.00  0.00    +0.028 A 
ATOM      4  C   UNL     1       0.927   1.392   5.846  0.00  0.00    +0.072 A 
ATOM      5  C   UNL     1       0.366   0.267   5.266  0.00  0.00    +0.163 A 
ATOM      6  C   UNL     1       0.974  -0.321   4.161  0.00  0.00    +0.163 A 
ENDROOT
BRANCH   3   7
ATOM      7  N   UNL     1       2.669   3.063   5.914  0.00  0.00    -0.358 N 
ATOM      8  H   UNL     1       3.488   3.436   5.553  0.00  0.00    +0.142 HD
ATOM      9  H   UNL     1       2.244   3.477   6.682  0.00  0.00    +0.142 HD
ENDBRANCH   3   7
BRANCH   6  10
ATOM     10  O   UNL     1       0.420  -1.423   3.585  0.00  0.00    -0.491 OA
ATOM     11  C   UNL     1       0.833  -2.695   4.088  0.00  0.00    +0.277 C 
ENDBRANCH   6  10
BRANCH   5  12
ATOM     12  O   UNL     1      -0.782  -0.258   5.771  0.00  0.00    -0.491 OA
ATOM     13  C   UNL     1      -1.355   0.401   6.902  0.00  0.00    +0.277 C 
ENDBRANCH   5  12
BRANCH   1  14
ATOM     14  C   UNL     1       2.808  -0.431   2.458  0.00  0.00    -0.039 C 
BRANCH  14  20
ATOM     15  C   UNL     1      -0.019   1.526   0.010  0.00  0.00    +0.005 C 
ATOM     16  C   UNL     1       0.002  -0.004   0.002  0.00  0.00    -0.031 C 
ATOM     17  C   UNL     1       0.721  -0.499  -1.257  0.00  0.00    +0.003 C 
ATOM     18  C   UNL     1       2.177  -0.027  -1.220  0.00  0.00    -0.031 C 
ATOM     19  C   UNL     1       2.839  -0.534   0.063  0.00  0.00    -0.075 C 
ATOM     20  N   UNL     1       2.123  -0.005   1.230  0.00  0.00    +0.383 N 
ATOM     21  C   UNL     1       0.744  -0.512   1.240  0.00  0.00    -0.075 C 
ATOM     22  C   UNL     1       2.924  -0.581  -2.434  0.00  0.00    +0.005 C 
ATOM     23  H   UNL     1       2.109   1.003   1.187  0.00  0.00    -0.081 HD
ENDBRANCH  14  20
ENDBRANCH   1  14
TORSDOF 5
