REMARK  Name = ZINC53100899
REMARK  4 active torsions:
REMARK  status: ('A' for Active; 'I' for Inactive)
REMARK    1  A    between atoms: C_1  and  C_2
REMARK    2  A    between atoms: N_12  and  C_13
REMARK    3  A    between atoms: C_15  and  O_20
REMARK    4  A    between atoms: O_20  and  C_21
REMARK                            x       y       z     vdW  Elec       q    Type
REMARK                         _______ _______ _______ _____ _____    ______ ____
ROOT
ATOM      1  C   UNL     1      -0.019   1.526   0.010  0.00  0.00    +0.007 C 
ATOM      2  C   UNL     1       0.002  -0.004   0.002  0.00  0.00    -0.014 C 
ATOM      3  C   UNL     1      -1.433  -0.534   0.014  0.00  0.00    +0.005 C 
ATOM      4  C   UNL     1      -1.413  -2.063   0.007  0.00  0.00    +0.027 C 
ATOM      5  C   UNL     1      -0.678  -2.569   1.255  0.00  0.00    +0.043 C 
ATOM      6  C   UNL     1       0.762  -2.040   1.234  0.00  0.00    +0.027 C 
ATOM      7  C   UNL     1       0.742  -0.511   1.242  0.00  0.00    +0.005 C 
ATOM      8  C   UNL     1      -0.622  -4.116   1.184  0.00  0.00    +0.102 C 
ATOM      9  S   UNL     1      -1.083  -4.537   2.916  0.00  0.00    -0.088 S 
ATOM     10  C   UNL     1      -1.881  -2.994   3.339  0.00  0.00    +0.155 C 
ATOM     11  N   UNL     1      -1.356  -2.091   2.449  0.00  0.00    -0.317 N 
ATOM     12  N   UNL     1      -2.767  -2.776   4.284  0.00  0.00    -0.225 NA
ATOM     13  H   UNL     1      -1.438  -1.138   2.615  0.00  0.00    +0.149 HD
ENDROOT
BRANCH  12  14
ATOM     14  C   UNL     1      -3.181  -3.806   5.086  0.00  0.00    +0.088 A 
ATOM     15  C   UNL     1      -2.260  -4.749   5.545  0.00  0.00    +0.075 A 
ATOM     16  C   UNL     1      -2.686  -5.788   6.356  0.00  0.00    +0.122 A 
ATOM     17  C   UNL     1      -4.024  -5.890   6.711  0.00  0.00    +0.047 A 
ATOM     18  C   UNL     1      -4.938  -4.956   6.258  0.00  0.00    +0.026 A 
ATOM     19  C   UNL     1      -4.525  -3.913   5.453  0.00  0.00    +0.067 A 
ATOM     20 CL   UNL     1      -5.675  -2.740   4.892  0.00  0.00    -0.081 Cl
BRANCH  16  21
ATOM     21  O   UNL     1      -1.792  -6.708   6.806  0.00  0.00    -0.495 OA
ATOM     22  C   UNL     1      -2.300  -7.753   7.638  0.00  0.00    +0.277 C 
ENDBRANCH  16  21
ENDBRANCH  12  14
TORSDOF 2
