REMARK  Name = ZINC65025269
REMARK  10 active torsions:
REMARK  status: ('A' for Active; 'I' for Inactive)
REMARK    1  A    between atoms: C_1  and  C_2
REMARK    2  A    between atoms: C_9  and  C_11
REMARK    3  A    between atoms: C_13  and  N_23
REMARK    4  A    between atoms: C_16  and  N_17
REMARK    5  A    between atoms: N_23  and  S_24
REMARK    6  A    between atoms: S_24  and  C_27
REMARK    7  A    between atoms: C_30  and  C_33
REMARK    8  A    between atoms: C_33  and  C_34
REMARK    9  A    between atoms: C_34  and  C_35
REMARK   10  A    between atoms: C_34  and  C_36
REMARK                            x       y       z     vdW  Elec       q    Type
REMARK                         _______ _______ _______ _____ _____    ______ ____
ROOT
ATOM      1  C   UNL     1       2.085   0.232   3.324  0.00  0.00    +0.079 A 
ATOM      2  C   UNL     1       2.597  -1.056   3.518  0.00  0.00    +0.044 A 
ATOM      3  C   UNL     1       3.367  -1.294   4.650  0.00  0.00    +0.093 A 
ATOM      4  C   UNL     1       3.602  -0.258   5.545  0.00  0.00    +0.139 A 
ATOM      5  N   UNL     1       3.108   0.947   5.337  0.00  0.00    -0.238 NA
ATOM      6  C   UNL     1       2.373   1.227   4.273  0.00  0.00    +0.133 A 
ENDROOT
BRANCH   1  14
ATOM      7  C   UNL     1      -0.242   1.511   0.135  0.00  0.00    +0.028 C 
ATOM      8  C   UNL     1       0.974   0.685  -0.287  0.00  0.00    +0.073 C 
ATOM      9  C   UNL     1       1.876   1.526  -1.196  0.00  0.00    +0.022 C 
ATOM     10  C   UNL     1       3.156   0.745  -1.502  0.00  0.00    +0.003 C 
ATOM     11  C   UNL     1       3.909   0.467  -0.198  0.00  0.00    +0.019 C 
ATOM     12  C   UNL     1       3.030  -0.386   0.722  0.00  0.00    +0.108 C 
ATOM     13  N   UNL     1       1.737   0.288   0.904  0.00  0.00    -0.295 N 
ATOM     14  C   UNL     1       1.262   0.541   2.140  0.00  0.00    +0.250 C 
ATOM     15  O   UNL     1       0.155   1.024   2.278  0.00  0.00    -0.270 OA
ENDBRANCH   1  14
BRANCH   6  16
ATOM     16  N   UNL     1       1.880   2.509   4.096  0.00  0.00    -0.318 N 
ATOM     17  C   UNL     1       0.532   2.873   4.562  0.00  0.00    +0.087 C 
ATOM     18  C   UNL     1       0.636   4.155   5.394  0.00  0.00    -0.063 C 
ATOM     19  N   UNL     1       1.306   5.197   4.606  0.00  0.00    +0.381 N 
ATOM     20  C   UNL     1       2.690   4.797   4.322  0.00  0.00    -0.063 C 
ATOM     21  C   UNL     1       2.691   3.548   3.442  0.00  0.00    +0.087 C 
ATOM     22  H   UNL     1       0.811   5.330   3.737  0.00  0.00    -0.086 HD
ATOM     23  H   UNL     1       1.307   6.062   5.125  0.00  0.00    -0.086 HD
ENDBRANCH   6  16
BRANCH   3  24
ATOM     24  N   UNL     1       3.900  -2.568   4.886  0.00  0.00    -0.096 NA
BRANCH  24  25
ATOM     25  S   UNL     1       4.817  -2.843   6.238  0.00  0.00    +0.092 S 
ATOM     26  O   UNL     1       6.002  -2.073   6.089  0.00  0.00    -0.148 OA
ATOM     27  O   UNL     1       3.949  -2.698   7.354  0.00  0.00    -0.148 OA
BRANCH  25  28
ATOM     28  C   UNL     1       5.307  -4.535   6.199  0.00  0.00    +0.110 A 
ATOM     29  C   UNL     1       4.510  -5.500   6.786  0.00  0.00    +0.029 A 
ATOM     30  C   UNL     1       4.895  -6.827   6.755  0.00  0.00    +0.005 A 
ATOM     31  C   UNL     1       6.077  -7.190   6.136  0.00  0.00    -0.047 A 
ATOM     32  C   UNL     1       6.873  -6.225   5.548  0.00  0.00    +0.005 A 
ATOM     33  C   UNL     1       6.486  -4.899   5.575  0.00  0.00    +0.029 A 
BRANCH  31  34
ATOM     34  C   UNL     1       6.497  -8.637   6.104  0.00  0.00    +0.038 C 
BRANCH  34  35
ATOM     35  C   UNL     1       5.932  -9.303   4.847  0.00  0.00    -0.013 C 
ATOM     36  C   UNL     1       6.564  -8.670   3.606  0.00  0.00    +0.007 C 
ATOM     37  C   UNL     1       6.252 -10.799   4.876  0.00  0.00    +0.007 C 
ENDBRANCH  34  35
ENDBRANCH  31  34
ENDBRANCH  25  28
ENDBRANCH  24  25
ENDBRANCH   3  24
TORSDOF 7
