REMARK  Name = ZINC15084809
REMARK  5 active torsions:
REMARK  status: ('A' for Active; 'I' for Inactive)
REMARK    1  A    between atoms: C_1  and  C_2
REMARK    2  A    between atoms: C_21  and  C_23
REMARK    3  A    between atoms: C_26  and  O_31
REMARK    4  A    between atoms: C_27  and  O_29
REMARK    5  A    between atoms: O_29  and  C_30
REMARK                            x       y       z     vdW  Elec       q    Type
REMARK                         _______ _______ _______ _____ _____    ______ ____
ROOT
ATOM      1  C   UNL     1      -0.018   1.503   0.010  0.00  0.00    +0.068 C 
ATOM      2  C   UNL     1       0.002  -0.004   0.002  0.00  0.00    +0.066 A 
ATOM      3  C   UNL     1       0.008  -0.810  -1.128  0.00  0.00    +0.023 A 
ATOM      4  C   UNL     1       0.033  -2.116  -0.715  0.00  0.00    +0.136 A 
ATOM      5  N   UNL     1       0.033  -2.117   0.636  0.00  0.00    -0.185 N 
ATOM      6  N   UNL     1       0.023  -0.778   1.062  0.00  0.00    -0.167 NA
ATOM      7  C   UNL     1       0.046  -3.238   1.456  0.00  0.00    +0.232 A 
ATOM      8  N   UNL     1       0.040  -3.212   2.820  0.00  0.00    -0.322 N 
ATOM      9  H   UNL     1       0.027  -2.420   3.380  0.00  0.00    +0.169 HD
ATOM     10  C   UNL     1       0.056  -4.524   3.256  0.00  0.00    +0.068 A 
ATOM     11  C   UNL     1       0.060  -5.123   4.508  0.00  0.00    +0.028 A 
ATOM     12  C   UNL     1       0.078  -6.498   4.611  0.00  0.00    +0.002 A 
ATOM     13  C   UNL     1       0.093  -7.288   3.470  0.00  0.00    +0.002 A 
ATOM     14  C   UNL     1       0.090  -6.712   2.221  0.00  0.00    +0.030 A 
ATOM     15  C   UNL     1       0.071  -5.320   2.099  0.00  0.00    +0.091 A 
ATOM     16  N   UNL     1       0.059  -4.476   1.035  0.00  0.00    -0.211 NA
ATOM     17  N   UNL     1       0.064  -3.175  -1.621  0.00  0.00    -0.270 N 
ATOM     18  C   UNL     1       0.274  -2.891  -2.924  0.00  0.00    +0.219 C 
ATOM     19  O   UNL     1       0.119  -3.767  -3.748  0.00  0.00    -0.275 OA
ATOM     20  C   UNL     1       0.695  -1.524  -3.384  0.00  0.00    +0.109 C 
ATOM     21  C   UNL     1      -0.014  -0.425  -2.585  0.00  0.00    +0.063 C 
ATOM     22  H   UNL     1      -0.061  -4.089  -1.323  0.00  0.00    +0.156 HD
ENDROOT
BRANCH  21  23
ATOM     23  C   UNL     1       0.706   0.885  -2.775  0.00  0.00    -0.036 A 
ATOM     24  C   UNL     1       2.039   0.996  -2.427  0.00  0.00    +0.008 A 
ATOM     25  C   UNL     1       2.704   2.196  -2.599  0.00  0.00    +0.049 A 
ATOM     26  C   UNL     1       2.034   3.291  -3.122  0.00  0.00    +0.158 A 
ATOM     27  C   UNL     1       0.692   3.179  -3.472  0.00  0.00    +0.162 A 
ATOM     28  C   UNL     1       0.033   1.972  -3.302  0.00  0.00    +0.053 A 
BRANCH  27  29
ATOM     29  O   UNL     1       0.029   4.250  -3.986  0.00  0.00    -0.491 OA
ATOM     30  C   UNL     1      -1.346   4.061  -4.323  0.00  0.00    +0.277 C 
ENDBRANCH  27  29
BRANCH  26  31
ATOM     31  O   UNL     1       2.686   4.472  -3.291  0.00  0.00    -0.503 OA
ATOM     32  H   UNL     1       3.108   4.567  -4.156  0.00  0.00    +0.292 HD
ENDBRANCH  26  31
ENDBRANCH  21  23
TORSDOF 3
