REMARK  Name = ZINC61343614
REMARK  8 active torsions:
REMARK  status: ('A' for Active; 'I' for Inactive)
REMARK    1  A    between atoms: C_1  and  C_2
REMARK    2  A    between atoms: C_4  and  S_25
REMARK    3  A    between atoms: C_6  and  N_9
REMARK    4  A    between atoms: C_7  and  C_8
REMARK    5  A    between atoms: C_10  and  C_12
REMARK    6  A    between atoms: C_13  and  C_14
REMARK    7  A    between atoms: N_23  and  C_24
REMARK    8  A    between atoms: S_25  and  N_28
REMARK                            x       y       z     vdW  Elec       q    Type
REMARK                         _______ _______ _______ _____ _____    ______ ____
ROOT
ATOM      1  N   UNL     1       0.053  -2.797   2.391  0.00  0.00    -0.282 N 
ATOM      2  C   UNL     1      -0.031  -4.143   2.384  0.00  0.00    +0.241 C 
ATOM      3  O   UNL     1      -0.028  -4.747   1.327  0.00  0.00    -0.270 OA
ATOM      4  H   UNL     1       0.131  -2.321   3.233  0.00  0.00    +0.155 HD
ENDROOT
BRANCH   1  10
ATOM      5  C   UNL     1       1.209   1.234  -0.172  0.00  0.00    +0.044 C 
ATOM      6  C   UNL     1       0.580  -0.132  -0.085  0.00  0.00    -0.044 A 
ATOM      7  C   UNL     1      -0.025  -0.687  -1.198  0.00  0.00    +0.032 A 
ATOM      8  C   UNL     1      -0.604  -1.940  -1.123  0.00  0.00    +0.107 A 
ATOM      9  C   UNL     1      -0.580  -2.643   0.066  0.00  0.00    +0.052 A 
ATOM     10  C   UNL     1       0.027  -2.089   1.186  0.00  0.00    +0.039 A 
ATOM     11  C   UNL     1       0.612  -0.832   1.105  0.00  0.00    -0.026 A 
ATOM     12  C   UNL     1       1.277  -0.230   2.316  0.00  0.00    +0.046 C 
BRANCH   8  13
ATOM     13  S   UNL     1      -1.373  -2.642  -2.544  0.00  0.00    +0.056 S 
ATOM     14  O   UNL     1      -2.317  -3.591  -2.068  0.00  0.00    -0.153 OA
ATOM     15  O   UNL     1      -1.741  -1.556  -3.384  0.00  0.00    -0.153 OA
BRANCH  13  16
ATOM     16  N   UNL     1      -0.211  -3.497  -3.358  0.00  0.00    -0.204 NA
ATOM     17  H   UNL     1       0.695  -3.531  -3.014  0.00  0.00    +0.144 HD
ATOM     18  H   UNL     1      -0.438  -3.963  -4.178  0.00  0.00    +0.144 HD
ENDBRANCH  13  16
ENDBRANCH   8  13
ENDBRANCH   1  10
BRANCH   2  19
ATOM     19  C   UNL     1      -0.125  -4.876   3.645  0.00  0.00    +0.068 C 
ATOM     20  C   UNL     1      -0.209  -6.224   3.638  0.00  0.00    +0.013 C 
BRANCH  20  21
ATOM     21  C   UNL     1      -0.304  -6.961   4.905  0.00  0.00    -0.025 A 
ATOM     22  C   UNL     1      -0.314  -6.267   6.122  0.00  0.00    +0.010 A 
ATOM     23  C   UNL     1      -0.401  -6.957   7.296  0.00  0.00    +0.024 A 
ATOM     24  C   UNL     1      -0.481  -8.349   7.293  0.00  0.00    +0.033 A 
ATOM     25  C   UNL     1      -0.476  -9.048   6.092  0.00  0.00    -0.026 A 
ATOM     26  C   UNL     1      -0.391  -8.357   4.900  0.00  0.00    +0.013 A 
ATOM     27  C   UNL     1      -0.573 -10.550   6.055  0.00  0.00    +0.038 C 
ATOM     28  C   UNL     1      -0.164 -11.145   7.403  0.00  0.00    +0.024 C 
ATOM     29  C   UNL     1      -0.952 -10.440   8.514  0.00  0.00    +0.105 C 
ATOM     30  N   UNL     1      -0.565  -9.023   8.510  0.00  0.00    -0.333 N 
ATOM     31  C   UNL     1      -0.270  -8.329   9.767  0.00  0.00    +0.129 C 
ENDBRANCH  20  21
ENDBRANCH   2  19
TORSDOF 5
