REMARK  Name = ZINC59166714
REMARK  2 active torsions:
REMARK  status: ('A' for Active; 'I' for Inactive)
REMARK    1  A    between atoms: C_4  and  N_8
REMARK    2  A    between atoms: N_8  and  N_9
REMARK                            x       y       z     vdW  Elec       q    Type
REMARK                         _______ _______ _______ _____ _____    ______ ____
ROOT
ATOM      1  N   UNL     1       3.639  -1.939  -0.045  0.00  0.00    -0.177 NA
ATOM      2  C   UNL     1       4.782  -2.578  -0.159  0.00  0.00    +0.152 C 
ATOM      3  C   UNL     1       6.143  -1.995  -0.181  0.00  0.00    +0.029 A 
ATOM      4  C   UNL     1       6.623  -0.693  -0.096  0.00  0.00    +0.027 A 
ATOM      5  C   UNL     1       7.983  -0.459  -0.147  0.00  0.00    +0.019 A 
ATOM      6  C   UNL     1       8.865  -1.520  -0.283  0.00  0.00    +0.017 A 
ATOM      7  C   UNL     1       8.398  -2.815  -0.368  0.00  0.00    +0.025 A 
ATOM      8  C   UNL     1       7.031  -3.070  -0.318  0.00  0.00    +0.043 A 
ATOM      9  N   UNL     1       6.309  -4.256  -0.381  0.00  0.00    -0.280 N 
ATOM     10  C   UNL     1       4.987  -4.031  -0.287  0.00  0.00    +0.269 C 
ATOM     11  O   UNL     1       4.113  -4.878  -0.307  0.00  0.00    -0.268 OA
ATOM     12 BR   UNL     1       8.643   1.309  -0.033  0.00  0.00    -0.050 Br
ATOM     13  H   UNL     1       6.708  -5.135  -0.476  0.00  0.00    +0.155 HD
ENDROOT
BRANCH   1  14
ATOM     14  N   UNL     1       3.612  -0.650  -0.105  0.00  0.00    -0.236 N 
ATOM     15  H   UNL     1       4.421  -0.158  -0.313  0.00  0.00    +0.174 HD
BRANCH  14  19
ATOM     16  C   UNL     1       0.052   1.394   0.595  0.00  0.00    +0.021 A 
ATOM     17  C   UNL     1       1.205   2.098   0.299  0.00  0.00    +0.023 A 
ATOM     18  C   UNL     1       2.388   1.424   0.066  0.00  0.00    +0.064 A 
ATOM     19  C   UNL     1       2.419   0.034   0.130  0.00  0.00    +0.068 A 
ATOM     20  C   UNL     1       1.259  -0.670   0.428  0.00  0.00    +0.046 A 
ATOM     21  C   UNL     1       0.079   0.011   0.660  0.00  0.00    +0.043 A 
ATOM     22 CL   UNL     1      -1.371  -0.867   1.032  0.00  0.00    -0.083 Cl
ATOM     23 CL   UNL     1       3.834   2.309  -0.307  0.00  0.00    -0.082 Cl
ENDBRANCH  14  19
ENDBRANCH   1  14
TORSDOF 2
