REMARK  Name = ZINC63089514
REMARK  11 active torsions:
REMARK  status: ('A' for Active; 'I' for Inactive)
REMARK    1  A    between atoms: C_1  and  C_2
REMARK    2  A    between atoms: C_2  and  C_3
REMARK    3  A    between atoms: C_2  and  C_4
REMARK    4  A    between atoms: C_2  and  C_5
REMARK    5  A    between atoms: C_8  and  O_11
REMARK    6  A    between atoms: O_11  and  C_12
REMARK    7  A    between atoms: C_12  and  C_13
REMARK    8  A    between atoms: C_16  and  S_20
REMARK    9  A    between atoms: N_18  and  N_19
REMARK   10  A    between atoms: S_20  and  C_21
REMARK   11  A    between atoms: C_21  and  C_22
REMARK                            x       y       z     vdW  Elec       q    Type
REMARK                         _______ _______ _______ _____ _____    ______ ____
ROOT
ATOM      1  C   UNL     1       4.536  -2.000  -6.087  0.00  0.00    +0.169 C 
ATOM      2  N   UNL     1       3.848  -2.728  -6.887  0.00  0.00    -0.169 NA
ATOM      3  N   UNL     1       4.600  -3.124  -8.000  0.00  0.00    -0.236 N 
ATOM      4  C   UNL     1       5.938  -2.533  -7.820  0.00  0.00    +0.251 C 
ATOM      5  N   UNL     1       5.829  -1.801  -6.546  0.00  0.00    -0.222 N 
ATOM      6  H   UNL     1       4.301  -3.676  -8.739  0.00  0.00    +0.171 HD
ENDROOT
BRANCH   5   7
ATOM      7  N   UNL     1       6.810  -1.072  -5.936  0.00  0.00    -0.250 NA
ATOM      8  H   UNL     1       6.479  -0.673  -5.071  0.00  0.00    +0.141 HD
ATOM      9  H   UNL     1       7.635  -1.633  -5.783  0.00  0.00    +0.141 HD
ENDBRANCH   5   7
BRANCH   1  10
ATOM     10  C   UNL     1       4.000  -1.423  -4.801  0.00  0.00    +0.303 C 
BRANCH  10  11
ATOM     11  O   UNL     1       2.639  -1.822  -4.631  0.00  0.00    -0.484 OA
BRANCH  11  15
ATOM     12  C   UNL     1       0.707  -0.490  -1.238  0.00  0.00    -0.042 A 
ATOM     13  C   UNL     1       0.035  -1.284  -2.148  0.00  0.00    +0.008 A 
ATOM     14  C   UNL     1       0.679  -1.732  -3.285  0.00  0.00    +0.046 A 
ATOM     15  C   UNL     1       2.002  -1.383  -3.514  0.00  0.00    +0.121 A 
ATOM     16  C   UNL     1       2.675  -0.585  -2.599  0.00  0.00    +0.046 A 
ATOM     17  C   UNL     1       2.024  -0.136  -1.466  0.00  0.00    +0.008 A 
BRANCH  12  19
ATOM     18  C   UNL     1      -0.019   1.526   0.010  0.00  0.00    +0.015 C 
ATOM     19  C   UNL     1       0.002  -0.004   0.002  0.00  0.00    -0.013 C 
ATOM     20  C   UNL     1       0.742  -0.511   1.242  0.00  0.00    +0.015 C 
ATOM     21  C   UNL     1      -1.433  -0.534   0.013  0.00  0.00    +0.015 C 
ENDBRANCH  12  19
ENDBRANCH  11  15
ENDBRANCH  10  11
ENDBRANCH   1  10
BRANCH   4  22
ATOM     22  S   UNL     1       7.200  -3.832  -7.714  0.00  0.00    -0.113 S 
BRANCH  22  23
ATOM     23  C   UNL     1       6.676  -4.838  -6.298  0.00  0.00    +0.119 C 
BRANCH  23  24
ATOM     24  C   UNL     1       7.667  -5.986  -6.095  0.00  0.00    +0.184 C 
ATOM     25  N   UNL     1       9.023  -5.454  -5.909  0.00  0.00    -0.363 N 
ATOM     26  C   UNL     1       9.762  -5.925  -6.871  0.00  0.00    +0.060 A 
ATOM     27  C   UNL     1      11.180  -5.755  -7.216  0.00  0.00    +0.027 A 
ATOM     28  C   UNL     1      11.681  -6.382  -8.300  0.00  0.00    +0.002 A 
ATOM     29  C   UNL     1      10.898  -7.204  -9.129  0.00  0.00    +0.002 A 
ATOM     30  C   UNL     1       9.588  -7.427  -8.903  0.00  0.00    +0.027 A 
ATOM     31  C   UNL     1       8.934  -6.796  -7.749  0.00  0.00    +0.060 A 
ATOM     32  N   UNL     1       7.714  -6.830  -7.295  0.00  0.00    -0.363 N 
ATOM     33  H   UNL     1       9.315  -4.861  -5.199  0.00  0.00    +0.162 HD
ATOM     34  H   UNL     1       6.972  -7.323  -7.679  0.00  0.00    +0.162 HD
ENDBRANCH  23  24
ENDBRANCH  22  23
ENDBRANCH   4  22
TORSDOF 8
