REMARK  Name = ZINC03070845
REMARK  10 active torsions:
REMARK  status: ('A' for Active; 'I' for Inactive)
REMARK    1  A    between atoms: C_1  and  C_2
REMARK    2  A    between atoms: C_2  and  C_3
REMARK    3  A    between atoms: C_2  and  C_4
REMARK    4  A    between atoms: C_4  and  N_45
REMARK    5  A    between atoms: C_5  and  C_6
REMARK    6  A    between atoms: C_5  and  N_45
REMARK    7  A    between atoms: C_6  and  C_7
REMARK    8  A    between atoms: C_6  and  C_8
REMARK    9  A    between atoms: C_9  and  N_10
REMARK   10  A    between atoms: C_9  and  N_45
REMARK                            x       y       z     vdW  Elec       q    Type
REMARK                         _______ _______ _______ _____ _____    ______ ____
ROOT
ATOM      1  N   UNL     1       0.103   2.015   0.872  0.00  0.00    -0.281 N 
ATOM      2  C   UNL     1       0.233   3.340   1.283  0.00  0.00    +0.046 A 
ATOM      3  C   UNL     1       0.544   4.494   0.575  0.00  0.00    +0.025 A 
ATOM      4  C   UNL     1       0.604   5.713   1.224  0.00  0.00    +0.017 A 
ATOM      5  C   UNL     1       0.351   5.803   2.583  0.00  0.00    +0.019 A 
ATOM      6  C   UNL     1       0.034   4.669   3.305  0.00  0.00    +0.029 A 
ATOM      7  C   UNL     1      -0.029   3.435   2.659  0.00  0.00    +0.049 A 
ATOM      8  C   UNL     1      -0.331   2.069   3.126  0.00  0.00    +0.249 C 
ATOM      9  O   UNL     1      -0.606   1.716   4.254  0.00  0.00    -0.282 OA
ATOM     10  C   UNL     1      -0.222   1.212   1.900  0.00  0.00    +0.290 C 
ATOM     11  O   UNL     1      -0.395   0.012   1.846  0.00  0.00    -0.266 OA
ATOM     12 BR   UNL     1       0.439   7.481   3.451  0.00  0.00    -0.050 Br
ENDROOT
BRANCH   1  13
ATOM     13  C   UNL     1       0.303   1.554  -0.504  0.00  0.00    +0.039 C 
BRANCH  13  14
ATOM     14  N   UNL     1      -1.016   1.236  -1.092  0.00  0.00    +0.391 N 
ATOM     15  H   UNL     1      -1.599   0.783  -0.378  0.00  0.00    -0.079 HD
BRANCH  14  16
ATOM     16  C   UNL     1      -1.682   2.477  -1.539  0.00  0.00    -0.074 C 
BRANCH  16  18
ATOM     17  C   UNL     1      -2.982   4.456  -0.740  0.00  0.00    +0.005 C 
ATOM     18  C   UNL     1      -2.438   3.079  -0.352  0.00  0.00    -0.034 C 
ATOM     19  C   UNL     1      -3.600   2.161   0.031  0.00  0.00    +0.005 C 
ENDBRANCH  16  18
ENDBRANCH  14  16
BRANCH  14  20
ATOM     20  C   UNL     1      -0.851   0.312  -2.234  0.00  0.00    -0.074 C 
BRANCH  20  21
ATOM     21  C   UNL     1      -0.674  -1.108  -1.692  0.00  0.00    -0.034 C 
ATOM     22  C   UNL     1      -1.940  -1.530  -0.944  0.00  0.00    +0.005 C 
ATOM     23  C   UNL     1      -0.425  -2.070  -2.856  0.00  0.00    +0.005 C 
ENDBRANCH  20  21
ENDBRANCH  14  20
ENDBRANCH  13  14
ENDBRANCH   1  13
TORSDOF 6
