REMARK  Name = ZINC39948794
REMARK  7 active torsions:
REMARK  status: ('A' for Active; 'I' for Inactive)
REMARK    1  A    between atoms: C_1  and  C_2
REMARK    2  A    between atoms: N_8  and  C_9
REMARK    3  A    between atoms: C_9  and  C_10
REMARK    4  A    between atoms: C_11  and  C_21
REMARK    5  A    between atoms: N_23  and  N_24
REMARK    6  A    between atoms: C_25  and  C_26
REMARK    7  A    between atoms: C_35  and  O_36
REMARK                            x       y       z     vdW  Elec       q    Type
REMARK                         _______ _______ _______ _____ _____    ______ ____
ROOT
ATOM      1  C   UNL     1       0.603  -0.180   3.835  0.00  0.00    +0.063 A 
ATOM      2  C   UNL     1       0.505  -1.353   4.528  0.00  0.00    +0.170 A 
ATOM      3  N   UNL     1       1.424  -1.347   5.509  0.00  0.00    -0.124 NA
ATOM      4  N   UNL     1       2.088  -0.244   5.471  0.00  0.00    -0.058 NA
ATOM      5  N   UNL     1       1.599   0.531   4.410  0.00  0.00    -0.194 N 
ATOM      6  C   UNL     1       2.051   1.798   4.024  0.00  0.00    +0.240 A 
ATOM      7  C   UNL     1       3.137   2.551   4.657  0.00  0.00    +0.206 A 
ATOM      8  N   UNL     1       3.273   3.684   4.026  0.00  0.00    -0.032 NA
ATOM      9  O   UNL     1       2.312   3.719   2.985  0.00  0.00    -0.239 OA
ATOM     10  N   UNL     1       1.583   2.506   3.035  0.00  0.00    -0.027 NA
ATOM     11  N   UNL     1       3.893   2.129   5.745  0.00  0.00    -0.337 N 
ATOM     12  H   UNL     1       3.719   1.266   6.152  0.00  0.00    +0.144 HD
ATOM     13  H   UNL     1       4.595   2.699   6.098  0.00  0.00    +0.144 HD
ENDROOT
BRANCH   2  14
ATOM     14  C   UNL     1      -0.448  -2.443   4.247  0.00  0.00    +0.285 C 
ATOM     15  O   UNL     1      -1.238  -2.338   3.328  0.00  0.00    -0.267 OA
ATOM     16  N   UNL     1      -0.443  -3.555   5.007  0.00  0.00    -0.202 N 
ATOM     17  H   UNL     1       0.188  -3.639   5.740  0.00  0.00    +0.178 HD
BRANCH  16  18
ATOM     18  N   UNL     1      -1.348  -4.591   4.740  0.00  0.00    -0.187 NA
ATOM     19  C   UNL     1      -1.283  -5.701   5.414  0.00  0.00    +0.142 C 
BRANCH  19  20
ATOM     20  C   UNL     1      -0.355  -5.819   6.547  0.00  0.00    +0.044 A 
ATOM     21  C   UNL     1       0.645  -6.885   6.585  0.00  0.00    -0.006 A 
ATOM     22  C   UNL     1       0.753  -7.822   5.551  0.00  0.00    +0.009 A 
ATOM     23  C   UNL     1       1.700  -8.800   5.625  0.00  0.00    +0.001 A 
ATOM     24  C   UNL     1       2.562  -8.881   6.716  0.00  0.00    +0.001 A 
ATOM     25  C   UNL     1       2.483  -7.986   7.739  0.00  0.00    +0.008 A 
ATOM     26  C   UNL     1       1.520  -6.963   7.696  0.00  0.00    -0.017 A 
ATOM     27  C   UNL     1       1.410  -6.021   8.733  0.00  0.00    +0.012 A 
ATOM     28  C   UNL     1       0.474  -5.036   8.682  0.00  0.00    +0.046 A 
ATOM     29  C   UNL     1      -0.406  -4.914   7.607  0.00  0.00    +0.126 A 
BRANCH  29  30
ATOM     30  O   UNL     1      -1.321  -3.911   7.595  0.00  0.00    -0.506 OA
ATOM     31  H   UNL     1      -2.188  -4.166   7.940  0.00  0.00    +0.292 HD
ENDBRANCH  29  30
ENDBRANCH  19  20
ENDBRANCH  16  18
ENDBRANCH   2  14
BRANCH   1  32
ATOM     32  C   UNL     1      -0.234   0.239   2.654  0.00  0.00    -0.019 C 
BRANCH  32  39
ATOM     33  C   UNL     1      -0.427   1.822   0.343  0.00  0.00    -0.013 C 
ATOM     34  C   UNL     1      -0.341   0.297   0.260  0.00  0.00    -0.071 C 
ATOM     35  C   UNL     1       0.371  -0.103  -1.034  0.00  0.00    -0.016 C 
ATOM     36  C   UNL     1       0.455  -1.631  -1.113  0.00  0.00    -0.003 C 
ATOM     37  C   UNL     1       1.174  -2.157   0.132  0.00  0.00    -0.019 C 
ATOM     38  C   UNL     1       0.432  -1.681   1.383  0.00  0.00    -0.078 C 
ATOM     39  N   UNL     1       0.410  -0.213   1.413  0.00  0.00    +0.385 N 
ATOM     40  H   UNL     1       1.355   0.138   1.380  0.00  0.00    -0.081 HD
ENDBRANCH  32  39
ENDBRANCH   1  32
TORSDOF 6
