REMARK  Name = ZINC48422142
REMARK  2 active torsions:
REMARK  status: ('A' for Active; 'I' for Inactive)
REMARK    1  A    between atoms: C_3  and  C_19
REMARK    2  A    between atoms: C_7  and  C_9
REMARK                            x       y       z     vdW  Elec       q    Type
REMARK                         _______ _______ _______ _____ _____    ______ ____
ROOT
ATOM      1  C   UNL     1       0.222   1.285  -0.583  0.00  0.00    +0.021 C 
ATOM      2  C   UNL     1       1.728   1.629  -0.436  0.00  0.00    +0.033 C 
ATOM      3  C   UNL     1       2.203   0.644   0.653  0.00  0.00    +0.162 C 
ATOM      4  N   UNL     1       1.253  -0.478   0.671  0.00  0.00    -0.289 N 
ATOM      5  C   UNL     1       0.231  -0.249  -0.366  0.00  0.00    +0.108 C 
ATOM      6  C   UNL     1       1.308  -1.540   1.499  0.00  0.00    +0.222 C 
ATOM      7  O   UNL     1       2.250  -1.674   2.252  0.00  0.00    -0.275 OA
ENDROOT
BRANCH   6   8
ATOM      8  C   UNL     1       0.200  -2.561   1.490  0.00  0.00    +0.048 C 
ATOM      9  C   UNL     1      -1.091  -1.916   1.998  0.00  0.00    +0.019 C 
ATOM     10  C   UNL     1      -2.217  -2.952   1.989  0.00  0.00    -0.009 C 
ATOM     11  C   UNL     1      -1.839  -4.124   2.898  0.00  0.00    +0.007 C 
ATOM     12  C   UNL     1      -0.548  -4.768   2.389  0.00  0.00    -0.009 C 
ATOM     13  C   UNL     1       0.577  -3.732   2.399  0.00  0.00    +0.019 C 
ATOM     14  C   UNL     1      -0.760  -5.278   0.962  0.00  0.00    +0.007 C 
ATOM     15  C   UNL     1      -1.138  -4.106   0.053  0.00  0.00    -0.009 C 
ATOM     16  C   UNL     1      -2.429  -3.462   0.562  0.00  0.00    +0.007 C 
ATOM     17  C   UNL     1      -0.012  -3.070   0.063  0.00  0.00    +0.019 C 
ENDBRANCH   6   8
BRANCH   3  18
ATOM     18  C   UNL     1       3.586   0.144   0.323  0.00  0.00    +0.231 C 
ATOM     19  O   UNL     1       3.773  -1.039   0.132  0.00  0.00    -0.274 OA
ATOM     20  N   UNL     1       4.614   1.011   0.239  0.00  0.00    -0.328 N 
ATOM     21  H   UNL     1       4.465   1.957   0.392  0.00  0.00    +0.145 HD
ATOM     22  H   UNL     1       5.504   0.689   0.027  0.00  0.00    +0.145 HD
ENDBRANCH   3  18
TORSDOF 2
