REMARK  Name = ZINC14025991
REMARK  6 active torsions:
REMARK  status: ('A' for Active; 'I' for Inactive)
REMARK    1  A    between atoms: C_1  and  C_2
REMARK    2  A    between atoms: C_2  and  C_3
REMARK    3  A    between atoms: C_3  and  O_4
REMARK    4  A    between atoms: O_4  and  C_5
REMARK    5  A    between atoms: C_10  and  C_11
REMARK    6  A    between atoms: N_13  and  N_14
REMARK                            x       y       z     vdW  Elec       q    Type
REMARK                         _______ _______ _______ _____ _____    ______ ____
ROOT
ATOM      1  C   UNL     1       0.803  -4.752  -1.327  0.00  0.00    +0.267 C 
ATOM      2  O   UNL     1       0.261  -4.219  -0.379  0.00  0.00    -0.268 OA
ATOM      3  N   UNL     1       0.860  -6.096  -1.403  0.00  0.00    -0.202 N 
ATOM      4  H   UNL     1       1.292  -6.521  -2.161  0.00  0.00    +0.178 HD
ENDROOT
BRANCH   3   5
ATOM      5  N   UNL     1       0.295  -6.880  -0.389  0.00  0.00    -0.174 NA
ATOM      6  C   UNL     1       0.350  -8.188  -0.463  0.00  0.00    +0.153 C 
ATOM      7  C   UNL     1      -0.193  -9.170   0.504  0.00  0.00    +0.028 A 
ATOM      8  C   UNL     1      -0.880  -9.043   1.706  0.00  0.00    +0.012 A 
ATOM      9  C   UNL     1      -1.264 -10.174   2.398  0.00  0.00    +0.001 A 
ATOM     10  C   UNL     1      -0.965 -11.429   1.897  0.00  0.00    +0.002 A 
ATOM     11  C   UNL     1      -0.282 -11.566   0.705  0.00  0.00    +0.024 A 
ATOM     12  C   UNL     1       0.112 -10.438  -0.007  0.00  0.00    +0.043 A 
ATOM     13  N   UNL     1       0.797 -10.297  -1.208  0.00  0.00    -0.280 N 
ATOM     14  C   UNL     1       0.962  -9.003  -1.531  0.00  0.00    +0.269 C 
ATOM     15  O   UNL     1       1.519  -8.578  -2.526  0.00  0.00    -0.268 OA
ATOM     16  H   UNL     1       1.113 -11.039  -1.747  0.00  0.00    +0.155 HD
ENDBRANCH   3   5
BRANCH   1  22
ATOM     17  C   UNL     1       1.340  -2.528  -2.320  0.00  0.00    +0.133 A 
ATOM     18  C   UNL     1       1.908  -1.763  -3.328  0.00  0.00    +0.046 A 
ATOM     19  C   UNL     1       2.521  -2.377  -4.402  0.00  0.00    +0.004 A 
ATOM     20  C   UNL     1       2.575  -3.759  -4.482  0.00  0.00    +0.001 A 
ATOM     21  C   UNL     1       2.016  -4.535  -3.491  0.00  0.00    +0.017 A 
ATOM     22  C   UNL     1       1.397  -3.927  -2.395  0.00  0.00    +0.080 A 
BRANCH  17  23
ATOM     23  O   UNL     1       0.738  -1.926  -1.265  0.00  0.00    -0.491 OA
BRANCH  23  24
ATOM     24  C   UNL     1       0.718  -0.497  -1.257  0.00  0.00    +0.229 C 
BRANCH  24  26
ATOM     25  C   UNL     1      -0.019   1.526   0.010  0.00  0.00    +0.007 C 
ATOM     26  C   UNL     1       0.002  -0.004   0.002  0.00  0.00    +0.038 C 
ENDBRANCH  24  26
ENDBRANCH  23  24
ENDBRANCH  17  23
ENDBRANCH   1  22
TORSDOF 5
