REMARK  Name = ZINC43528087
REMARK  11 active torsions:
REMARK  status: ('A' for Active; 'I' for Inactive)
REMARK    1  A    between atoms: C_1  and  C_2
REMARK    2  A    between atoms: C_4  and  C_31
REMARK    3  A    between atoms: C_6  and  C_8
REMARK    4  A    between atoms: C_17  and  C_19
REMARK    5  A    between atoms: C_19  and  N_20
REMARK    6  A    between atoms: N_20  and  C_21
REMARK    7  A    between atoms: C_21  and  N_23
REMARK    8  A    between atoms: N_23  and  C_24
REMARK    9  A    between atoms: C_34  and  N_37
REMARK   10  A    between atoms: N_37  and  C_38
REMARK   11  A    between atoms: N_37  and  C_39
REMARK                            x       y       z     vdW  Elec       q    Type
REMARK                         _______ _______ _______ _____ _____    ______ ____
ROOT
ATOM      1  C   UNL     1       0.159  -2.431   2.626  0.00  0.00    +0.024 C 
ATOM      2  C   UNL     1      -0.505  -3.727   2.158  0.00  0.00    -0.068 C 
ATOM      3  N   UNL     1       0.305  -4.880   2.558  0.00  0.00    +0.383 N 
ATOM      4  C   UNL     1       1.631  -4.817   1.939  0.00  0.00    -0.078 C 
ATOM      5  C   UNL     1       2.367  -3.557   2.400  0.00  0.00    -0.015 C 
ATOM      6  C   UNL     1       1.459  -2.776   3.365  0.00  0.00    -0.007 C 
ATOM      7  C   UNL     1       1.115  -3.689   4.549  0.00  0.00    -0.010 C 
ATOM      8  C   UNL     1       0.420  -4.947   4.017  0.00  0.00    -0.051 C 
ATOM      9  H   UNL     1      -0.151  -5.719   2.234  0.00  0.00    -0.081 HD
ENDROOT
BRANCH   1  15
ATOM     10  C   UNL     1       0.549   2.023   0.645  0.00  0.00    +0.088 C 
ATOM     11  C   UNL     1       0.657   0.527   0.491  0.00  0.00    +0.127 A 
ATOM     12  N   UNL     1       1.019   0.029  -0.673  0.00  0.00    -0.232 NA
ATOM     13  C   UNL     1       1.125  -1.288  -0.845  0.00  0.00    +0.075 A 
ATOM     14  C   UNL     1       0.846  -2.134   0.233  0.00  0.00    +0.052 A 
ATOM     15  C   UNL     1       0.471  -1.563   1.434  0.00  0.00    +0.047 A 
ATOM     16  N   UNL     1       0.393  -0.244   1.527  0.00  0.00    -0.237 NA
BRANCH  13  17
ATOM     17  C   UNL     1       1.531  -1.845  -2.156  0.00  0.00    +0.001 A 
ATOM     18  C   UNL     1       1.634  -3.226  -2.326  0.00  0.00    +0.012 A 
ATOM     19  C   UNL     1       2.011  -3.743  -3.546  0.00  0.00    +0.024 A 
ATOM     20  C   UNL     1       2.290  -2.889  -4.608  0.00  0.00    +0.029 A 
ATOM     21  C   UNL     1       2.189  -1.512  -4.441  0.00  0.00    +0.024 A 
ATOM     22  C   UNL     1       1.806  -0.991  -3.224  0.00  0.00    +0.012 A 
BRANCH  20  23
ATOM     23  N   UNL     1       2.672  -3.414  -5.841  0.00  0.00    -0.336 N 
ATOM     24  C   UNL     1       2.665  -4.864  -6.054  0.00  0.00    +0.129 C 
ATOM     25  C   UNL     1       3.080  -2.517  -6.925  0.00  0.00    +0.129 C 
ENDBRANCH  20  23
ENDBRANCH  13  17
ENDBRANCH   1  15
BRANCH   8  26
ATOM     26  C   UNL     1       1.236  -6.182   4.405  0.00  0.00    +0.088 C 
BRANCH  26  27
ATOM     27  N   UNL     1       0.629  -7.375   3.810  0.00  0.00    -0.328 N 
ATOM     28  H   UNL     1      -0.169  -7.293   3.265  0.00  0.00    +0.148 HD
BRANCH  27  29
ATOM     29  C   UNL     1       1.182  -8.587   4.018  0.00  0.00    +0.134 C 
ATOM     30  S   UNL     1       2.591  -8.732   4.978  0.00  0.00    -0.019 S 
BRANCH  29  31
ATOM     31  N   UNL     1       0.624  -9.685   3.470  0.00  0.00    -0.297 N 
ATOM     32  H   UNL     1      -0.209  -9.611   2.977  0.00  0.00    +0.154 HD
BRANCH  31  33
ATOM     33  C   UNL     1       1.246 -10.931   3.611  0.00  0.00    +0.033 A 
ATOM     34  C   UNL     1       1.733 -11.328   4.849  0.00  0.00    +0.026 A 
ATOM     35  C   UNL     1       2.347 -12.558   4.986  0.00  0.00    +0.040 A 
ATOM     36  C   UNL     1       2.477 -13.394   3.890  0.00  0.00    +0.124 A 
ATOM     37  C   UNL     1       1.992 -13.000   2.655  0.00  0.00    +0.040 A 
ATOM     38  C   UNL     1       1.372 -11.774   2.515  0.00  0.00    +0.026 A 
ATOM     39  F   UNL     1       3.078 -14.597   4.027  0.00  0.00    -0.205 F 
ENDBRANCH  31  33
ENDBRANCH  29  31
ENDBRANCH  27  29
ENDBRANCH  26  27
ENDBRANCH   8  26
TORSDOF 8
