REMARK  Name = ZINC22195821
REMARK  2 active torsions:
REMARK  status: ('A' for Active; 'I' for Inactive)
REMARK    1  A    between atoms: C_4  and  N_7
REMARK    2  A    between atoms: C_8  and  C_19
REMARK                            x       y       z     vdW  Elec       q    Type
REMARK                         _______ _______ _______ _____ _____    ______ ____
ROOT
ATOM      1  N   UNL     1      -0.886   2.058  -3.592  0.00  0.00    -0.245 N 
ATOM      2  C   UNL     1       0.008   1.835  -2.455  0.00  0.00    +0.197 C 
ATOM      3  N   UNL     1       0.874   3.002  -2.253  0.00  0.00    -0.321 N 
ATOM      4  C   UNL     1       0.316   4.273  -2.337  0.00  0.00    +0.041 A 
ATOM      5  C   UNL     1       0.834   5.345  -1.629  0.00  0.00    +0.024 A 
ATOM      6  C   UNL     1       0.252   6.592  -1.754  0.00  0.00    +0.002 A 
ATOM      7  C   UNL     1      -0.845   6.778  -2.581  0.00  0.00    +0.001 A 
ATOM      8  C   UNL     1      -1.375   5.720  -3.290  0.00  0.00    +0.015 A 
ATOM      9  C   UNL     1      -0.801   4.456  -3.170  0.00  0.00    +0.058 A 
ATOM     10  C   UNL     1      -1.345   3.290  -3.888  0.00  0.00    +0.254 C 
ATOM     11  O   UNL     1      -2.201   3.438  -4.739  0.00  0.00    -0.270 OA
ATOM     12  H   UNL     1       1.944   2.862  -2.038  0.00  0.00    +0.148 HD
ENDROOT
BRANCH   2  13
ATOM     13  C   UNL     1      -0.813   1.602  -1.213  0.00  0.00    +0.006 C 
ATOM     14  C   UNL     1      -2.122   1.834  -1.231  0.00  0.00    +0.017 C 
ATOM     15  C   UNL     1      -2.887   1.629   0.016  0.00  0.00    +0.017 A 
ATOM     16  C   UNL     1      -4.277   1.572   0.014  0.00  0.00    +0.011 A 
ATOM     17  C   UNL     1      -4.952   1.365   1.201  0.00  0.00    +0.001 A 
ATOM     18  C   UNL     1      -4.253   1.214   2.386  0.00  0.00    +0.004 A 
ATOM     19  C   UNL     1      -2.871   1.274   2.398  0.00  0.00    +0.046 A 
ATOM     20  C   UNL     1      -2.182   1.488   1.219  0.00  0.00    +0.128 A 
ATOM     21  O   UNL     1      -0.829   1.590   1.201  0.00  0.00    -0.487 OA
ATOM     22  C   UNL     1      -0.147   1.107   0.044  0.00  0.00    +0.263 C 
ENDBRANCH   2  13
BRANCH   1  26
ATOM     23  C   UNL     1      -2.031  -1.174  -5.958  0.00  0.00    +0.000 A 
ATOM     24  C   UNL     1      -2.968  -0.525  -5.176  0.00  0.00    +0.002 A 
ATOM     25  C   UNL     1      -2.592   0.546  -4.390  0.00  0.00    +0.023 A 
ATOM     26  C   UNL     1      -1.270   0.972  -4.386  0.00  0.00    +0.039 A 
ATOM     27  C   UNL     1      -0.332   0.322  -5.177  0.00  0.00    +0.023 A 
ATOM     28  C   UNL     1      -0.714  -0.752  -5.957  0.00  0.00    +0.002 A 
ENDBRANCH   1  26
TORSDOF 2
