REMARK  Name = ZINC65534450
REMARK  6 active torsions:
REMARK  status: ('A' for Active; 'I' for Inactive)
REMARK    1  A    between atoms: C_1  and  O_2
REMARK    2  A    between atoms: O_2  and  C_3
REMARK    3  A    between atoms: C_8  and  C_9
REMARK    4  A    between atoms: C_11  and  C_23
REMARK    5  A    between atoms: N_15  and  C_16
REMARK    6  A    between atoms: C_16  and  C_17
REMARK                            x       y       z     vdW  Elec       q    Type
REMARK                         _______ _______ _______ _____ _____    ______ ____
ROOT
ATOM      1  C   UNL     1       0.119  -2.779  -0.109  0.00  0.00    -0.007 C 
ATOM      2  C   UNL     1       0.402  -3.248   1.331  0.00  0.00    +0.073 C 
ATOM      3  N   UNL     1       0.294  -4.726   1.297  0.00  0.00    -0.327 NA
ATOM      4  C   UNL     1      -0.573  -5.008   0.124  0.00  0.00    +0.007 C 
ATOM      5  N   UNL     1      -0.134  -4.013  -0.891  0.00  0.00    +0.399 N 
ATOM      6  H   UNL     1       1.202  -5.153   1.187  0.00  0.00    +0.120 HD
ATOM      7  H   UNL     1       0.712  -4.322  -1.345  0.00  0.00    -0.078 HD
ENDROOT
BRANCH   1  13
ATOM      8  C   UNL     1      -1.039  -0.658  -0.779  0.00  0.00    +0.125 A 
ATOM      9  C   UNL     1      -2.159   0.160  -0.808  0.00  0.00    +0.049 A 
ATOM     10  C   UNL     1      -3.328  -0.246  -0.194  0.00  0.00    +0.045 A 
ATOM     11  C   UNL     1      -3.382  -1.469   0.452  0.00  0.00    +0.159 A 
ATOM     12  C   UNL     1      -2.264  -2.288   0.483  0.00  0.00    +0.164 A 
ATOM     13  C   UNL     1      -1.095  -1.886  -0.137  0.00  0.00    +0.021 A 
ATOM     14  F   UNL     1      -2.319  -3.482   1.115  0.00  0.00    -0.202 F 
ATOM     15  F   UNL     1      -4.526  -1.864   1.053  0.00  0.00    -0.202 F 
BRANCH   8  17
ATOM     16  C   UNL     1       0.098   1.018  -2.025  0.00  0.00    +0.277 C 
ATOM     17  O   UNL     1       0.112  -0.259  -1.383  0.00  0.00    -0.495 OA
ENDBRANCH   8  17
ENDBRANCH   1  13
BRANCH   2  18
ATOM     18  C   UNL     1       1.789  -2.835   1.750  0.00  0.00    -0.032 A 
ATOM     19  C   UNL     1       2.884  -3.570   1.337  0.00  0.00    +0.005 A 
ATOM     20  C   UNL     1       4.156  -3.191   1.722  0.00  0.00    +0.000 A 
ATOM     21  C   UNL     1       4.333  -2.076   2.520  0.00  0.00    +0.000 A 
ATOM     22  C   UNL     1       3.238  -1.341   2.933  0.00  0.00    +0.000 A 
ATOM     23  C   UNL     1       1.966  -1.717   2.544  0.00  0.00    +0.005 A 
ENDBRANCH   2  18
BRANCH   5  24
ATOM     24  C   UNL     1      -1.196  -3.784  -1.879  0.00  0.00    +0.003 C 
BRANCH  24  25
ATOM     25  C   UNL     1      -1.334  -5.000  -2.759  0.00  0.00    +0.135 A 
ATOM     26  H   UNL     1      -0.817  -6.888  -5.181  0.00  0.00    +0.190 HD
ATOM     27  N   UNL     1      -2.134  -6.040  -2.523  0.00  0.00    -0.222 NA
ATOM     28  C   UNL     1      -2.011  -6.921  -3.482  0.00  0.00    +0.216 A 
ATOM     29  N   UNL     1      -1.113  -6.452  -4.366  0.00  0.00    -0.265 N 
ATOM     30  N   UNL     1      -0.693  -5.204  -3.879  0.00  0.00    -0.160 NA
ENDBRANCH  24  25
ENDBRANCH   5  24
TORSDOF 5
