REMARK  Name = ZINC50831430
REMARK  5 active torsions:
REMARK  status: ('A' for Active; 'I' for Inactive)
REMARK    1  A    between atoms: C_1  and  C_2
REMARK    2  A    between atoms: C_2  and  C_3
REMARK    3  A    between atoms: C_9  and  O_11
REMARK    4  A    between atoms: O_11  and  C_12
REMARK    5  A    between atoms: C_12  and  C_13
REMARK                            x       y       z     vdW  Elec       q    Type
REMARK                         _______ _______ _______ _____ _____    ______ ____
ROOT
ATOM      1  C   UNL     1       1.418  -4.345   1.453  0.00  0.00    +0.158 A 
ATOM      2  N   UNL     1       2.482  -5.113   1.299  0.00  0.00    -0.215 NA
ATOM      3  C   UNL     1       3.163  -5.587   2.329  0.00  0.00    +0.128 A 
ATOM      4  C   UNL     1       2.741  -5.262   3.648  0.00  0.00    +0.047 A 
ATOM      5  C   UNL     1       3.309  -5.651   4.927  0.00  0.00    +0.021 A 
ATOM      6  C   UNL     1       2.732  -5.218   6.058  0.00  0.00    +0.048 A 
ATOM      7  S   UNL     1       1.359  -4.240   5.478  0.00  0.00    -0.077 S 
ATOM      8  C   UNL     1       1.597  -4.439   3.732  0.00  0.00    +0.114 A 
ATOM      9  N   UNL     1       0.981  -4.006   2.650  0.00  0.00    -0.222 NA
ATOM     10  N   UNL     1       4.272  -6.388   2.127  0.00  0.00    -0.343 N 
ATOM     11  H   UNL     1       4.555  -6.606   1.224  0.00  0.00    +0.144 HD
ATOM     12  H   UNL     1       4.768  -6.732   2.886  0.00  0.00    +0.144 HD
ENDROOT
BRANCH   1  13
ATOM     13  C   UNL     1       0.691  -3.841   0.233  0.00  0.00    +0.236 C 
BRANCH  13  14
ATOM     14  O   UNL     1       1.252  -2.591  -0.174  0.00  0.00    -0.369 OA
BRANCH  14  20
ATOM     15  C   UNL     1       0.718  -0.497  -1.257  0.00  0.00    +0.018 C 
ATOM     16  C   UNL     1       2.187  -0.073  -1.207  0.00  0.00    +0.006 C 
ATOM     17  C   UNL     1       2.904  -0.566  -2.466  0.00  0.00    +0.000 C 
ATOM     18  C   UNL     1       2.816  -2.092  -2.538  0.00  0.00    +0.003 C 
ATOM     19  C   UNL     1       1.347  -2.517  -2.587  0.00  0.00    +0.032 C 
ATOM     20  C   UNL     1       0.630  -2.023  -1.329  0.00  0.00    +0.122 C 
BRANCH  15  22
ATOM     21  C   UNL     1      -0.019   1.526   0.010  0.00  0.00    +0.004 C 
ATOM     22  C   UNL     1       0.002  -0.004   0.002  0.00  0.00    +0.003 C 
ENDBRANCH  15  22
ENDBRANCH  14  20
ENDBRANCH  13  14
ENDBRANCH   1  13
TORSDOF 4
