REMARK  Name = ZINC63182537
REMARK  7 active torsions:
REMARK  status: ('A' for Active; 'I' for Inactive)
REMARK    1  A    between atoms: C_1  and  O_2
REMARK    2  A    between atoms: O_2  and  C_3
REMARK    3  A    between atoms: C_3  and  C_5
REMARK    4  A    between atoms: C_5  and  C_7
REMARK    5  A    between atoms: C_5  and  N_17
REMARK    6  A    between atoms: C_7  and  C_8
REMARK    7  A    between atoms: C_18  and  C_20
REMARK                            x       y       z     vdW  Elec       q    Type
REMARK                         _______ _______ _______ _____ _____    ______ ____
ROOT
ATOM      1  C   UNL     1       0.657  -2.104  -1.120  0.00  0.00    +0.186 C 
ENDROOT
BRANCH   1   2
ATOM      2  N   UNL     1       1.354  -2.503  -2.345  0.00  0.00    -0.298 N 
ATOM      3  C   UNL     1       2.700  -2.578  -2.362  0.00  0.00    +0.246 C 
ATOM      4  O   UNL     1       3.335  -2.314  -1.360  0.00  0.00    -0.270 OA
ATOM      5  H   UNL     1       0.847  -2.713  -3.145  0.00  0.00    +0.150 HD
BRANCH   3   6
ATOM      6  C   UNL     1       3.402  -2.981  -3.598  0.00  0.00    +0.051 A 
ATOM      7  C   UNL     1       2.675  -3.278  -4.752  0.00  0.00    +0.014 A 
ATOM      8  C   UNL     1       3.337  -3.653  -5.903  0.00  0.00    +0.001 A 
ATOM      9  C   UNL     1       4.718  -3.735  -5.915  0.00  0.00    +0.001 A 
ATOM     10  C   UNL     1       5.445  -3.442  -4.776  0.00  0.00    +0.016 A 
ATOM     11  C   UNL     1       4.796  -3.060  -3.619  0.00  0.00    +0.030 A 
ATOM     12 BR   UNL     1       5.792  -2.651  -2.064  0.00  0.00    -0.050 Br
ENDBRANCH   3   6
ENDBRANCH   1   2
BRANCH   1  13
ATOM     13  C   UNL     1       0.598  -0.600  -1.043  0.00  0.00    +0.328 C 
ATOM     14  O   UNL     1       1.088   0.070  -1.921  0.00  0.00    -0.249 OA
BRANCH  13  16
ATOM     15  C   UNL     1      -0.017   1.425   0.010  0.00  0.00    +0.280 C 
ATOM     16  O   UNL     1       0.002  -0.004   0.002  0.00  0.00    -0.467 OA
ENDBRANCH  13  16
ENDBRANCH   1  13
BRANCH   1  17
ATOM     17  C   UNL     1      -0.764  -2.670  -1.133  0.00  0.00    +0.067 C 
BRANCH  17  18
ATOM     18  C   UNL     1      -0.705  -4.175  -1.086  0.00  0.00    -0.039 C 
ATOM     19  C   UNL     1      -0.796  -4.958   0.013  0.00  0.00    -0.001 A 
ATOM     20  C   UNL     1      -0.970  -4.655   1.438  0.00  0.00    +0.010 A 
ATOM     21  C   UNL     1      -1.026  -5.676   2.324  0.00  0.00    +0.001 A 
ATOM     22  C   UNL     1      -0.923  -7.013   1.915  0.00  0.00    +0.002 A 
ATOM     23  C   UNL     1      -0.763  -7.370   0.623  0.00  0.00    +0.026 A 
ATOM     24  C   UNL     1      -0.691  -6.378  -0.393  0.00  0.00    +0.043 A 
ATOM     25  N   UNL     1      -0.540  -6.469  -1.692  0.00  0.00    -0.380 N 
ATOM     26  C   UNL     1      -0.539  -5.115  -2.259  0.00  0.00    +0.144 C 
ATOM     27  H   UNL     1      -0.449  -7.293  -2.195  0.00  0.00    +0.160 HD
ENDBRANCH  17  18
ENDBRANCH   1  17
TORSDOF 6
