REMARK  Name = ZINC14506317
REMARK  10 active torsions:
REMARK  status: ('A' for Active; 'I' for Inactive)
REMARK    1  A    between atoms: C_1  and  O_2
REMARK    2  A    between atoms: O_2  and  C_3
REMARK    3  A    between atoms: C_3  and  C_4
REMARK    4  A    between atoms: C_4  and  N_5
REMARK    5  A    between atoms: C_6  and  N_34
REMARK    6  A    between atoms: C_7  and  N_14
REMARK    7  A    between atoms: N_14  and  C_15
REMARK    8  A    between atoms: C_15  and  C_16
REMARK    9  A    between atoms: C_22  and  C_24
REMARK   10  A    between atoms: C_25  and  C_26
REMARK                            x       y       z     vdW  Elec       q    Type
REMARK                         _______ _______ _______ _____ _____    ______ ____
ROOT
ATOM      1  N   UNL     1      -4.056   2.637  -2.745  0.00  0.00    -0.256 N 
ATOM      2  C   UNL     1      -4.231   3.493  -1.719  0.00  0.00    +0.244 C 
ATOM      3  O   UNL     1      -3.720   3.260  -0.638  0.00  0.00    -0.270 OA
ENDROOT
BRANCH   1   6
ATOM      4  N   UNL     1      -1.520  -0.014  -2.942  0.00  0.00    -0.278 N 
ATOM      5  C   UNL     1      -2.161   1.184  -3.157  0.00  0.00    +0.127 A 
ATOM      6  C   UNL     1      -3.373   1.421  -2.541  0.00  0.00    +0.140 A 
ATOM      7  C   UNL     1      -3.912   0.429  -1.700  0.00  0.00    +0.277 A 
ATOM      8  O   UNL     1      -4.979   0.613  -1.139  0.00  0.00    -0.266 OA
ATOM      9  N   UNL     1      -3.241  -0.726  -1.519  0.00  0.00    -0.273 N 
ATOM     10  H   UNL     1      -3.624  -1.431  -0.922  0.00  0.00    +0.173 HD
ATOM     11  C   UNL     1      -2.064  -0.940  -2.132  0.00  0.00    +0.331 A 
ATOM     12  O   UNL     1      -1.480  -1.992  -1.951  0.00  0.00    -0.246 OA
BRANCH   5  13
ATOM     13  N   UNL     1      -1.603   2.133  -3.980  0.00  0.00    -0.343 N 
ATOM     14  H   UNL     1      -0.807   1.922  -4.493  0.00  0.00    +0.144 HD
ATOM     15  H   UNL     1      -2.005   3.013  -4.048  0.00  0.00    +0.144 HD
ENDBRANCH   5  13
BRANCH   4  16
ATOM     16  C   UNL     1      -0.235  -0.280  -3.594  0.00  0.00    +0.156 C 
BRANCH  16  17
ATOM     17  C   UNL     1      -0.479  -0.952  -4.946  0.00  0.00    +0.181 C 
BRANCH  17  19
ATOM     18  C   UNL     1      -1.440  -0.575  -7.110  0.00  0.00    +0.194 C 
ATOM     19  O   UNL     1      -1.162  -0.043  -5.813  0.00  0.00    -0.381 OA
ENDBRANCH  17  19
ENDBRANCH  16  17
ENDBRANCH   4  16
ENDBRANCH   1   6
BRANCH   2  20
ATOM     20  C   UNL     1      -5.033   4.703  -1.903  0.00  0.00    +0.068 C 
ATOM     21  C   UNL     1      -5.207   5.560  -0.876  0.00  0.00    +0.013 C 
BRANCH  21  22
ATOM     22  C   UNL     1      -6.014   6.776  -1.062  0.00  0.00    -0.023 A 
ATOM     23  C   UNL     1      -6.197   7.667   0.001  0.00  0.00    +0.009 A 
ATOM     24  C   UNL     1      -6.953   8.805  -0.179  0.00  0.00    +0.022 A 
ATOM     25  C   UNL     1      -7.533   9.068  -1.410  0.00  0.00    +0.059 A 
ATOM     26  C   UNL     1      -7.357   8.190  -2.468  0.00  0.00    +0.060 A 
ATOM     27  C   UNL     1      -6.596   7.050  -2.303  0.00  0.00    +0.029 A 
ATOM     28 CL   UNL     1      -8.087   8.529  -4.006  0.00  0.00    -0.082 Cl
ATOM     29 CL   UNL     1      -8.484  10.504  -1.627  0.00  0.00    -0.082 Cl
ENDBRANCH  21  22
ENDBRANCH   2  20
BRANCH   1  30
ATOM     30  C   UNL     1      -4.577   2.970  -4.073  0.00  0.00    +0.149 C 
BRANCH  30  31
ATOM     31  C   UNL     1      -5.939   2.349  -4.249  0.00  0.00    -0.030 A 
ATOM     32  C   UNL     1      -6.052   1.038  -4.672  0.00  0.00    +0.005 A 
ATOM     33  C   UNL     1      -7.301   0.467  -4.828  0.00  0.00    +0.000 A 
ATOM     34  C   UNL     1      -8.438   1.210  -4.571  0.00  0.00    +0.000 A 
ATOM     35  C   UNL     1      -8.325   2.523  -4.154  0.00  0.00    +0.000 A 
ATOM     36  C   UNL     1      -7.076   3.092  -3.992  0.00  0.00    +0.005 A 
ENDBRANCH  30  31
ENDBRANCH   1  30
TORSDOF 9
