REMARK  Name = ZINC44864109
REMARK  7 active torsions:
REMARK  status: ('A' for Active; 'I' for Inactive)
REMARK    1  A    between atoms: C_1  and  C_2
REMARK    2  A    between atoms: C_2  and  C_3
REMARK    3  A    between atoms: C_3  and  C_4
REMARK    4  A    between atoms: C_4  and  C_6
REMARK    5  A    between atoms: C_4  and  C_10
REMARK    6  A    between atoms: N_7  and  O_8
REMARK    7  A    between atoms: N_12  and  C_13
REMARK                            x       y       z     vdW  Elec       q    Type
REMARK                         _______ _______ _______ _____ _____    ______ ____
ROOT
ATOM      1  C   UNL     1       0.744  -2.027  -1.261  0.00  0.00    +0.141 C 
ENDROOT
BRANCH   1   2
ATOM      2  C   UNL     1      -0.665  -2.552  -1.364  0.00  0.00    +0.144 C 
ATOM      3  N   UNL     1      -1.156  -2.862  -2.518  0.00  0.00    -0.076 NA
ATOM      4  N   UNL     1      -1.429  -2.700  -0.228  0.00  0.00    -0.343 N 
ATOM      5  H   UNL     1      -1.060  -2.467   0.638  0.00  0.00    +0.144 HD
ATOM      6  H   UNL     1      -2.336  -3.037  -0.294  0.00  0.00    +0.144 HD
BRANCH   3   7
ATOM      7  O   UNL     1      -2.480  -3.354  -2.615  0.00  0.00    -0.408 OA
ATOM      8  H   UNL     1      -2.759  -3.559  -3.518  0.00  0.00    +0.328 HD
ENDBRANCH   3   7
ENDBRANCH   1   2
BRANCH   1   9
ATOM      9  C   UNL     1       1.548  -2.512  -2.440  0.00  0.00    +0.228 C 
ATOM     10  O   UNL     1       2.052  -1.713  -3.201  0.00  0.00    -0.275 OA
ATOM     11  N   UNL     1       1.707  -3.834  -2.650  0.00  0.00    -0.285 N 
ATOM     12  H   UNL     1       1.361  -4.472  -2.006  0.00  0.00    +0.155 HD
BRANCH  11  13
ATOM     13  C   UNL     1       2.370  -4.286  -3.796  0.00  0.00    +0.033 A 
ATOM     14  C   UNL     1       1.960  -5.457  -4.421  0.00  0.00    +0.024 A 
ATOM     15  C   UNL     1       2.615  -5.900  -5.553  0.00  0.00    +0.017 A 
ATOM     16  C   UNL     1       3.680  -5.180  -6.064  0.00  0.00    +0.018 A 
ATOM     17  C   UNL     1       4.091  -4.013  -5.444  0.00  0.00    +0.017 A 
ATOM     18  C   UNL     1       3.436  -3.562  -4.315  0.00  0.00    +0.024 A 
ATOM     19 BR   UNL     1       4.576  -5.791  -7.613  0.00  0.00    -0.050 Br
ENDBRANCH  11  13
ENDBRANCH   1   9
BRANCH   1  20
ATOM     20  C   UNL     1       0.720  -0.498  -1.255  0.00  0.00    +0.020 C 
BRANCH  20  22
ATOM     21  C   UNL     1      -0.013   1.526   0.014  0.00  0.00    +0.004 C 
ATOM     22  C   UNL     1       0.012  -0.004   0.008  0.00  0.00    -0.002 C 
ENDBRANCH  20  22
ENDBRANCH   1  20
TORSDOF 6
