REMARK  Name = ZINC59038752
REMARK  7 active torsions:
REMARK  status: ('A' for Active; 'I' for Inactive)
REMARK    1  A    between atoms: C_1  and  C_2
REMARK    2  A    between atoms: C_6  and  C_8
REMARK    3  A    between atoms: C_8  and  S_9
REMARK    4  A    between atoms: S_9  and  C_10
REMARK    5  A    between atoms: N_16  and  N_17
REMARK    6  A    between atoms: C_18  and  C_19
REMARK    7  A    between atoms: C_18  and  C_20
REMARK                            x       y       z     vdW  Elec       q    Type
REMARK                         _______ _______ _______ _____ _____    ______ ____
ROOT
ATOM      1  C   UNL     1       1.622  -4.015   4.517  0.00  0.00    +0.191 A 
ATOM      2  N   UNL     1       2.655  -4.453   5.295  0.00  0.00    -0.303 N 
ATOM      3  H   UNL     1       3.599  -4.330   5.111  0.00  0.00    +0.171 HD
ATOM      4  C   UNL     1       2.124  -5.095   6.380  0.00  0.00    +0.235 A 
ATOM      5  N   UNL     1       0.818  -5.055   6.275  0.00  0.00    -0.111 NA
ATOM      6  N   UNL     1       0.499  -4.365   5.098  0.00  0.00    -0.121 NA
ATOM      7  N   UNL     1       2.842  -5.686   7.409  0.00  0.00    -0.205 N 
ATOM      8  H   UNL     1       3.812  -5.665   7.398  0.00  0.00    +0.177 HD
ENDROOT
BRANCH   7   9
ATOM      9  N   UNL     1       2.166  -6.313   8.464  0.00  0.00    -0.184 NA
ATOM     10  C   UNL     1       2.839  -6.867   9.430  0.00  0.00    +0.070 C 
ATOM     11  C   UNL     1       4.346  -6.835   9.413  0.00  0.00    +0.068 C 
BRANCH  10  12
ATOM     12  C   UNL     1       2.131  -7.524  10.534  0.00  0.00    +0.035 A 
ATOM     13  C   UNL     1       0.770  -7.668  10.735  0.00  0.00    +0.017 A 
ATOM     14  C   UNL     1       0.342  -8.332  11.862  0.00  0.00    +0.008 A 
ATOM     15  C   UNL     1       1.261  -8.820  12.735  0.00  0.00    +0.046 A 
ATOM     16  S   UNL     1       2.802  -8.351  11.967  0.00  0.00    -0.095 S 
ENDBRANCH  10  12
ENDBRANCH   7   9
BRANCH   1  17
ATOM     17  S   UNL     1       1.770  -3.127   3.002  0.00  0.00    -0.081 S 
BRANCH  17  18
ATOM     18  C   UNL     1       0.054  -2.845   2.489  0.00  0.00    +0.112 C 
BRANCH  18  24
ATOM     19  C   UNL     1      -0.018   1.503   0.010  0.00  0.00    +0.044 C 
ATOM     20  C   UNL     1       0.002  -0.004   0.002  0.00  0.00    -0.050 A 
ATOM     21  C   UNL     1       0.006  -0.689  -1.199  0.00  0.00    +0.003 A 
ATOM     22  C   UNL     1       0.025  -2.071  -1.207  0.00  0.00    +0.001 A 
ATOM     23  C   UNL     1       0.040  -2.768  -0.013  0.00  0.00    +0.004 A 
ATOM     24  C   UNL     1       0.037  -2.084   1.188  0.00  0.00    -0.037 A 
ATOM     25  C   UNL     1       0.023  -0.702   1.195  0.00  0.00    +0.007 A 
ENDBRANCH  18  24
ENDBRANCH  17  18
ENDBRANCH   1  17
TORSDOF 5
