REMARK  Name = ZINC02766816
REMARK  4 active torsions:
REMARK  status: ('A' for Active; 'I' for Inactive)
REMARK    1  A    between atoms: C_3  and  O_29
REMARK    2  A    between atoms: C_4  and  C_8
REMARK    3  A    between atoms: C_13  and  C_26
REMARK    4  A    between atoms: C_15  and  C_23
REMARK                            x       y       z     vdW  Elec       q    Type
REMARK                         _______ _______ _______ _____ _____    ______ ____
ROOT
ATOM      1  C   UNL     1       1.148   3.594   0.010  0.00  0.00    +0.193 C 
ATOM      2  N   UNL     1      -0.142   4.044   0.533  0.00  0.00    -0.321 N 
ATOM      3  C   UNL     1      -0.240   3.812   1.915  0.00  0.00    +0.058 A 
ATOM      4  C   UNL     1      -1.466   3.530   2.634  0.00  0.00    +0.033 A 
ATOM      5  C   UNL     1      -2.765   3.408   2.075  0.00  0.00    -0.031 A 
ATOM      6  C   UNL     1      -3.784   3.139   2.969  0.00  0.00    +0.033 A 
ATOM      7  C   UNL     1      -3.554   2.999   4.326  0.00  0.00    +0.108 A 
ATOM      8  N   UNL     1      -2.341   3.112   4.854  0.00  0.00    -0.239 NA
ATOM      9  C   UNL     1      -1.339   3.365   4.041  0.00  0.00    +0.111 A 
ATOM     10  S   UNL     1       0.391   3.577   4.342  0.00  0.00    -0.062 S 
ATOM     11  C   UNL     1       0.920   3.868   2.682  0.00  0.00    +0.097 A 
ATOM     12  C   UNL     1       2.201   4.109   2.153  0.00  0.00    +0.254 C 
ATOM     13  O   UNL     1       3.168   4.332   2.860  0.00  0.00    -0.270 OA
ATOM     14  N   UNL     1       2.282   4.076   0.795  0.00  0.00    -0.289 N 
ATOM     15  H   UNL     1      -0.300   5.017   0.317  0.00  0.00    +0.148 HD
ATOM     16  H   UNL     1       3.091   4.372   0.349  0.00  0.00    +0.151 HD
ENDROOT
BRANCH   1  20
ATOM     17  C   UNL     1       1.208  -0.681  -0.013  0.00  0.00    +0.019 A 
ATOM     18  C   UNL     1       2.397   0.023  -0.020  0.00  0.00    +0.047 A 
ATOM     19  C   UNL     1       2.380   1.410  -0.013  0.00  0.00    +0.123 A 
ATOM     20  C   UNL     1       1.169   2.087   0.002  0.00  0.00    +0.033 A 
ATOM     21  C   UNL     1      -0.017   1.379   0.010  0.00  0.00    +0.026 A 
ATOM     22  C   UNL     1       0.002  -0.004   0.002  0.00  0.00    +0.018 A 
ATOM     23 BR   UNL     1      -1.623  -0.971   0.012  0.00  0.00    -0.050 Br
BRANCH  19  24
ATOM     24  O   UNL     1       3.548   2.104  -0.020  0.00  0.00    -0.506 OA
ATOM     25  H   UNL     1       3.878   2.310  -0.906  0.00  0.00    +0.292 HD
ENDBRANCH  19  24
ENDBRANCH   1  20
BRANCH   7  26
ATOM     26  C   UNL     1      -4.719   2.708   5.237  0.00  0.00    +0.390 C 
ATOM     27  F   UNL     1      -5.654   3.744   5.143  0.00  0.00    -0.202 F 
ATOM     28  F   UNL     1      -5.319   1.503   4.855  0.00  0.00    -0.202 F 
ENDBRANCH   7  26
BRANCH   5  29
ATOM     29  C   UNL     1      -3.017   3.561   0.597  0.00  0.00    +0.020 C 
ATOM     30  C   UNL     1      -4.473   3.610   0.130  0.00  0.00    +0.009 C 
ATOM     31  C   UNL     1      -3.624   2.367  -0.143  0.00  0.00    +0.009 C 
ENDBRANCH   5  29
TORSDOF 4
