REMARK  Name = ZINC58120733
REMARK  5 active torsions:
REMARK  status: ('A' for Active; 'I' for Inactive)
REMARK    1  A    between atoms: C_7  and  C_11
REMARK    2  A    between atoms: C_11  and  C_12
REMARK    3  A    between atoms: N_14  and  C_15
REMARK    4  A    between atoms: N_19  and  C_20
REMARK    5  A    between atoms: C_20  and  C_21
REMARK                            x       y       z     vdW  Elec       q    Type
REMARK                         _______ _______ _______ _____ _____    ______ ____
ROOT
ATOM      1  C   UNL     1       0.242  -3.584  -1.434  0.00  0.00    +0.223 C 
ATOM      2  O   UNL     1       0.660  -2.912  -2.353  0.00  0.00    -0.275 OA
ATOM      3  N   UNL     1      -0.601  -4.607  -1.676  0.00  0.00    -0.270 N 
ATOM      4  H   UNL     1      -0.935  -5.145  -0.941  0.00  0.00    +0.156 HD
ENDROOT
BRANCH   3   5
ATOM      5  C   UNL     1      -0.993  -4.893  -2.983  0.00  0.00    +0.123 A 
ATOM      6  C   UNL     1      -0.600  -4.229  -4.104  0.00  0.00    +0.065 A 
ATOM      7  C   UNL     1      -1.221  -4.835  -5.200  0.00  0.00    +0.136 A 
ATOM      8  N   UNL     1      -1.958  -5.822  -4.762  0.00  0.00    -0.178 NA
ATOM      9  N   UNL     1      -1.829  -5.885  -3.368  0.00  0.00    -0.246 N 
BRANCH   9  10
ATOM     10  C   UNL     1      -2.486  -6.851  -2.484  0.00  0.00    +0.180 C 
BRANCH  10  11
ATOM     11  C   UNL     1      -3.818  -6.302  -2.042  0.00  0.00    -0.025 A 
ATOM     12  C   UNL     1      -3.903  -5.535  -0.894  0.00  0.00    +0.005 A 
ATOM     13  C   UNL     1      -5.125  -5.031  -0.488  0.00  0.00    +0.002 A 
ATOM     14  C   UNL     1      -6.262  -5.295  -1.229  0.00  0.00    +0.020 A 
ATOM     15  C   UNL     1      -6.177  -6.062  -2.377  0.00  0.00    +0.041 A 
ATOM     16  C   UNL     1      -4.953  -6.561  -2.786  0.00  0.00    +0.025 A 
ATOM     17 CL   UNL     1      -7.605  -6.393  -3.307  0.00  0.00    -0.084 Cl
ENDBRANCH  10  11
ENDBRANCH   9  10
ENDBRANCH   3   5
BRANCH   1  18
ATOM     18  C   UNL     1       0.666  -3.275  -0.021  0.00  0.00    +0.133 C 
BRANCH  18  25
ATOM     19  C   UNL     1      -0.017   1.362   0.009  0.00  0.00    +0.001 A 
ATOM     20  C   UNL     1       1.170   2.083   0.002  0.00  0.00    +0.002 A 
ATOM     21  C   UNL     1       2.386   1.436  -0.013  0.00  0.00    +0.026 A 
ATOM     22  C   UNL     1       2.428   0.046  -0.021  0.00  0.00    +0.047 A 
ATOM     23  C   UNL     1       1.223  -0.681  -0.013  0.00  0.00    +0.003 A 
ATOM     24  C   UNL     1       0.002  -0.004   0.002  0.00  0.00    +0.010 A 
ATOM     25  C   UNL     1       1.604  -2.095  -0.025  0.00  0.00    -0.014 A 
ATOM     26  C   UNL     1       2.945  -2.141  -0.038  0.00  0.00    +0.087 A 
ATOM     27  N   UNL     1       3.455  -0.871  -0.036  0.00  0.00    -0.360 N 
ATOM     28  H   UNL     1       4.399  -0.650  -0.044  0.00  0.00    +0.165 HD
ENDBRANCH  18  25
ENDBRANCH   1  18
TORSDOF 5
