REMARK  Name = ZINC06339759
REMARK  6 active torsions:
REMARK  status: ('A' for Active; 'I' for Inactive)
REMARK    1  A    between atoms: C_4  and  N_7
REMARK    2  A    between atoms: C_8  and  C_10
REMARK    3  A    between atoms: C_10  and  S_11
REMARK    4  A    between atoms: S_11  and  C_12
REMARK    5  A    between atoms: N_17  and  N_18
REMARK    6  A    between atoms: C_19  and  C_20
REMARK                            x       y       z     vdW  Elec       q    Type
REMARK                         _______ _______ _______ _____ _____    ______ ____
ROOT
ATOM      1  C   UNL     1       6.276  -5.205   0.371  0.00  0.00    +0.211 A 
ATOM      2  N   UNL     1       6.553  -6.509   0.466  0.00  0.00    -0.186 NA
ATOM      3  C   UNL     1       7.857  -6.682   0.525  0.00  0.00    +0.232 A 
ATOM      4  N   UNL     1       8.441  -5.465   0.467  0.00  0.00    -0.245 N 
ATOM      5  N   UNL     1       7.400  -4.529   0.362  0.00  0.00    -0.144 NA
ATOM      6  N   UNL     1       8.513  -7.894   0.628  0.00  0.00    -0.205 N 
ATOM      7  H   UNL     1       9.482  -7.919   0.666  0.00  0.00    +0.177 HD
ATOM      8  H   UNL     1       9.392  -5.276   0.490  0.00  0.00    +0.192 HD
ENDROOT
BRANCH   6   9
ATOM      9  N   UNL     1       7.778  -9.085   0.679  0.00  0.00    -0.187 NA
ATOM     10  C   UNL     1       8.394 -10.225   0.776  0.00  0.00    +0.140 C 
BRANCH  10  11
ATOM     11  C   UNL     1       7.622 -11.477   0.830  0.00  0.00    +0.020 A 
ATOM     12  C   UNL     1       8.123 -12.737   0.937  0.00  0.00    +0.093 A 
ATOM     13  N   UNL     1       7.099 -13.639   0.956  0.00  0.00    -0.360 N 
ATOM     14  H   UNL     1       7.208 -14.600   1.026  0.00  0.00    +0.165 HD
ATOM     15  C   UNL     1       5.888 -12.987   0.861  0.00  0.00    +0.047 A 
ATOM     16  C   UNL     1       6.155 -11.610   0.785  0.00  0.00    +0.008 A 
ATOM     17  C   UNL     1       5.105 -10.700   0.686  0.00  0.00    +0.010 A 
ATOM     18  C   UNL     1       3.806 -11.157   0.668  0.00  0.00    +0.001 A 
ATOM     19  C   UNL     1       3.540 -12.517   0.747  0.00  0.00    +0.002 A 
ATOM     20  C   UNL     1       4.569 -13.429   0.836  0.00  0.00    +0.026 A 
ENDBRANCH  10  11
ENDBRANCH   6   9
BRANCH   1  21
ATOM     21  S   UNL     1       4.661  -4.506   0.267  0.00  0.00    -0.075 S 
BRANCH  21  22
ATOM     22  C   UNL     1       4.962  -2.721   0.153  0.00  0.00    +0.173 C 
BRANCH  22  24
ATOM     23  N   UNL     1       3.622  -0.651  -0.037  0.00  0.00    -0.285 N 
ATOM     24  C   UNL     1       3.645  -1.995   0.057  0.00  0.00    +0.227 C 
ATOM     25  O   UNL     1       2.606  -2.620   0.064  0.00  0.00    -0.275 OA
ATOM     26  H   UNL     1       4.452  -0.156  -0.121  0.00  0.00    +0.155 HD
BRANCH  23  30
ATOM     27  C   UNL     1      -0.015   1.381   0.029  0.00  0.00    +0.000 A 
ATOM     28  C   UNL     1       0.140   0.218   0.763  0.00  0.00    +0.002 A 
ATOM     29  C   UNL     1       1.344  -0.457   0.743  0.00  0.00    +0.023 A 
ATOM     30  C   UNL     1       2.400   0.031  -0.015  0.00  0.00    +0.033 A 
ATOM     31  C   UNL     1       2.241   1.198  -0.751  0.00  0.00    +0.023 A 
ATOM     32  C   UNL     1       1.034   1.870  -0.727  0.00  0.00    +0.002 A 
ENDBRANCH  23  30
ENDBRANCH  22  24
ENDBRANCH  21  22
ENDBRANCH   1  21
TORSDOF 6
