REMARK  Name = ZINC61822852
REMARK  5 active torsions:
REMARK  status: ('A' for Active; 'I' for Inactive)
REMARK    1  A    between atoms: C_1  and  C_2
REMARK    2  A    between atoms: C_2  and  C_20
REMARK    3  A    between atoms: C_9  and  C_15
REMARK    4  A    between atoms: C_15  and  N_16
REMARK    5  A    between atoms: N_16  and  C_17
REMARK                            x       y       z     vdW  Elec       q    Type
REMARK                         _______ _______ _______ _____ _____    ______ ____
ROOT
ATOM      1  C   UNL     1      -0.337   0.883   0.321  0.00  0.00    +0.011 C 
ATOM      2  C   UNL     1       0.304   0.558  -1.030  0.00  0.00    -0.032 C 
ATOM      3  C   UNL     1       1.610   1.342  -1.177  0.00  0.00    +0.025 C 
ATOM      4  C   UNL     1       2.554   0.974  -0.029  0.00  0.00    +0.107 C 
ATOM      5  N   UNL     1       2.725  -0.485  -0.007  0.00  0.00    -0.315 N 
ATOM      6  C   UNL     1       1.529  -1.337   0.042  0.00  0.00    +0.107 C 
ATOM      7  C   UNL     1       0.596  -0.942  -1.108  0.00  0.00    +0.025 C 
ATOM      8  C   UNL     1       3.996  -1.050  -0.033  0.00  0.00    +0.123 A 
ATOM      9  C   UNL     1       4.707  -1.201   1.153  0.00  0.00    -0.023 A 
ATOM     10  C   UNL     1       5.970  -1.764   1.113  0.00  0.00    +0.022 A 
ATOM     11  C   UNL     1       6.481  -2.159  -0.117  0.00  0.00    +0.036 A 
ATOM     12  C   UNL     1       5.720  -1.979  -1.255  0.00  0.00    +0.128 A 
ATOM     13  N   UNL     1       4.515  -1.444  -1.186  0.00  0.00    -0.239 NA
ATOM     14 BR   UNL     1       8.202  -2.934  -0.232  0.00  0.00    -0.049 Br
ATOM     15  C   UNL     1      -0.655   0.950  -2.156  0.00  0.00    +0.011 C 
ENDROOT
BRANCH   9  16
ATOM     16  C   UNL     1       4.110  -0.757   2.463  0.00  0.00    -0.043 C 
BRANCH  16  17
ATOM     17  N   UNL     1       3.171  -1.779   2.945  0.00  0.00    +0.384 N 
ATOM     18  H   UNL     1       2.482  -1.966   2.232  0.00  0.00    -0.085 HD
ATOM     19  H   UNL     1       3.676  -2.627   3.155  0.00  0.00    -0.085 HD
BRANCH  17  20
ATOM     20  C   UNL     1       2.501  -1.295   4.159  0.00  0.00    -0.072 C 
ATOM     21  C   UNL     1       2.748  -2.066   5.458  0.00  0.00    -0.017 C 
ATOM     22  C   UNL     1       1.395  -2.170   4.752  0.00  0.00    -0.017 C 
ENDBRANCH  17  20
ENDBRANCH  16  17
ENDBRANCH   9  16
TORSDOF 3
