REMARK  Name = ZINC10219502
REMARK  6 active torsions:
REMARK  status: ('A' for Active; 'I' for Inactive)
REMARK    1  A    between atoms: N_11  and  C_12
REMARK    2  A    between atoms: C_18  and  C_20
REMARK    3  A    between atoms: C_20  and  C_21
REMARK    4  A    between atoms: C_21  and  N_22
REMARK    5  A    between atoms: N_22  and  S_23
REMARK    6  A    between atoms: S_23  and  C_26
REMARK                            x       y       z     vdW  Elec       q    Type
REMARK                         _______ _______ _______ _____ _____    ______ ____
ROOT
ATOM      1  C   UNL     1       8.400   0.360  -7.660  0.00  0.00    +0.095 C 
ATOM      2  C   UNL     1       8.047   1.720  -7.053  0.00  0.00    +0.044 C 
ATOM      3  C   UNL     1       6.556   1.749  -6.705  0.00  0.00    +0.110 C 
ATOM      4  N   UNL     1       6.251   0.604  -5.836  0.00  0.00    -0.301 N 
ATOM      5  C   UNL     1       6.636  -0.743  -6.282  0.00  0.00    +0.110 C 
ATOM      6  C   UNL     1       8.121  -0.744  -6.637  0.00  0.00    +0.044 C 
ATOM      7  C   UNL     1       5.636   0.785  -4.651  0.00  0.00    +0.217 C 
ATOM      8  O   UNL     1       5.328   1.902  -4.293  0.00  0.00    -0.276 OA
ENDROOT
BRANCH   1  19
ATOM      9  C   UNL     1      11.909  -0.193 -11.554  0.00  0.00    +0.002 A 
ATOM     10  C   UNL     1      10.530  -0.253 -11.659  0.00  0.00    +0.002 A 
ATOM     11  C   UNL     1       9.739  -0.087 -10.539  0.00  0.00    +0.028 A 
ATOM     12  C   UNL     1      10.329   0.140  -9.305  0.00  0.00    +0.070 A 
ATOM     13  C   UNL     1      11.720   0.201  -9.199  0.00  0.00    +0.067 A 
ATOM     14  C   UNL     1      12.506   0.033 -10.329  0.00  0.00    +0.028 A 
ATOM     15  N   UNL     1      12.011   0.437  -7.858  0.00  0.00    -0.306 N 
ATOM     16  H   UNL     1      12.899   0.528  -7.478  0.00  0.00    +0.170 HD
ATOM     17  C   UNL     1      10.851   0.521  -7.180  0.00  0.00    +0.328 A 
ATOM     18  O   UNL     1      10.752   0.726  -5.984  0.00  0.00    -0.247 OA
ATOM     19  N   UNL     1       9.819   0.341  -8.024  0.00  0.00    -0.289 N 
ENDBRANCH   1  19
BRANCH   7  20
ATOM     20  C   UNL     1       5.330  -0.400  -3.772  0.00  0.00    +0.113 C 
BRANCH  20  21
ATOM     21  C   UNL     1       4.635   0.078  -2.495  0.00  0.00    +0.115 C 
BRANCH  21  22
ATOM     22  N   UNL     1       4.338  -1.074  -1.640  0.00  0.00    -0.189 NA
ATOM     23  H   UNL     1       4.379  -1.972  -2.005  0.00  0.00    +0.148 HD
BRANCH  22  24
ATOM     24  S   UNL     1       3.931  -0.843  -0.052  0.00  0.00    +0.059 S 
ATOM     25  O   UNL     1       4.904   0.039   0.492  0.00  0.00    -0.153 OA
ATOM     26  O   UNL     1       3.679  -2.130   0.494  0.00  0.00    -0.153 OA
BRANCH  24  27
ATOM     27  C   UNL     1       2.397   0.024  -0.027  0.00  0.00    +0.109 A 
ATOM     28  C   UNL     1       1.207  -0.680  -0.016  0.00  0.00    +0.032 A 
ATOM     29  C   UNL     1       0.002  -0.004   0.002  0.00  0.00    +0.051 A 
ATOM     30  C   UNL     1      -0.017   1.383   0.010  0.00  0.00    +0.162 A 
ATOM     31  C   UNL     1       1.179   2.090   0.002  0.00  0.00    +0.164 A 
ATOM     32  C   UNL     1       2.385   1.406  -0.018  0.00  0.00    +0.078 A 
ATOM     33  O   UNL     1       1.184   3.451   0.018  0.00  0.00    -0.485 OA
ATOM     34  C   UNL     1      -0.040   4.103  -0.340  0.00  0.00    +0.270 C 
ATOM     35  C   UNL     1      -1.189   3.413   0.408  0.00  0.00    +0.270 C 
ATOM     36  O   UNL     1      -1.212   2.035   0.019  0.00  0.00    -0.485 OA
ENDBRANCH  24  27
ENDBRANCH  22  24
ENDBRANCH  21  22
ENDBRANCH  20  21
ENDBRANCH   7  20
TORSDOF 6
