REMARK  Name = ZINC18006835
REMARK  3 active torsions:
REMARK  status: ('A' for Active; 'I' for Inactive)
REMARK    1  A    between atoms: C_11  and  N_15
REMARK    2  A    between atoms: C_12  and  C_13
REMARK    3  A    between atoms: N_15  and  C_16
REMARK                            x       y       z     vdW  Elec       q    Type
REMARK                         _______ _______ _______ _____ _____    ______ ____
ROOT
ATOM      1  C   UNL     1      -5.869   3.465  -2.429  0.00  0.00    +0.000 C 
ATOM      2  C   UNL     1      -5.560   2.060  -2.006  0.00  0.00    +0.001 C 
ATOM      3  C   UNL     1      -4.098   1.759  -1.822  0.00  0.00    +0.010 C 
ATOM      4  C   UNL     1      -3.630   1.982  -0.370  0.00  0.00    +0.045 C 
ATOM      5  C   UNL     1      -3.247   3.483  -0.256  0.00  0.00    +0.061 C 
ATOM      6  C   UNL     1      -3.837   4.364  -1.336  0.00  0.00    +0.015 C 
ATOM      7  C   UNL     1      -5.374   4.383  -1.266  0.00  0.00    +0.001 C 
ATOM      8  S   UNL     1      -1.429   3.375  -0.458  0.00  0.00    -0.105 S 
ATOM      9  C   UNL     1      -1.207   1.637  -0.135  0.00  0.00    +0.079 C 
ATOM     10  C   UNL     1      -2.455   1.107  -0.063  0.00  0.00    +0.061 C 
ENDROOT
BRANCH  10  11
ATOM     11  C   UNL     1      -2.644  -0.264   0.304  0.00  0.00    +0.097 C 
ATOM     12  N   UNL     1      -2.794  -1.352   0.596  0.00  0.00    -0.191 NA
ENDBRANCH  10  11
BRANCH   9  13
ATOM     13  N   UNL     1      -0.011   0.966   0.007  0.00  0.00    -0.312 N 
ATOM     14  H   UNL     1      -0.004  -0.129   0.114  0.00  0.00    +0.152 HD
BRANCH  13  15
ATOM     15  C   UNL     1       1.166   1.661   0.016  0.00  0.00    +0.012 C 
ATOM     16  C   UNL     1       2.119   1.359  -0.890  0.00  0.00    +0.065 C 
ATOM     17  C   UNL     1       3.344   2.038  -0.922  0.00  0.00    +0.158 C 
ATOM     18  O   UNL     1       4.176   1.739  -1.755  0.00  0.00    -0.293 OA
ATOM     19  C   UNL     1       3.639   3.134   0.069  0.00  0.00    +0.079 C 
ATOM     20  C   UNL     1       2.866   2.860   1.363  0.00  0.00    +0.014 C 
ATOM     21  C   UNL     1       1.372   2.752   1.031  0.00  0.00    +0.051 C 
ENDBRANCH  13  15
ENDBRANCH   9  13
TORSDOF 3
