REMARK  Name = ZINC40986201
REMARK  11 active torsions:
REMARK  status: ('A' for Active; 'I' for Inactive)
REMARK    1  A    between atoms: C_1  and  C_2
REMARK    2  A    between atoms: C_2  and  C_3
REMARK    3  A    between atoms: C_3  and  S_4
REMARK    4  A    between atoms: S_4  and  C_7
REMARK    5  A    between atoms: C_10  and  C_14
REMARK    6  A    between atoms: N_16  and  C_17
REMARK    7  A    between atoms: C_17  and  C_18
REMARK    8  A    between atoms: C_18  and  C_20
REMARK    9  A    between atoms: C_18  and  N_28
REMARK   10  A    between atoms: C_23  and  C_26
REMARK   11  A    between atoms: C_26  and  C_27
REMARK                            x       y       z     vdW  Elec       q    Type
REMARK                         _______ _______ _______ _____ _____    ______ ____
ROOT
ATOM      1  C   UNL     1       4.324  -3.081   8.843  0.00  0.00    +0.248 C 
ATOM      2  O   UNL     1       3.358  -3.573   8.293  0.00  0.00    -0.270 OA
ATOM      3  N   UNL     1       5.567  -3.378   8.414  0.00  0.00    -0.312 N 
ATOM      4  H   UNL     1       6.338  -2.986   8.853  0.00  0.00    +0.149 HD
ENDROOT
BRANCH   1   8
ATOM      5  C   UNL     1       3.796  -0.480  12.043  0.00  0.00    +0.272 A 
ATOM      6  N   UNL     1       5.021  -0.758  11.640  0.00  0.00    -0.219 NA
ATOM      7  C   UNL     1       5.234  -1.579  10.627  0.00  0.00    +0.130 A 
ATOM      8  C   UNL     1       4.136  -2.157   9.980  0.00  0.00    +0.092 A 
ATOM      9  C   UNL     1       2.853  -1.833  10.441  0.00  0.00    +0.146 A 
ATOM     10  N   UNL     1       2.732  -1.005  11.466  0.00  0.00    -0.199 NA
ATOM     11 CL   UNL     1       1.446  -2.513   9.685  0.00  0.00    -0.061 Cl
BRANCH   5  12
ATOM     12  S   UNL     1       3.573   0.622  13.399  0.00  0.00    +0.032 S 
ATOM     13  O   UNL     1       2.281   1.180  13.205  0.00  0.00    -0.166 OA
ATOM     14  O   UNL     1       4.729   1.449  13.388  0.00  0.00    -0.166 OA
BRANCH  12  15
ATOM     15  C   UNL     1       3.580  -0.441  14.869  0.00  0.00    +0.175 C 
BRANCH  15  17
ATOM     16  C   UNL     1       3.398  -0.478  17.361  0.00  0.00    +0.005 C 
ATOM     17  C   UNL     1       3.392   0.418  16.121  0.00  0.00    +0.020 C 
ENDBRANCH  15  17
ENDBRANCH  12  15
ENDBRANCH   5  12
ENDBRANCH   1   8
BRANCH   3  18
ATOM     18  C   UNL     1       5.754  -4.295   7.287  0.00  0.00    +0.094 C 
BRANCH  18  19
ATOM     19  C   UNL     1       7.240  -4.371   6.932  0.00  0.00    -0.020 C 
BRANCH  19  20
ATOM     20  N   UNL     1       7.417  -5.214   5.742  0.00  0.00    +0.385 N 
ATOM     21  C   UNL     1       8.848  -5.333   5.437  0.00  0.00    -0.078 C 
ATOM     22  C   UNL     1       9.043  -6.276   4.247  0.00  0.00    -0.019 C 
ATOM     23  C   UNL     1       8.304  -5.711   3.030  0.00  0.00    -0.004 C 
ATOM     24  C   UNL     1       6.826  -5.522   3.384  0.00  0.00    -0.019 C 
ATOM     25  C   UNL     1       6.714  -4.607   4.606  0.00  0.00    -0.078 C 
ATOM     26  H   UNL     1       7.036  -6.131   5.921  0.00  0.00    -0.081 HD
ENDBRANCH  19  20
BRANCH  19  27
ATOM     27  C   UNL     1       8.002  -4.968   8.088  0.00  0.00    -0.059 A 
ATOM     28  C   UNL     1       8.016  -6.338   8.273  0.00  0.00    +0.002 A 
ATOM     29  C   UNL     1       8.714  -6.885   9.333  0.00  0.00    +0.004 A 
ATOM     30  C   UNL     1       9.399  -6.062  10.208  0.00  0.00    -0.048 A 
ATOM     31  C   UNL     1       9.386  -4.692  10.022  0.00  0.00    +0.004 A 
ATOM     32  C   UNL     1       8.691  -4.145   8.959  0.00  0.00    +0.002 A 
BRANCH  30  33
ATOM     33  C   UNL     1      10.160  -6.658  11.364  0.00  0.00    +0.032 C 
ATOM     34  C   UNL     1      11.595  -6.961  10.928  0.00  0.00    +0.009 C 
ENDBRANCH  30  33
ENDBRANCH  19  27
ENDBRANCH  18  19
ENDBRANCH   3  18
TORSDOF 9
