REMARK  Name = ZINC15110068
REMARK  8 active torsions:
REMARK  status: ('A' for Active; 'I' for Inactive)
REMARK    1  A    between atoms: C_1  and  C_2
REMARK    2  A    between atoms: C_2  and  C_3
REMARK    3  A    between atoms: C_2  and  O_4
REMARK    4  A    between atoms: O_4  and  C_5
REMARK    5  A    between atoms: C_7  and  C_13
REMARK    6  A    between atoms: C_10  and  O_11
REMARK    7  A    between atoms: O_11  and  C_12
REMARK    8  A    between atoms: N_24  and  C_25
REMARK                            x       y       z     vdW  Elec       q    Type
REMARK                         _______ _______ _______ _____ _____    ______ ____
ROOT
ATOM      1  C   UNL     1      -3.379  -3.418   0.178  0.00  0.00    +0.068 C 
ATOM      2  C   UNL     1      -4.468  -2.674   0.964  0.00  0.00    +0.109 C 
ATOM      3  C   UNL     1      -4.692  -1.304   0.388  0.00  0.00    +0.219 C 
ATOM      4  O   UNL     1      -5.825  -0.873   0.349  0.00  0.00    -0.275 OA
ATOM      5  N   UNL     1      -3.697  -0.534  -0.086  0.00  0.00    -0.270 N 
ATOM      6  C   UNL     1      -2.405  -1.103  -0.241  0.00  0.00    +0.138 A 
ATOM      7  C   UNL     1      -2.279  -2.458  -0.114  0.00  0.00    +0.041 A 
ATOM      8  S   UNL     1      -0.552  -2.715  -0.390  0.00  0.00    -0.054 S 
ATOM      9  C   UNL     1      -0.126  -1.048  -0.648  0.00  0.00    +0.165 A 
ATOM     10  N   UNL     1      -1.289  -0.438  -0.516  0.00  0.00    -0.209 NA
ATOM     11  N   UNL     1       1.118  -0.502  -0.927  0.00  0.00    -0.294 N 
ATOM     12  H   UNL     1      -3.859   0.394  -0.318  0.00  0.00    +0.156 HD
ATOM     13  H   UNL     1       1.880  -1.082  -1.080  0.00  0.00    +0.154 HD
ENDROOT
BRANCH   1  16
ATOM     14  C   UNL     1      -4.468  -5.788  -2.554  0.00  0.00    +0.163 A 
ATOM     15  C   UNL     1      -3.942  -5.303  -1.368  0.00  0.00    +0.053 A 
ATOM     16  C   UNL     1      -3.952  -3.944  -1.112  0.00  0.00    -0.035 A 
ATOM     17  C   UNL     1      -4.492  -3.068  -2.035  0.00  0.00    +0.008 A 
ATOM     18  C   UNL     1      -5.014  -3.545  -3.223  0.00  0.00    +0.050 A 
ATOM     19  C   UNL     1      -5.007  -4.905  -3.486  0.00  0.00    +0.162 A 
BRANCH  19  20
ATOM     20  O   UNL     1      -5.524  -5.377  -4.652  0.00  0.00    -0.491 OA
ATOM     21  C   UNL     1      -6.060  -4.413  -5.561  0.00  0.00    +0.277 C 
ENDBRANCH  19  20
BRANCH  14  22
ATOM     22  O   UNL     1      -4.459  -7.124  -2.808  0.00  0.00    -0.486 OA
BRANCH  22  24
ATOM     23  C   UNL     1      -4.609  -9.372  -1.933  0.00  0.00    +0.051 C 
ATOM     24  C   UNL     1      -3.997  -7.980  -1.761  0.00  0.00    +0.167 C 
ATOM     25  C   UNL     1      -2.472  -8.082  -1.821  0.00  0.00    +0.051 C 
ENDBRANCH  22  24
ENDBRANCH  14  22
ENDBRANCH   1  16
BRANCH  11  26
ATOM     26  C   UNL     1       1.273   0.886  -0.988  0.00  0.00    +0.033 A 
ATOM     27  C   UNL     1       2.305   1.438  -1.735  0.00  0.00    +0.023 A 
ATOM     28  C   UNL     1       2.453   2.810  -1.798  0.00  0.00    +0.002 A 
ATOM     29  C   UNL     1       1.581   3.633  -1.109  0.00  0.00    +0.000 A 
ATOM     30  C   UNL     1       0.555   3.086  -0.360  0.00  0.00    +0.002 A 
ATOM     31  C   UNL     1       0.399   1.715  -0.297  0.00  0.00    +0.023 A 
ENDBRANCH  11  26
TORSDOF 5
