REMARK  Name = ZINC17079437
REMARK  8 active torsions:
REMARK  status: ('A' for Active; 'I' for Inactive)
REMARK    1  A    between atoms: C_1  and  C_2
REMARK    2  A    between atoms: C_2  and  C_16
REMARK    3  A    between atoms: N_3  and  N_4
REMARK    4  A    between atoms: N_4  and  S_5
REMARK    5  A    between atoms: S_5  and  C_8
REMARK    6  A    between atoms: C_11  and  O_14
REMARK    7  A    between atoms: O_14  and  C_15
REMARK    8  A    between atoms: C_21  and  O_22
REMARK                            x       y       z     vdW  Elec       q    Type
REMARK                         _______ _______ _______ _____ _____    ______ ____
ROOT
ATOM      1  C   UNL     1       2.413   1.325  -0.014  0.00  0.00    +0.068 C 
ATOM      2  C   UNL     1       1.098   2.061   0.003  0.00  0.00    +0.068 C 
ATOM      3  N   UNL     1      -0.017   1.397   0.010  0.00  0.00    -0.170 NA
ENDROOT
BRANCH   2   4
ATOM      4  C   UNL     1       1.078   3.535   0.011  0.00  0.00    +0.042 A 
ATOM      5  C   UNL     1       2.276   4.253   0.009  0.00  0.00    +0.033 A 
ATOM      6  C   UNL     1       2.251   5.633   0.012  0.00  0.00    +0.043 A 
ATOM      7  C   UNL     1       1.041   6.309   0.026  0.00  0.00    +0.043 A 
ATOM      8  C   UNL     1      -0.151   5.608   0.034  0.00  0.00    +0.084 A 
ATOM      9  C   UNL     1      -0.142   4.222   0.026  0.00  0.00    +0.144 A 
ATOM     10 CL   UNL     1      -1.660   6.466   0.053  0.00  0.00    -0.080 Cl
ATOM     11 CL   UNL     1       3.740   6.525   0.004  0.00  0.00    -0.083 Cl
BRANCH   9  12
ATOM     12  O   UNL     1      -1.313   3.533   0.033  0.00  0.00    -0.505 OA
ATOM     13  H   UNL     1      -1.644   3.328   0.918  0.00  0.00    +0.292 HD
ENDBRANCH   9  12
ENDBRANCH   2   4
BRANCH   3  14
ATOM     14  N   UNL     1       0.002  -0.004   0.002  0.00  0.00    -0.136 N 
ATOM     15  H   UNL     1       0.849  -0.478  -0.009  0.00  0.00    +0.197 HD
BRANCH  14  16
ATOM     16  S   UNL     1      -1.421  -0.852   0.011  0.00  0.00    +0.086 S 
ATOM     17  O   UNL     1      -1.078  -2.222  -0.145  0.00  0.00    -0.149 OA
ATOM     18  O   UNL     1      -2.170  -0.375   1.121  0.00  0.00    -0.149 OA
BRANCH  16  19
ATOM     19  C   UNL     1      -2.313  -0.387  -1.436  0.00  0.00    +0.110 A 
ATOM     20  C   UNL     1      -3.192   0.679  -1.392  0.00  0.00    +0.032 A 
ATOM     21  C   UNL     1      -3.888   1.049  -2.526  0.00  0.00    +0.047 A 
ATOM     22  C   UNL     1      -3.713   0.342  -3.707  0.00  0.00    +0.120 A 
ATOM     23  C   UNL     1      -2.835  -0.732  -3.747  0.00  0.00    +0.047 A 
ATOM     24  C   UNL     1      -2.137  -1.094  -2.611  0.00  0.00    +0.032 A 
BRANCH  22  25
ATOM     25  O   UNL     1      -4.401   0.700  -4.823  0.00  0.00    -0.495 OA
ATOM     26  C   UNL     1      -5.288   1.815  -4.709  0.00  0.00    +0.277 C 
ENDBRANCH  22  25
ENDBRANCH  16  19
ENDBRANCH  14  16
ENDBRANCH   3  14
TORSDOF 6
