REMARK  Name = ZINC36740794
REMARK  7 active torsions:
REMARK  status: ('A' for Active; 'I' for Inactive)
REMARK    1  A    between atoms: C_4  and  C_7
REMARK    2  A    between atoms: C_7  and  C_9
REMARK    3  A    between atoms: C_13  and  N_14
REMARK    4  A    between atoms: C_15  and  C_17
REMARK    5  A    between atoms: C_17  and  O_18
REMARK    6  A    between atoms: O_18  and  C_19
REMARK    7  A    between atoms: C_24  and  C_25
REMARK                            x       y       z     vdW  Elec       q    Type
REMARK                         _______ _______ _______ _____ _____    ______ ____
ROOT
ATOM      1  C   UNL     1       3.609  -2.147  -0.033  0.00  0.00    +0.054 A 
ATOM      2  C   UNL     1       4.800  -2.977   0.009  0.00  0.00    -0.024 A 
ATOM      3  C   UNL     1       4.551  -4.304  -0.014  0.00  0.00    -0.005 A 
ATOM      4  S   UNL     1       2.788  -4.429  -0.088  0.00  0.00    -0.077 S 
ATOM      5  C   UNL     1       2.384  -2.800  -0.084  0.00  0.00    +0.083 A 
ATOM      6  C   UNL     1       5.561  -5.409   0.015  0.00  0.00    +0.043 C 
ATOM      7  C   UNL     1       6.939  -4.812  -0.304  0.00  0.00    +0.005 C 
ATOM      8  C   UNL     1       7.148  -3.561   0.554  0.00  0.00    +0.005 C 
ATOM      9  C   UNL     1       6.223  -2.441   0.074  0.00  0.00    +0.037 C 
ENDROOT
BRANCH   5  10
ATOM     10  N   UNL     1       1.119  -2.236  -0.124  0.00  0.00    -0.277 N 
ATOM     11  C   UNL     1       0.028  -3.024  -0.059  0.00  0.00    +0.255 C 
ATOM     12  O   UNL     1       0.152  -4.226   0.035  0.00  0.00    -0.272 OA
ATOM     13  H   UNL     1       1.019  -1.274  -0.200  0.00  0.00    +0.155 HD
BRANCH  11  14
ATOM     14  C   UNL     1      -1.348  -2.410  -0.104  0.00  0.00    +0.324 C 
BRANCH  14  15
ATOM     15  O   UNL     1      -2.333  -3.442  -0.020  0.00  0.00    -0.482 OA
BRANCH  15  16
ATOM     16  C   UNL     1      -3.633  -3.057  -0.046  0.00  0.00    +0.133 A 
ATOM     17  C   UNL     1      -3.959  -1.713  -0.157  0.00  0.00    +0.046 A 
ATOM     18  C   UNL     1      -5.283  -1.322  -0.183  0.00  0.00    +0.004 A 
ATOM     19  C   UNL     1      -6.294  -2.265  -0.100  0.00  0.00    +0.001 A 
ATOM     20  C   UNL     1      -5.989  -3.604   0.010  0.00  0.00    +0.017 A 
ATOM     21  C   UNL     1      -4.653  -4.014   0.032  0.00  0.00    +0.078 A 
BRANCH  21  22
ATOM     22  C   UNL     1      -4.319  -5.447   0.144  0.00  0.00    +0.245 C 
ATOM     23  O   UNL     1      -3.155  -5.800   0.168  0.00  0.00    -0.270 OA
ATOM     24  N   UNL     1      -5.303  -6.365   0.219  0.00  0.00    -0.325 N 
ATOM     25  H   UNL     1      -6.231  -6.083   0.199  0.00  0.00    +0.145 HD
ATOM     26  H   UNL     1      -5.083  -7.307   0.292  0.00  0.00    +0.145 HD
ENDBRANCH  21  22
ENDBRANCH  15  16
ENDBRANCH  14  15
ENDBRANCH  11  14
ENDBRANCH   5  10
BRANCH   1  27
ATOM     27  C   UNL     1       3.695  -0.685  -0.015  0.00  0.00    +0.196 C 
ATOM     28  O   UNL     1       3.781  -0.093   1.045  0.00  0.00    -0.287 OA
BRANCH  27  32
ATOM     29  C   UNL     1       3.650   1.489  -3.665  0.00  0.00    +0.000 A 
ATOM     30  C   UNL     1       3.636   2.167  -2.459  0.00  0.00    +0.001 A 
ATOM     31  C   UNL     1       3.651   1.467  -1.270  0.00  0.00    +0.012 A 
ATOM     32  C   UNL     1       3.679   0.072  -1.286  0.00  0.00    +0.022 A 
ATOM     33  C   UNL     1       3.692  -0.606  -2.506  0.00  0.00    +0.012 A 
ATOM     34  C   UNL     1       3.678   0.106  -3.688  0.00  0.00    +0.001 A 
ENDBRANCH  27  32
ENDBRANCH   1  27
TORSDOF 7
