REMARK  Name = ZINC59875674
REMARK  12 active torsions:
REMARK  status: ('A' for Active; 'I' for Inactive)
REMARK    1  A    between atoms: C_1  and  C_2
REMARK    2  A    between atoms: C_2  and  C_3
REMARK    3  A    between atoms: C_3  and  C_5
REMARK    4  A    between atoms: C_3  and  C_6
REMARK    5  A    between atoms: C_9  and  C_12
REMARK    6  A    between atoms: C_12  and  C_14
REMARK    7  A    between atoms: C_12  and  N_19
REMARK    8  A    between atoms: C_20  and  C_22
REMARK    9  A    between atoms: C_22  and  C_23
REMARK   10  A    between atoms: C_23  and  C_24
REMARK   11  A    between atoms: C_24  and  C_25
REMARK   12  A    between atoms: C_25  and  C_26
REMARK                            x       y       z     vdW  Elec       q    Type
REMARK                         _______ _______ _______ _____ _____    ______ ____
ROOT
ATOM      1  N   UNL     1       2.337  -6.615  -0.195  0.00  0.00    -0.304 N 
ATOM      2  C   UNL     1       2.360  -7.819   0.410  0.00  0.00    +0.214 C 
ATOM      3  O   UNL     1       1.450  -8.602   0.237  0.00  0.00    -0.276 OA
ATOM      4  H   UNL     1       3.066  -5.989  -0.056  0.00  0.00    +0.150 HD
ENDROOT
BRANCH   1   5
ATOM      5  C   UNL     1       1.213  -6.252  -1.060  0.00  0.00    +0.140 C 
BRANCH   5   9
ATOM      6  C   UNL     1       0.847  -1.998  -1.206  0.00  0.00    -0.045 A 
ATOM      7  C   UNL     1      -0.286  -2.787  -1.141  0.00  0.00    +0.004 A 
ATOM      8  C   UNL     1      -0.167  -4.164  -1.094  0.00  0.00    +0.006 A 
ATOM      9  C   UNL     1       1.084  -4.751  -1.113  0.00  0.00    -0.022 A 
ATOM     10  C   UNL     1       2.217  -3.962  -1.179  0.00  0.00    +0.006 A 
ATOM     11  C   UNL     1       2.098  -2.585  -1.230  0.00  0.00    +0.004 A 
BRANCH   6  12
ATOM     12  C   UNL     1       0.718  -0.497  -1.257  0.00  0.00    +0.016 C 
ATOM     13  C   UNL     1      -0.089  -0.097  -2.493  0.00  0.00    +0.012 C 
BRANCH  12  15
ATOM     14  C   UNL     1      -0.019   1.526   0.010  0.00  0.00    +0.004 C 
ATOM     15  C   UNL     1       0.002  -0.004   0.002  0.00  0.00    +0.004 C 
ENDBRANCH  12  15
ENDBRANCH   6  12
ENDBRANCH   5   9
BRANCH   5  16
ATOM     16  C   UNL     1       1.456  -6.783  -2.449  0.00  0.00    +0.014 A 
ATOM     17  C   UNL     1       0.577  -7.343  -3.315  0.00  0.00    +0.013 A 
ATOM     18  C   UNL     1       1.028  -7.763  -4.552  0.00  0.00    +0.008 A 
ATOM     19  C   UNL     1       2.338  -7.604  -4.862  0.00  0.00    +0.045 A 
ATOM     20  S   UNL     1       2.977  -6.833  -3.384  0.00  0.00    -0.099 S 
ENDBRANCH   5  16
ENDBRANCH   1   5
BRANCH   2  21
ATOM     21  C   UNL     1       3.517  -8.194   1.301  0.00  0.00    +0.096 C 
BRANCH  21  22
ATOM     22  C   UNL     1       3.297  -9.602   1.858  0.00  0.00    +0.009 C 
BRANCH  22  23
ATOM     23  C   UNL     1       4.471  -9.982   2.762  0.00  0.00    +0.002 C 
BRANCH  23  24
ATOM     24  C   UNL     1       4.252 -11.390   3.318  0.00  0.00    +0.016 C 
BRANCH  24  25
ATOM     25  C   UNL     1       5.426 -11.770   4.223  0.00  0.00    +0.069 C 
ATOM     26  C   UNL     1       5.221 -13.170   4.839  0.00  0.00    +0.108 C 
ATOM     27  C   UNL     1       6.499 -14.011   4.895  0.00  0.00    +0.105 C 
ATOM     28  C   UNL     1       7.738 -13.296   4.314  0.00  0.00    +0.093 C 
ATOM     29  S   UNL     1       6.965 -12.026   3.238  0.00  0.00    -0.154 S 
ATOM     30  N   UNL     1       6.193 -15.182   4.057  0.00  0.00    -0.294 N 
ATOM     31  C   UNL     1       4.946 -15.064   3.581  0.00  0.00    +0.300 C 
ATOM     32  O   UNL     1       4.431 -15.894   2.856  0.00  0.00    -0.253 OA
ATOM     33  N   UNL     1       4.326 -13.951   3.970  0.00  0.00    -0.294 N 
ATOM     34  H   UNL     1       6.797 -15.920   3.878  0.00  0.00    +0.151 HD
ATOM     35  H   UNL     1       3.423 -13.700   3.720  0.00  0.00    +0.151 HD
ENDBRANCH  24  25
ENDBRANCH  23  24
ENDBRANCH  22  23
ENDBRANCH  21  22
ENDBRANCH   2  21
TORSDOF 10
