REMARK  Name = ZINC34933283
REMARK  8 active torsions:
REMARK  status: ('A' for Active; 'I' for Inactive)
REMARK    1  A    between atoms: C_1  and  C_2
REMARK    2  A    between atoms: C_5  and  C_8
REMARK    3  A    between atoms: C_8  and  N_9
REMARK    4  A    between atoms: N_9  and  C_10
REMARK    5  A    between atoms: C_10  and  C_11
REMARK    6  A    between atoms: C_14  and  S_17
REMARK    7  A    between atoms: S_17  and  N_20
REMARK    8  A    between atoms: N_23  and  C_24
REMARK                            x       y       z     vdW  Elec       q    Type
REMARK                         _______ _______ _______ _____ _____    ______ ____
ROOT
ATOM      1  N   UNL     1       1.447  -4.746  -0.032  0.00  0.00    -0.277 N 
ATOM      2  C   UNL     1       2.079  -4.956  -1.204  0.00  0.00    +0.303 C 
ATOM      3  O   UNL     1       3.230  -5.346  -1.212  0.00  0.00    -0.253 OA
ATOM      4  N   UNL     1       1.434  -4.733  -2.366  0.00  0.00    -0.294 N 
ATOM      5  H   UNL     1       0.515  -4.422  -2.359  0.00  0.00    +0.151 HD
ENDROOT
BRANCH   4   6
ATOM      6  C   UNL     1       2.120  -4.961  -3.640  0.00  0.00    +0.037 C 
ATOM      7  C   UNL     1       3.354  -4.060  -3.723  0.00  0.00    +0.029 C 
ATOM      8  C   UNL     1       4.071  -4.299  -5.053  0.00  0.00    -0.008 C 
ATOM      9  C   UNL     1       3.123  -3.973  -6.209  0.00  0.00    +0.007 C 
ATOM     10  C   UNL     1       1.890  -4.874  -6.126  0.00  0.00    -0.008 C 
ATOM     11  C   UNL     1       1.173  -4.636  -4.796  0.00  0.00    +0.029 C 
ATOM     12  C   UNL     1       2.321  -6.339  -6.218  0.00  0.00    +0.007 C 
ATOM     13  C   UNL     1       3.269  -6.665  -5.062  0.00  0.00    -0.008 C 
ATOM     14  C   UNL     1       4.503  -5.764  -5.145  0.00  0.00    +0.007 C 
ATOM     15  C   UNL     1       2.552  -6.426  -3.731  0.00  0.00    +0.029 C 
ENDBRANCH   4   6
BRANCH   1  16
ATOM     16  C   UNL     1       0.059  -4.275  -0.021  0.00  0.00    +0.144 C 
BRANCH  16  21
ATOM     17  C   UNL     1      -0.018   1.503   0.010  0.00  0.00    +0.044 C 
ATOM     18  C   UNL     1       0.002  -0.004   0.002  0.00  0.00    -0.050 A 
ATOM     19  C   UNL     1       0.006  -0.689  -1.199  0.00  0.00    +0.003 A 
ATOM     20  C   UNL     1       0.025  -2.071  -1.206  0.00  0.00    +0.005 A 
ATOM     21  C   UNL     1       0.040  -2.768  -0.013  0.00  0.00    -0.030 A 
ATOM     22  C   UNL     1       0.037  -2.084   1.188  0.00  0.00    +0.005 A 
ATOM     23  C   UNL     1       0.023  -0.702   1.195  0.00  0.00    +0.003 A 
ENDBRANCH  16  21
ENDBRANCH   1  16
BRANCH   1  24
ATOM     24  C   UNL     1       2.148  -4.988   1.232  0.00  0.00    +0.144 C 
BRANCH  24  25
ATOM     25  C   UNL     1       1.932  -6.416   1.660  0.00  0.00    -0.030 A 
ATOM     26  C   UNL     1       0.851  -6.743   2.458  0.00  0.00    +0.007 A 
ATOM     27  C   UNL     1       0.653  -8.053   2.851  0.00  0.00    +0.029 A 
ATOM     28  C   UNL     1       1.535  -9.037   2.446  0.00  0.00    +0.105 A 
ATOM     29  C   UNL     1       2.615  -8.711   1.648  0.00  0.00    +0.029 A 
ATOM     30  C   UNL     1       2.811  -7.401   1.251  0.00  0.00    +0.007 A 
BRANCH  28  31
ATOM     31  S   UNL     1       1.283 -10.707   2.948  0.00  0.00    +0.056 S 
ATOM     32  O   UNL     1       2.551 -11.345   2.887  0.00  0.00    -0.153 OA
ATOM     33  O   UNL     1       0.510 -10.661   4.139  0.00  0.00    -0.153 OA
BRANCH  31  34
ATOM     34  N   UNL     1       0.335 -11.427   1.796  0.00  0.00    -0.204 NA
ATOM     35  H   UNL     1       0.035 -10.917   1.028  0.00  0.00    +0.144 HD
ATOM     36  H   UNL     1       0.081 -12.358   1.890  0.00  0.00    +0.144 HD
ENDBRANCH  31  34
ENDBRANCH  28  31
ENDBRANCH  24  25
ENDBRANCH   1  24
TORSDOF 7
