REMARK  Name = ZINC33937047
REMARK  14 active torsions:
REMARK  status: ('A' for Active; 'I' for Inactive)
REMARK    1  A    between atoms: C_1  and  C_2
REMARK    2  A    between atoms: C_2  and  C_3
REMARK    3  A    between atoms: C_3  and  C_5
REMARK    4  A    between atoms: C_3  and  N_17
REMARK    5  A    between atoms: N_9  and  C_10
REMARK    6  A    between atoms: C_10  and  C_11
REMARK    7  A    between atoms: N_17  and  C_18
REMARK    8  A    between atoms: N_17  and  C_27
REMARK    9  A    between atoms: C_18  and  C_19
REMARK   10  A    between atoms: C_22  and  O_25
REMARK   11  A    between atoms: O_25  and  C_26
REMARK   12  A    between atoms: C_27  and  C_28
REMARK   13  A    between atoms: C_31  and  C_41
REMARK   14  A    between atoms: C_33  and  C_40
REMARK                            x       y       z     vdW  Elec       q    Type
REMARK                         _______ _______ _______ _____ _____    ______ ____
ROOT
ATOM      1  N   UNL     1      -0.869   0.182   3.629  0.00  0.00    +0.392 N 
ATOM      2  H   UNL     1      -1.806   0.516   3.797  0.00  0.00    -0.080 HD
ENDROOT
BRANCH   1   3
ATOM      3  C   UNL     1      -0.884  -1.283   3.523  0.00  0.00    +0.003 C 
BRANCH   3   4
ATOM      4  C   UNL     1      -1.574  -1.868   4.729  0.00  0.00    +0.138 A 
ATOM      5  N   UNL     1      -2.699  -1.458   5.262  0.00  0.00    -0.115 NA
ATOM      6  N   UNL     1      -2.957  -2.211   6.275  0.00  0.00    -0.023 NA
ATOM      7  N   UNL     1      -2.025  -3.091   6.402  0.00  0.00    -0.044 NA
ATOM      8  N   UNL     1      -1.157  -2.915   5.464  0.00  0.00    -0.228 N 
BRANCH   8   9
ATOM      9  C   UNL     1       0.057  -3.706   5.243  0.00  0.00    +0.178 C 
BRANCH   9  10
ATOM     10  C   UNL     1       1.218  -3.086   6.022  0.00  0.00    +0.140 C 
ATOM     11  C   UNL     1       2.490  -3.958   5.875  0.00  0.00    +0.035 C 
ATOM     12  C   UNL     1       3.602  -2.904   6.134  0.00  0.00    +0.031 C 
ATOM     13  C   UNL     1       2.989  -1.626   5.522  0.00  0.00    +0.160 C 
ATOM     14  O   UNL     1       1.569  -1.810   5.464  0.00  0.00    -0.375 OA
ENDBRANCH   9  10
ENDBRANCH   8   9
ENDBRANCH   3   4
BRANCH   3  16
ATOM     15  C   UNL     1      -0.648  -2.277   1.243  0.00  0.00    +0.002 C 
ATOM     16  C   UNL     1      -1.636  -1.695   2.256  0.00  0.00    -0.011 C 
ENDBRANCH   3  16
ENDBRANCH   1   3
BRANCH   1  17
ATOM     17  C   UNL     1       0.001   0.583   4.743  0.00  0.00    -0.042 C 
BRANCH  17  18
ATOM     18  C   UNL     1      -0.276   2.020   5.103  0.00  0.00    -0.064 A 
ATOM     19  C   UNL     1       0.516   3.027   4.583  0.00  0.00    +0.005 A 
ATOM     20  C   UNL     1       0.266   4.345   4.912  0.00  0.00    +0.046 A 
ATOM     21  C   UNL     1      -0.783   4.658   5.765  0.00  0.00    +0.120 A 
ATOM     22  C   UNL     1      -1.576   3.646   6.286  0.00  0.00    +0.046 A 
ATOM     23  C   UNL     1      -1.325   2.330   5.949  0.00  0.00    +0.005 A 
BRANCH  21  24
ATOM     24  O   UNL     1      -1.031   5.954   6.091  0.00  0.00    -0.495 OA
ATOM     25  C   UNL     1      -2.127   6.202   6.974  0.00  0.00    +0.277 C 
ENDBRANCH  21  24
ENDBRANCH  17  18
ENDBRANCH   1  17
BRANCH   1  26
ATOM     26  C   UNL     1      -0.360   0.758   2.378  0.00  0.00    -0.036 C 
BRANCH  26  27
ATOM     27  C   UNL     1      -1.516   1.079   1.466  0.00  0.00    +0.001 A 
ATOM     28  C   UNL     1      -2.694   1.499   1.990  0.00  0.00    +0.017 A 
ATOM     29  C   UNL     1      -3.798   1.803   1.077  0.00  0.00    +0.002 A 
ATOM     30  C   UNL     1      -5.036   2.241   1.559  0.00  0.00    -0.041 A 
ATOM     31  C   UNL     1      -6.045   2.516   0.681  0.00  0.00    +0.007 A 
ATOM     32  C   UNL     1      -5.853   2.365  -0.686  0.00  0.00    -0.048 A 
ATOM     33  C   UNL     1      -4.642   1.935  -1.183  0.00  0.00    +0.029 A 
ATOM     34  C   UNL     1      -3.599   1.649  -0.308  0.00  0.00    +0.050 A 
ATOM     35  N   UNL     1      -2.377   1.218  -0.777  0.00  0.00    -0.322 N 
ATOM     36  H   UNL     1      -2.242   1.113  -1.732  0.00  0.00    +0.169 HD
ATOM     37  C   UNL     1      -1.367   0.947   0.069  0.00  0.00    +0.251 A 
ATOM     38  O   UNL     1      -0.299   0.572  -0.382  0.00  0.00    -0.268 OA
ATOM     39  C   UNL     1      -6.981   2.675  -1.636  0.00  0.00    +0.044 C 
ATOM     40  C   UNL     1      -5.255   2.407   3.041  0.00  0.00    +0.044 C 
ENDBRANCH  26  27
ENDBRANCH   1  26
TORSDOF 10
