REMARK  Name = ZINC33271163
REMARK  7 active torsions:
REMARK  status: ('A' for Active; 'I' for Inactive)
REMARK    1  A    between atoms: C_1  and  C_2
REMARK    2  A    between atoms: C_2  and  O_3
REMARK    3  A    between atoms: O_3  and  C_4
REMARK    4  A    between atoms: C_6  and  C_12
REMARK    5  A    between atoms: C_9  and  O_10
REMARK    6  A    between atoms: O_10  and  C_11
REMARK    7  A    between atoms: C_23  and  C_28
REMARK                            x       y       z     vdW  Elec       q    Type
REMARK                         _______ _______ _______ _____ _____    ______ ____
ROOT
ATOM      1  C   UNL     1      -3.446   3.450   5.014  0.00  0.00    +0.107 C 
ATOM      2  C   UNL     1      -4.652   2.567   5.290  0.00  0.00    +0.049 C 
ATOM      3  C   UNL     1      -5.922   3.425   5.504  0.00  0.00    +0.036 C 
ATOM      4  C   UNL     1      -6.778   2.507   6.406  0.00  0.00    +0.161 C 
ATOM      5  O   UNL     1      -5.895   1.565   7.027  0.00  0.00    -0.372 OA
ATOM      6  C   UNL     1      -4.532   1.848   6.644  0.00  0.00    +0.155 C 
ATOM      7  C   UNL     1      -3.938   2.737   7.704  0.00  0.00    +0.003 A 
ATOM      8  C   UNL     1      -3.978   2.300   9.021  0.00  0.00    +0.011 A 
ATOM      9  C   UNL     1      -3.450   3.078  10.032  0.00  0.00    -0.050 A 
ATOM     10  C   UNL     1      -2.873   4.301   9.741  0.00  0.00    +0.005 A 
ATOM     11  C   UNL     1      -2.828   4.744   8.435  0.00  0.00    +0.023 A 
ATOM     12  C   UNL     1      -3.361   3.961   7.417  0.00  0.00    +0.033 A 
ATOM     13  N   UNL     1      -3.304   4.428   6.099  0.00  0.00    -0.336 N 
ATOM     14  C   UNL     1      -3.501   2.591  11.457  0.00  0.00    +0.044 C 
ATOM     15  H   UNL     1      -3.157   5.492   5.864  0.00  0.00    +0.147 HD
ENDROOT
BRANCH   1  18
ATOM     16  C   UNL     1      -0.548   1.458   3.635  0.00  0.00    +0.162 A 
ATOM     17  C   UNL     1      -1.688   2.241   3.707  0.00  0.00    +0.055 A 
ATOM     18  C   UNL     1      -2.206   2.598   4.938  0.00  0.00    -0.023 A 
ATOM     19  C   UNL     1      -1.587   2.175   6.100  0.00  0.00    +0.009 A 
ATOM     20  C   UNL     1      -0.449   1.393   6.035  0.00  0.00    +0.050 A 
ATOM     21  C   UNL     1       0.071   1.027   4.804  0.00  0.00    +0.162 A 
BRANCH  21  22
ATOM     22  O   UNL     1       1.188   0.253   4.739  0.00  0.00    -0.491 OA
ATOM     23  C   UNL     1       1.769  -0.152   5.980  0.00  0.00    +0.277 C 
ENDBRANCH  21  22
BRANCH  16  24
ATOM     24  O   UNL     1      -0.038   1.106   2.425  0.00  0.00    -0.489 OA
BRANCH  24  26
ATOM     25  C   UNL     1      -0.013   1.086   0.008  0.00  0.00    +0.048 C 
ATOM     26  C   UNL     1      -0.729   1.579   1.267  0.00  0.00    +0.226 C 
ENDBRANCH  24  26
ENDBRANCH  16  24
ENDBRANCH   1  18
TORSDOF 4
