REMARK  Name = ZINC00063598
REMARK  2 active torsions:
REMARK  status: ('A' for Active; 'I' for Inactive)
REMARK    1  A    between atoms: C_4  and  C_7
REMARK    2  A    between atoms: N_13  and  C_14
REMARK                            x       y       z     vdW  Elec       q    Type
REMARK                         _______ _______ _______ _____ _____    ______ ____
ROOT
ATOM      1  C   UNL     1      -2.668   3.733  -0.247  0.00  0.00    +0.232 C 
ATOM      2  N   UNL     1      -1.290   3.230  -0.285  0.00  0.00    -0.224 NA
ATOM      3  C   UNL     1      -1.048   1.955  -0.136  0.00  0.00    +0.213 C 
ATOM      4  N   UNL     1      -2.027   1.068   0.109  0.00  0.00    -0.185 NA
ATOM      5  C   UNL     1      -3.236   1.470   0.454  0.00  0.00    +0.190 C 
ATOM      6  N   UNL     1      -3.468   2.820   0.585  0.00  0.00    -0.245 N 
ATOM      7  N   UNL     1      -4.236   0.565   0.677  0.00  0.00    -0.331 N 
ATOM      8  N   UNL     1       0.255   1.506  -0.227  0.00  0.00    -0.328 N 
ATOM      9  H   UNL     1      -4.061  -0.385   0.582  0.00  0.00    +0.145 HD
ATOM     10  H   UNL     1      -5.121   0.872   0.930  0.00  0.00    +0.145 HD
ATOM     11  H   UNL     1       0.451   0.563  -0.115  0.00  0.00    +0.145 HD
ATOM     12  H   UNL     1       0.972   2.134  -0.407  0.00  0.00    +0.145 HD
ENDROOT
BRANCH   6  13
ATOM     13  C   UNL     1      -4.430   3.307   1.476  0.00  0.00    +0.057 A 
ATOM     14  C   UNL     1      -5.775   3.275   1.135  0.00  0.00    +0.025 A 
ATOM     15  C   UNL     1      -6.723   3.752   2.019  0.00  0.00    +0.002 A 
ATOM     16  C   UNL     1      -6.332   4.271   3.240  0.00  0.00    +0.002 A 
ATOM     17  C   UNL     1      -4.993   4.310   3.582  0.00  0.00    +0.022 A 
ATOM     18  C   UNL     1      -4.040   3.829   2.704  0.00  0.00    +0.062 A 
ATOM     19 CL   UNL     1      -2.359   3.878   3.134  0.00  0.00    -0.082 Cl
ENDBRANCH   6  13
BRANCH   1  23
ATOM     20  C   UNL     1      -4.279   3.858  -4.202  0.00  0.00    +0.000 A 
ATOM     21  C   UNL     1      -2.910   3.902  -4.011  0.00  0.00    +0.000 A 
ATOM     22  C   UNL     1      -2.389   3.861  -2.732  0.00  0.00    +0.007 A 
ATOM     23  C   UNL     1      -3.236   3.777  -1.643  0.00  0.00    -0.005 A 
ATOM     24  C   UNL     1      -4.605   3.728  -1.834  0.00  0.00    +0.007 A 
ATOM     25  C   UNL     1      -5.126   3.773  -3.113  0.00  0.00    +0.000 A 
ENDBRANCH   1  23
TORSDOF 2
