REMARK  Name = ZINC33899976
REMARK  8 active torsions:
REMARK  status: ('A' for Active; 'I' for Inactive)
REMARK    1  A    between atoms: C_1  and  O_2
REMARK    2  A    between atoms: O_2  and  C_3
REMARK    3  A    between atoms: C_8  and  C_9
REMARK    4  A    between atoms: N_17  and  C_20
REMARK    5  A    between atoms: C_24  and  N_26
REMARK    6  A    between atoms: C_29  and  C_31
REMARK    7  A    between atoms: C_29  and  C_38
REMARK    8  A    between atoms: C_31  and  C_32
REMARK                            x       y       z     vdW  Elec       q    Type
REMARK                         _______ _______ _______ _____ _____    ______ ____
ROOT
ATOM      1  C   UNL     1      -0.180  -3.020  -0.431  0.00  0.00    -0.023 C 
ATOM      2  C   UNL     1       0.211  -2.866   1.036  0.00  0.00    +0.077 C 
ATOM      3  C   UNL     1       1.328  -3.977   1.058  0.00  0.00    +0.086 C 
ATOM      4  C   UNL     1       2.054  -3.647   2.261  0.00  0.00    +0.229 C 
ATOM      5  O   UNL     1       2.600  -4.412   3.026  0.00  0.00    -0.275 OA
ATOM      6  N   UNL     1       1.991  -2.279   2.349  0.00  0.00    -0.210 N 
ATOM      7  C   UNL     1       1.062  -1.724   1.493  0.00  0.00    +0.229 C 
ATOM      8  O   UNL     1       0.956  -0.561   1.169  0.00  0.00    -0.275 OA
ATOM      9  C   UNL     1       0.681  -5.126   0.413  0.00  0.00    +0.048 C 
ATOM     10  N   UNL     1      -0.233  -4.506  -0.618  0.00  0.00    +0.396 N 
ATOM     11  H   UNL     1      -1.175  -4.837  -0.471  0.00  0.00    -0.083 HD
ATOM     12  H   UNL     1       0.073  -4.745  -1.550  0.00  0.00    -0.083 HD
ENDROOT
BRANCH   1  18
ATOM     13  C   UNL     1      -1.619  -1.094  -1.145  0.00  0.00    +0.122 A 
ATOM     14  C   UNL     1      -2.862  -0.529  -1.387  0.00  0.00    +0.046 A 
ATOM     15  C   UNL     1      -4.009  -1.268  -1.171  0.00  0.00    +0.004 A 
ATOM     16  C   UNL     1      -3.918  -2.570  -0.712  0.00  0.00    +0.000 A 
ATOM     17  C   UNL     1      -2.680  -3.135  -0.469  0.00  0.00    +0.005 A 
ATOM     18  C   UNL     1      -1.530  -2.401  -0.690  0.00  0.00    -0.019 A 
BRANCH  13  20
ATOM     19  C   UNL     1      -0.656   0.970  -1.827  0.00  0.00    +0.277 C 
ATOM     20  O   UNL     1      -0.489  -0.369  -1.358  0.00  0.00    -0.495 OA
ENDBRANCH  13  20
ENDBRANCH   1  18
BRANCH   6  21
ATOM     21  C   UNL     1       2.778  -1.521   3.227  0.00  0.00    +0.046 A 
ATOM     22  C   UNL     1       3.688  -2.150   4.066  0.00  0.00    +0.024 A 
ATOM     23  C   UNL     1       4.462  -1.401   4.930  0.00  0.00    +0.004 A 
ATOM     24  C   UNL     1       4.332  -0.024   4.960  0.00  0.00    +0.033 A 
ATOM     25  C   UNL     1       3.426   0.606   4.126  0.00  0.00    +0.128 A 
ATOM     26  C   UNL     1       2.654  -0.138   3.255  0.00  0.00    +0.056 A 
BRANCH  25  27
ATOM     27  N   UNL     1       3.290   2.079   4.161  0.00  0.00    +0.056 N 
ATOM     28  O   UNL     1       3.970   2.731   4.919  0.00  0.00    -0.126 OA
ATOM     29  O   UNL     1       2.499   2.630   3.432  0.00  0.00    -0.126 OA
ENDBRANCH  25  27
ENDBRANCH   6  21
BRANCH   9  30
ATOM     30  C   UNL     1      -0.095  -5.929   1.425  0.00  0.00    +0.346 C 
ATOM     31  O   UNL     1      -1.313  -5.958   1.376  0.00  0.00    -0.248 OA
ATOM     32  O   UNL     1       0.495  -6.550   2.293  0.00  0.00    -0.248 OA
ENDBRANCH   9  30
BRANCH   9  33
ATOM     33  C   UNL     1       1.724  -6.005  -0.281  0.00  0.00    +0.003 C 
BRANCH  33  34
ATOM     34  C   UNL     1       1.015  -7.087  -1.099  0.00  0.00    -0.012 C 
ATOM     35  C   UNL     1       0.361  -8.096  -0.152  0.00  0.00    +0.003 C 
ATOM     36  C   UNL     1      -0.347  -9.178  -0.970  0.00  0.00    +0.000 C 
ATOM     37  C   UNL     1       0.673  -9.897  -1.856  0.00  0.00    +0.000 C 
ATOM     38  C   UNL     1       1.327  -8.888  -2.803  0.00  0.00    +0.000 C 
ATOM     39  C   UNL     1       2.035  -7.806  -1.985  0.00  0.00    +0.003 C 
ENDBRANCH  33  34
ENDBRANCH   9  33
TORSDOF 7
