REMARK  Name = ZINC20755644
REMARK  8 active torsions:
REMARK  status: ('A' for Active; 'I' for Inactive)
REMARK    1  A    between atoms: C_1  and  O_2
REMARK    2  A    between atoms: O_2  and  C_3
REMARK    3  A    between atoms: C_7  and  C_9
REMARK    4  A    between atoms: C_20  and  O_25
REMARK    5  A    between atoms: O_25  and  C_26
REMARK    6  A    between atoms: C_26  and  C_27
REMARK    7  A    between atoms: C_27  and  O_28
REMARK    8  A    between atoms: O_28  and  C_29
REMARK                            x       y       z     vdW  Elec       q    Type
REMARK                         _______ _______ _______ _____ _____    ______ ____
ROOT
ATOM      1  C   UNL     1      -0.142  11.925   3.126  0.00  0.00    +0.105 C 
ATOM      2  C   UNL     1      -1.328  11.210   3.750  0.00  0.00    +0.029 C 
ATOM      3  C   UNL     1      -1.975  11.868   4.976  0.00  0.00    +0.033 C 
ATOM      4  C   UNL     1      -2.516  10.651   5.729  0.00  0.00    -0.030 C 
ATOM      5  C   UNL     1      -1.807   9.573   5.419  0.00  0.00    -0.023 C 
ATOM      6  C   UNL     1      -0.728   9.970   4.477  0.00  0.00    +0.049 C 
ATOM      7  C   UNL     1      -0.211   9.044   3.446  0.00  0.00    -0.016 A 
ATOM      8  C   UNL     1      -0.264   7.674   3.589  0.00  0.00    +0.051 A 
ATOM      9  C   UNL     1       0.261   6.848   2.606  0.00  0.00    +0.121 A 
ATOM     10  C   UNL     1       0.829   7.403   1.468  0.00  0.00    +0.047 A 
ATOM     11  C   UNL     1       0.871   8.773   1.314  0.00  0.00    +0.027 A 
ATOM     12  C   UNL     1       0.352   9.608   2.296  0.00  0.00    +0.032 A 
ATOM     13  N   UNL     1       0.391  10.997   2.105  0.00  0.00    -0.336 N 
ATOM     14  H   UNL     1       0.827  11.393   1.176  0.00  0.00    +0.147 HD
ENDROOT
BRANCH   1  19
ATOM     15  C   UNL     1       2.868  11.542   5.377  0.00  0.00    +0.120 A 
ATOM     16  C   UNL     1       2.827  12.729   6.095  0.00  0.00    +0.045 A 
ATOM     17  C   UNL     1       1.827  13.649   5.849  0.00  0.00    +0.004 A 
ATOM     18  C   UNL     1       0.870  13.390   4.885  0.00  0.00    +0.006 A 
ATOM     19  C   UNL     1       0.906  12.206   4.172  0.00  0.00    -0.024 A 
ATOM     20  C   UNL     1       1.904  11.283   4.414  0.00  0.00    +0.051 A 
BRANCH  15  22
ATOM     21  C   UNL     1       4.810  10.968   6.623  0.00  0.00    +0.277 C 
ATOM     22  O   UNL     1       3.851  10.635   5.618  0.00  0.00    -0.495 OA
ENDBRANCH  15  22
ENDBRANCH   1  19
BRANCH   9  23
ATOM     23  O   UNL     1       0.214   5.497   2.755  0.00  0.00    -0.489 OA
BRANCH  23  24
ATOM     24  C   UNL     1       0.768   4.709   1.700  0.00  0.00    +0.270 C 
BRANCH  24  25
ATOM     25  C   UNL     1       0.625   3.225   2.043  0.00  0.00    +0.270 C 
BRANCH  25  26
ATOM     26  O   UNL     1      -0.761   2.878   2.087  0.00  0.00    -0.489 OA
BRANCH  26  27
ATOM     27  C   UNL     1      -1.064   1.586   2.381  0.00  0.00    +0.121 A 
ATOM     28  C   UNL     1      -2.390   1.180   2.440  0.00  0.00    +0.045 A 
ATOM     29  C   UNL     1      -2.695  -0.134   2.739  0.00  0.00    +0.004 A 
ATOM     30  C   UNL     1      -1.682  -1.043   2.980  0.00  0.00    +0.000 A 
ATOM     31  C   UNL     1      -0.361  -0.641   2.921  0.00  0.00    +0.004 A 
ATOM     32  C   UNL     1      -0.050   0.671   2.623  0.00  0.00    +0.045 A 
ENDBRANCH  26  27
ENDBRANCH  25  26
ENDBRANCH  24  25
ENDBRANCH  23  24
ENDBRANCH   9  23
TORSDOF 7
