REMARK  Name = ZINC05680104
REMARK  5 active torsions:
REMARK  status: ('A' for Active; 'I' for Inactive)
REMARK    1  A    between atoms: C_1  and  C_2
REMARK    2  A    between atoms: C_5  and  C_9
REMARK    3  A    between atoms: C_6  and  C_8
REMARK    4  A    between atoms: C_9  and  C_11
REMARK    5  A    between atoms: C_11  and  N_12
REMARK                            x       y       z     vdW  Elec       q    Type
REMARK                         _______ _______ _______ _____ _____    ______ ____
ROOT
ATOM      1  N   UNL     1      -1.538   0.176  -3.446  0.00  0.00    -0.216 N 
ATOM      2  C   UNL     1      -1.369   0.775  -2.248  0.00  0.00    +0.251 C 
ATOM      3  O   UNL     1      -2.133   0.764  -1.307  0.00  0.00    -0.272 OA
ATOM      4  C   UNL     1      -0.027   1.461  -2.329  0.00  0.00    +0.139 C 
ATOM      5  C   UNL     1       0.922   0.929  -1.266  0.00  0.00    +0.040 C 
ATOM      6  C   UNL     1       0.474   1.402   0.121  0.00  0.00    +0.008 C 
ATOM      7  C   UNL     1       0.698   2.919   0.224  0.00  0.00    +0.043 C 
ATOM      8  C   UNL     1       0.139   3.566  -1.000  0.00  0.00    -0.005 A 
ATOM      9  C   UNL     1      -0.204   2.962  -2.172  0.00  0.00    -0.005 A 
ATOM     10  C   UNL     1      -0.708   3.790  -3.175  0.00  0.00    +0.014 A 
ATOM     11  C   UNL     1      -0.835   5.119  -2.956  0.00  0.00    +0.046 A 
ATOM     12  S   UNL     1      -0.234   5.276  -1.281  0.00  0.00    -0.101 S 
ATOM     13  N   UNL     1       0.458   1.150  -3.677  0.00  0.00    -0.281 N 
ATOM     14  C   UNL     1      -0.495   0.393  -4.257  0.00  0.00    +0.310 C 
ATOM     15  O   UNL     1      -0.415  -0.044  -5.388  0.00  0.00    -0.252 OA
ATOM     16  H   UNL     1       1.297   1.433  -4.073  0.00  0.00    +0.152 HD
ENDROOT
BRANCH   1  17
ATOM     17  C   UNL     1      -2.717  -0.613  -3.814  0.00  0.00    +0.197 C 
BRANCH  17  18
ATOM     18  C   UNL     1      -3.750   0.290  -4.437  0.00  0.00    +0.181 C 
ATOM     19  O   UNL     1      -3.524   1.474  -4.562  0.00  0.00    -0.290 OA
BRANCH  18  24
ATOM     20  C   UNL     1      -8.763  -1.885  -6.224  0.00  0.00    +0.044 C 
ATOM     21  C   UNL     1      -7.449  -1.315  -5.755  0.00  0.00    -0.050 A 
ATOM     22  C   UNL     1      -6.456  -2.162  -5.294  0.00  0.00    +0.004 A 
ATOM     23  C   UNL     1      -5.249  -1.649  -4.870  0.00  0.00    +0.012 A 
ATOM     24  C   UNL     1      -5.034  -0.267  -4.895  0.00  0.00    +0.022 A 
ATOM     25  C   UNL     1      -6.041   0.582  -5.362  0.00  0.00    -0.040 A 
ATOM     26  C   UNL     1      -7.241   0.053  -5.789  0.00  0.00    +0.007 A 
ATOM     27  C   UNL     1      -5.817   2.072  -5.399  0.00  0.00    +0.044 C 
ENDBRANCH  18  24
ENDBRANCH  17  18
ENDBRANCH   1  17
TORSDOF 3
