REMARK  Name = ZINC37077402
REMARK  7 active torsions:
REMARK  status: ('A' for Active; 'I' for Inactive)
REMARK    1  A    between atoms: C_1  and  C_2
REMARK    2  A    between atoms: C_2  and  C_3
REMARK    3  A    between atoms: C_3  and  O_4
REMARK    4  A    between atoms: O_4  and  C_5
REMARK    5  A    between atoms: C_6  and  N_20
REMARK    6  A    between atoms: C_9  and  O_11
REMARK    7  A    between atoms: O_11  and  C_12
REMARK                            x       y       z     vdW  Elec       q    Type
REMARK                         _______ _______ _______ _____ _____    ______ ____
ROOT
ATOM      1  C   UNL     1       1.345  -2.551   2.295  0.00  0.00    +0.239 A 
ATOM      2  C   UNL     1       1.214  -3.930   2.447  0.00  0.00    +0.087 A 
ATOM      3  C   UNL     1       1.742  -4.538   3.580  0.00  0.00    +0.033 A 
ATOM      4  C   UNL     1       2.380  -3.744   4.521  0.00  0.00    +0.069 A 
ATOM      5  C   UNL     1       2.473  -2.378   4.304  0.00  0.00    +0.224 A 
ATOM      6  N   UNL     1       1.965  -1.828   3.212  0.00  0.00    -0.176 NA
ENDROOT
BRANCH   2   7
ATOM      7  N   UNL     1       0.560  -4.694   1.470  0.00  0.00    -0.354 N 
ATOM      8  H   UNL     1       0.194  -4.263   0.682  0.00  0.00    +0.142 HD
ATOM      9  H   UNL     1       0.473  -5.654   1.583  0.00  0.00    +0.142 HD
ENDBRANCH   2   7
BRANCH   1  10
ATOM     10  O   UNL     1       0.835  -1.945   1.192  0.00  0.00    -0.475 OA
BRANCH  10  11
ATOM     11  C   UNL     1       1.006  -0.530   1.092  0.00  0.00    +0.230 C 
BRANCH  11  13
ATOM     12  C   UNL     1       0.554   1.485  -0.315  0.00  0.00    +0.007 C 
ATOM     13  C   UNL     1       0.371  -0.030  -0.207  0.00  0.00    +0.038 C 
ENDBRANCH  11  13
ENDBRANCH  10  11
ENDBRANCH   1  10
BRANCH   5  14
ATOM     14  O   UNL     1       3.097  -1.595   5.221  0.00  0.00    -0.436 OA
BRANCH  14  15
ATOM     15  C   UNL     1       3.076  -0.249   5.030  0.00  0.00    +0.149 A 
ATOM     16  C   UNL     1       4.130   0.376   4.378  0.00  0.00    +0.049 A 
ATOM     17  C   UNL     1       4.107   1.744   4.184  0.00  0.00    +0.019 A 
ATOM     18  C   UNL     1       3.035   2.491   4.640  0.00  0.00    +0.019 A 
ATOM     19  C   UNL     1       1.984   1.871   5.291  0.00  0.00    +0.039 A 
ATOM     20  C   UNL     1       1.999   0.501   5.482  0.00  0.00    +0.084 A 
ATOM     21 CL   UNL     1       0.676  -0.278   6.292  0.00  0.00    -0.080 Cl
ATOM     22 BR   UNL     1       3.009   4.363   4.375  0.00  0.00    -0.050 Br
ENDBRANCH  14  15
ENDBRANCH   5  14
TORSDOF 6
