REMARK  Name = ZINC11279650
REMARK  9 active torsions:
REMARK  status: ('A' for Active; 'I' for Inactive)
REMARK    1  A    between atoms: C_1  and  C_2
REMARK    2  A    between atoms: C_2  and  C_25
REMARK    3  A    between atoms: N_5  and  C_9
REMARK    4  A    between atoms: C_9  and  C_10
REMARK    5  A    between atoms: N_12  and  C_13
REMARK    6  A    between atoms: N_12  and  C_18
REMARK    7  A    between atoms: C_13  and  C_14
REMARK    8  A    between atoms: C_14  and  C_15
REMARK    9  A    between atoms: C_18  and  C_19
REMARK                            x       y       z     vdW  Elec       q    Type
REMARK                         _______ _______ _______ _____ _____    ______ ____
ROOT
ATOM      1  C   UNL     1      -2.061  -0.505   1.150  0.00  0.00    +0.213 C 
ENDROOT
BRANCH   1   6
ATOM      2  C   UNL     1      -4.514  -1.871   4.917  0.00  0.00    +0.047 C 
ATOM      3  C   UNL     1      -4.319  -2.327   3.469  0.00  0.00    +0.135 C 
ATOM      4  C   UNL     1      -2.937  -1.955   2.970  0.00  0.00    +0.251 C 
ATOM      5  O   UNL     1      -1.873  -2.332   3.412  0.00  0.00    -0.272 OA
ATOM      6  N   UNL     1      -3.137  -1.116   1.935  0.00  0.00    -0.215 N 
ATOM      7  C   UNL     1      -4.440  -0.915   1.708  0.00  0.00    +0.310 C 
ATOM      8  O   UNL     1      -4.869  -0.200   0.823  0.00  0.00    -0.252 OA
ATOM      9  N   UNL     1      -5.222  -1.592   2.568  0.00  0.00    -0.281 N 
ATOM     10  H   UNL     1      -6.192  -1.594   2.590  0.00  0.00    +0.152 HD
BRANCH   3  11
ATOM     11  C   UNL     1      -4.540  -3.813   3.346  0.00  0.00    -0.014 A 
ATOM     12  C   UNL     1      -5.798  -4.301   3.042  0.00  0.00    +0.008 A 
ATOM     13  C   UNL     1      -6.002  -5.663   2.928  0.00  0.00    +0.022 A 
ATOM     14  C   UNL     1      -4.948  -6.539   3.119  0.00  0.00    +0.059 A 
ATOM     15  C   UNL     1      -3.689  -6.050   3.422  0.00  0.00    +0.060 A 
ATOM     16  C   UNL     1      -3.485  -4.686   3.530  0.00  0.00    +0.027 A 
ATOM     17 CL   UNL     1      -2.366  -7.148   3.661  0.00  0.00    -0.082 Cl
ATOM     18 CL   UNL     1      -5.205  -8.250   2.976  0.00  0.00    -0.082 Cl
ENDBRANCH   3  11
ENDBRANCH   1   6
BRANCH   1  19
ATOM     19  C   UNL     1      -1.675   0.814   1.769  0.00  0.00    +0.234 C 
ATOM     20  O   UNL     1      -2.242   1.205   2.767  0.00  0.00    -0.274 OA
ATOM     21  N   UNL     1      -0.698   1.558   1.213  0.00  0.00    -0.295 N 
BRANCH  21  22
ATOM     22  C   UNL     1      -0.013   1.086   0.008  0.00  0.00    +0.117 C 
BRANCH  22  23
ATOM     23  C   UNL     1      -0.753   1.593  -1.232  0.00  0.00    +0.114 C 
BRANCH  23  24
ATOM     24  C   UNL     1      -0.047   1.107  -2.471  0.00  0.00    +0.212 C 
ATOM     25  O   UNL     1       0.949   0.422  -2.373  0.00  0.00    -0.276 OA
ATOM     26  N   UNL     1      -0.524   1.433  -3.689  0.00  0.00    -0.329 N 
ATOM     27  H   UNL     1      -1.321   1.980  -3.768  0.00  0.00    +0.145 HD
ATOM     28  H   UNL     1      -0.070   1.120  -4.487  0.00  0.00    +0.145 HD
ENDBRANCH  23  24
ENDBRANCH  22  23
ENDBRANCH  21  22
BRANCH  21  29
ATOM     29  C   UNL     1      -0.323   2.840   1.815  0.00  0.00    +0.143 C 
BRANCH  29  30
ATOM     30  C   UNL     1      -1.158   3.941   1.213  0.00  0.00    -0.030 A 
ATOM     31  C   UNL     1      -0.714   4.609   0.087  0.00  0.00    +0.005 A 
ATOM     32  C   UNL     1      -1.483   5.616  -0.467  0.00  0.00    +0.000 A 
ATOM     33  C   UNL     1      -2.690   5.961   0.111  0.00  0.00    +0.000 A 
ATOM     34  C   UNL     1      -3.132   5.297   1.240  0.00  0.00    +0.000 A 
ATOM     35  C   UNL     1      -2.365   4.287   1.791  0.00  0.00    +0.005 A 
ENDBRANCH  29  30
ENDBRANCH  21  29
ENDBRANCH   1  19
TORSDOF 8
