REMARK  Name = ZINC67566079
REMARK  4 active torsions:
REMARK  status: ('A' for Active; 'I' for Inactive)
REMARK    1  A    between atoms: C_8  and  C_10
REMARK    2  A    between atoms: C_10  and  N_11
REMARK    3  A    between atoms: N_14  and  C_15
REMARK    4  A    between atoms: C_18  and  C_20
REMARK                            x       y       z     vdW  Elec       q    Type
REMARK                         _______ _______ _______ _____ _____    ______ ____
ROOT
ATOM      1  N   UNL     1       3.197  -4.434  -1.435  0.00  0.00    -0.293 N 
ATOM      2  C   UNL     1       3.554  -5.708  -1.691  0.00  0.00    +0.300 C 
ATOM      3  O   UNL     1       3.777  -6.474  -0.773  0.00  0.00    -0.253 OA
ATOM      4  N   UNL     1       3.663  -6.134  -2.965  0.00  0.00    -0.296 N 
ATOM      5  H   UNL     1       3.019  -3.824  -2.167  0.00  0.00    +0.151 HD
ATOM      6  H   UNL     1       3.485  -5.523  -3.697  0.00  0.00    +0.151 HD
ENDROOT
BRANCH   4   7
ATOM      7  C   UNL     1       4.051  -7.519  -3.244  0.00  0.00    +0.082 C 
ATOM      8  C   UNL     1       5.084  -7.754  -4.349  0.00  0.00    +0.033 C 
ATOM      9  C   UNL     1       3.615  -8.119  -4.582  0.00  0.00    +0.041 C 
BRANCH   9  10
ATOM     10  C   UNL     1       3.257  -9.582  -4.605  0.00  0.00    -0.040 A 
ATOM     11  C   UNL     1       4.195 -10.530  -4.239  0.00  0.00    +0.004 A 
ATOM     12  C   UNL     1       3.868 -11.872  -4.259  0.00  0.00    +0.003 A 
ATOM     13  C   UNL     1       2.602 -12.270  -4.646  0.00  0.00    +0.038 A 
ATOM     14  C   UNL     1       1.662 -11.322  -5.013  0.00  0.00    +0.124 A 
ATOM     15  C   UNL     1       1.989  -9.977  -4.986  0.00  0.00    +0.042 A 
ATOM     16  F   UNL     1       0.424 -11.710  -5.391  0.00  0.00    -0.205 F 
ENDBRANCH   9  10
ENDBRANCH   4   7
BRANCH   1  17
ATOM     17  C   UNL     1       3.078  -3.972  -0.050  0.00  0.00    +0.168 C 
BRANCH  17  25
ATOM     18  C   UNL     1      -0.016   1.357   0.009  0.00  0.00    +0.002 A 
ATOM     19  C   UNL     1       1.156   2.100   0.002  0.00  0.00    +0.001 A 
ATOM     20  C   UNL     1       2.375   1.449  -0.013  0.00  0.00    +0.017 A 
ATOM     21  C   UNL     1       2.404   0.076  -0.021  0.00  0.00    +0.039 A 
ATOM     22  C   UNL     1       1.226  -0.705  -0.013  0.00  0.00    +0.079 A 
ATOM     23  C   UNL     1       0.002  -0.004   0.002  0.00  0.00    +0.029 A 
ATOM     24  N   UNL     1       1.464  -2.033  -0.023  0.00  0.00    -0.242 NA
ATOM     25  C   UNL     1       2.669  -2.521  -0.038  0.00  0.00    +0.097 A 
ATOM     26  S   UNL     1       3.669  -1.167  -0.040  0.00  0.00    -0.071 S 
ENDBRANCH  17  25
ENDBRANCH   1  17
TORSDOF 4
