REMARK  Name = ZINC08621900
REMARK  9 active torsions:
REMARK  status: ('A' for Active; 'I' for Inactive)
REMARK    1  A    between atoms: C_1  and  C_2
REMARK    2  A    between atoms: C_4  and  C_29
REMARK    3  A    between atoms: C_9  and  S_11
REMARK    4  A    between atoms: S_11  and  C_12
REMARK    5  A    between atoms: C_12  and  C_14
REMARK    6  A    between atoms: C_12  and  C_15
REMARK    7  A    between atoms: N_17  and  C_18
REMARK    8  A    between atoms: C_18  and  C_20
REMARK    9  A    between atoms: C_18  and  C_21
REMARK                            x       y       z     vdW  Elec       q    Type
REMARK                         _______ _______ _______ _____ _____    ______ ____
ROOT
ATOM      1  C   UNL     1      -1.074   8.020   0.057  0.00  0.00    +0.137 C 
ATOM      2  C   UNL     1      -0.300   7.915  -1.259  0.00  0.00    +0.029 C 
ENDROOT
BRANCH   1   3
ATOM      3  C   UNL     1      -1.645   9.408   0.194  0.00  0.00    +0.227 C 
ATOM      4  O   UNL     1      -2.811   9.614  -0.074  0.00  0.00    -0.275 OA
ATOM      5  N   UNL     1      -0.862  10.421   0.613  0.00  0.00    -0.308 N 
ATOM      6  H   UNL     1       0.070  10.257   0.827  0.00  0.00    +0.149 HD
BRANCH   5   7
ATOM      7  C   UNL     1      -1.417  11.770   0.746  0.00  0.00    +0.102 C 
ATOM      8  C   UNL     1      -1.359  12.481  -0.608  0.00  0.00    +0.033 C 
BRANCH   7   9
ATOM      9  C   UNL     1      -0.612  12.547   1.756  0.00  0.00    -0.009 A 
ATOM     10  C   UNL     1       0.703  12.200   2.007  0.00  0.00    +0.008 A 
ATOM     11  C   UNL     1       1.443  12.916   2.928  0.00  0.00    +0.020 A 
ATOM     12  C   UNL     1       0.866  13.973   3.609  0.00  0.00    +0.042 A 
ATOM     13  C   UNL     1      -0.451  14.317   3.363  0.00  0.00    +0.040 A 
ATOM     14  C   UNL     1      -1.190  13.604   2.436  0.00  0.00    +0.047 A 
ATOM     15 CL   UNL     1      -2.843  14.035   2.126  0.00  0.00    -0.083 Cl
ATOM     16 CL   UNL     1       1.794  14.868   4.771  0.00  0.00    -0.083 Cl
ENDBRANCH   7   9
ENDBRANCH   5   7
ENDBRANCH   1   3
BRANCH   1  17
ATOM     17  S   UNL     1      -2.424   6.808   0.063  0.00  0.00    -0.072 S 
BRANCH  17  26
ATOM     18  C   UNL     1       2.503   1.070  -0.017  0.00  0.00    +0.066 C 
ATOM     19  C   UNL     1       1.185   1.800   0.000  0.00  0.00    +0.044 A 
ATOM     20  C   UNL     1      -0.013   1.076   0.008  0.00  0.00    +0.046 A 
ATOM     21  C   UNL     1      -1.194   1.747   0.017  0.00  0.00    +0.045 A 
ATOM     22  N   UNL     1      -1.181   3.105   0.030  0.00  0.00    -0.200 N 
ATOM     23  C   UNL     1       0.006   3.783   0.022  0.00  0.00    +0.254 A 
ATOM     24  N   UNL     1       1.165   3.114   0.008  0.00  0.00    -0.216 NA
ATOM     25  N   UNL     1      -0.278   5.081   0.033  0.00  0.00    -0.183 NA
ATOM     26  C   UNL     1      -1.599   5.251   0.046  0.00  0.00    +0.212 A 
ATOM     27  N   UNL     1      -2.192   4.075   0.045  0.00  0.00    -0.137 NA
ATOM     28  C   UNL     1      -2.500   0.996   0.019  0.00  0.00    +0.066 C 
ENDBRANCH  17  26
ENDBRANCH   1  17
TORSDOF 5
