REMARK  Name = ZINC58882158
REMARK  11 active torsions:
REMARK  status: ('A' for Active; 'I' for Inactive)
REMARK    1  A    between atoms: C_1  and  C_2
REMARK    2  A    between atoms: C_2  and  C_4
REMARK    3  A    between atoms: C_2  and  N_10
REMARK    4  A    between atoms: C_11  and  C_13
REMARK    5  A    between atoms: C_13  and  O_14
REMARK    6  A    between atoms: O_14  and  C_15
REMARK    7  A    between atoms: C_18  and  C_21
REMARK    8  A    between atoms: N_22  and  N_23
REMARK    9  A    between atoms: C_24  and  C_26
REMARK   10  A    between atoms: N_28  and  C_29
REMARK   11  A    between atoms: C_32  and  N_35
REMARK                            x       y       z     vdW  Elec       q    Type
REMARK                         _______ _______ _______ _____ _____    ______ ____
ROOT
ATOM      1  C   UNL     1      -5.247  -1.629  -2.637  0.00  0.00    +0.121 A 
ATOM      2  C   UNL     1      -5.994  -2.022  -1.533  0.00  0.00    +0.046 A 
ATOM      3  C   UNL     1      -7.280  -2.487  -1.699  0.00  0.00    +0.013 A 
ATOM      4  C   UNL     1      -7.833  -2.564  -2.980  0.00  0.00    -0.005 A 
ATOM      5  C   UNL     1      -7.078  -2.168  -4.088  0.00  0.00    +0.013 A 
ATOM      6  C   UNL     1      -5.795  -1.698  -3.912  0.00  0.00    +0.046 A 
ENDROOT
BRANCH   4   7
ATOM      7  C   UNL     1      -9.208  -3.062  -3.163  0.00  0.00    +0.138 C 
ATOM      8  N   UNL     1      -9.720  -3.132  -4.354  0.00  0.00    -0.187 NA
BRANCH   8   9
ATOM      9  N   UNL     1     -11.028  -3.605  -4.528  0.00  0.00    -0.199 N 
ATOM     10  C   UNL     1     -11.559  -3.679  -5.764  0.00  0.00    +0.318 C 
ATOM     11  O   UNL     1     -10.905  -3.334  -6.728  0.00  0.00    -0.263 OA
ATOM     12  H   UNL     1     -11.550  -3.880  -3.758  0.00  0.00    +0.178 HD
BRANCH  10  13
ATOM     13  C   UNL     1     -12.950  -4.182  -5.949  0.00  0.00    +0.305 C 
ATOM     14  O   UNL     1     -13.604  -4.526  -4.986  0.00  0.00    -0.265 OA
ATOM     15  N   UNL     1     -13.482  -4.255  -7.185  0.00  0.00    -0.278 N 
ATOM     16  H   UNL     1     -12.986  -3.918  -7.947  0.00  0.00    +0.155 HD
BRANCH  15  17
ATOM     17  C   UNL     1     -14.748  -4.817  -7.369  0.00  0.00    +0.034 A 
ATOM     18  C   UNL     1     -15.023  -5.557  -8.512  0.00  0.00    +0.025 A 
ATOM     19  C   UNL     1     -16.275  -6.110  -8.691  0.00  0.00    +0.034 A 
ATOM     20  C   UNL     1     -17.256  -5.928  -7.734  0.00  0.00    +0.126 A 
ATOM     21  C   UNL     1     -16.987  -5.191  -6.595  0.00  0.00    +0.034 A 
ATOM     22  C   UNL     1     -15.734  -4.641  -6.406  0.00  0.00    +0.025 A 
BRANCH  20  23
ATOM     23  N   UNL     1     -18.598  -6.522  -7.929  0.00  0.00    +0.056 N 
ATOM     24  O   UNL     1     -18.835  -7.166  -8.924  0.00  0.00    -0.126 OA
ATOM     25  O   UNL     1     -19.456  -6.363  -7.092  0.00  0.00    -0.126 OA
ENDBRANCH  20  23
ENDBRANCH  15  17
ENDBRANCH  10  13
ENDBRANCH   8   9
ENDBRANCH   4   7
BRANCH   1  26
ATOM     26  O   UNL     1      -3.979  -1.171  -2.469  0.00  0.00    -0.483 OA
BRANCH  26  27
ATOM     27  C   UNL     1      -3.478  -1.126  -1.131  0.00  0.00    +0.324 C 
BRANCH  27  29
ATOM     28  N   UNL     1      -1.389  -0.465   0.015  0.00  0.00    -0.306 N 
ATOM     29  C   UNL     1      -2.067  -0.596  -1.141  0.00  0.00    +0.251 C 
ATOM     30  O   UNL     1      -1.543  -0.287  -2.191  0.00  0.00    -0.272 OA
ATOM     31  H   UNL     1      -1.808  -0.712   0.855  0.00  0.00    +0.149 HD
BRANCH  28  33
ATOM     32  C   UNL     1      -0.048   1.581   0.021  0.00  0.00    +0.033 C 
ATOM     33  C   UNL     1      -0.017   0.051   0.006  0.00  0.00    +0.100 C 
BRANCH  33  34
ATOM     34  C   UNL     1       0.716  -0.449   1.224  0.00  0.00    -0.027 A 
ATOM     35  C   UNL     1       0.067  -0.513   2.443  0.00  0.00    +0.005 A 
ATOM     36  C   UNL     1       0.740  -0.971   3.560  0.00  0.00    +0.000 A 
ATOM     37  C   UNL     1       2.061  -1.366   3.458  0.00  0.00    +0.000 A 
ATOM     38  C   UNL     1       2.709  -1.302   2.239  0.00  0.00    +0.000 A 
ATOM     39  C   UNL     1       2.035  -0.848   1.121  0.00  0.00    +0.005 A 
ENDBRANCH  33  34
ENDBRANCH  28  33
ENDBRANCH  27  29
ENDBRANCH  26  27
ENDBRANCH   1  26
TORSDOF 10
