REMARK  Name = ZINC15866377
REMARK  2 active torsions:
REMARK  status: ('A' for Active; 'I' for Inactive)
REMARK    1  A    between atoms: C_3  and  C_6
REMARK    2  A    between atoms: C_9  and  C_17
REMARK                            x       y       z     vdW  Elec       q    Type
REMARK                         _______ _______ _______ _____ _____    ______ ____
ROOT
ATOM      1  C   UNL     1      -0.013   1.086   0.008  0.00  0.00    +0.151 C 
ATOM      2  C   UNL     1      -0.715   1.584   1.278  0.00  0.00    +0.060 C 
ATOM      3  C   UNL     1       0.172   1.316   2.500  0.00  0.00    +0.112 C 
ATOM      4  N   UNL     1       1.426   2.080   2.350  0.00  0.00    -0.305 N 
ATOM      5  C   UNL     1       2.012   2.056   1.093  0.00  0.00    +0.236 A 
ATOM      6  N   UNL     1       1.356   1.594  -0.002  0.00  0.00    -0.205 N 
ATOM      7  N   UNL     1       2.258   1.722  -1.058  0.00  0.00    -0.042 NA
ATOM      8  N   UNL     1       3.340   2.227  -0.560  0.00  0.00    -0.021 NA
ATOM      9  N   UNL     1       3.200   2.426   0.706  0.00  0.00    -0.092 NA
ATOM     10  H   UNL     1       1.818   2.572   3.089  0.00  0.00    +0.150 HD
ENDROOT
BRANCH   3  11
ATOM     11  C   UNL     1       0.484  -0.156   2.585  0.00  0.00    +0.011 A 
ATOM     12  C   UNL     1      -0.075  -1.103   3.376  0.00  0.00    +0.014 A 
ATOM     13  C   UNL     1       0.375  -2.407   3.283  0.00  0.00    +0.023 A 
ATOM     14  C   UNL     1       1.364  -2.699   2.402  0.00  0.00    +0.055 A 
ATOM     15  S   UNL     1       1.683  -1.106   1.663  0.00  0.00    -0.085 S 
ATOM     16 BR   UNL     1       2.186  -4.364   2.045  0.00  0.00    -0.043 Br
ENDBRANCH   3  11
BRANCH   1  19
ATOM     17  C   UNL     1      -1.955   1.560  -3.234  0.00  0.00    +0.008 A 
ATOM     18  C   UNL     1      -1.326   0.879  -2.209  0.00  0.00    +0.013 A 
ATOM     19  C   UNL     1      -0.747   1.588  -1.208  0.00  0.00    +0.014 A 
ATOM     20  S   UNL     1      -1.074   3.270  -1.710  0.00  0.00    -0.099 S 
ATOM     21  C   UNL     1      -1.966   2.915  -3.215  0.00  0.00    +0.045 A 
ENDBRANCH   1  19
TORSDOF 2
