REMARK  Name = ZINC04556320
REMARK  5 active torsions:
REMARK  status: ('A' for Active; 'I' for Inactive)
REMARK    1  A    between atoms: C_1  and  C_2
REMARK    2  A    between atoms: C_2  and  N_43
REMARK    3  A    between atoms: C_10  and  O_25
REMARK    4  A    between atoms: C_12  and  C_15
REMARK    5  A    between atoms: C_19  and  N_21
REMARK                            x       y       z     vdW  Elec       q    Type
REMARK                         _______ _______ _______ _____ _____    ______ ____
ROOT
ATOM      1  C   UNL     1       0.919  -0.516   1.030  0.00  0.00    -0.074 C 
ATOM      2  C   UNL     1       2.370  -0.252   0.619  0.00  0.00    +0.018 C 
ATOM      3  C   UNL     1       2.504   1.225   0.264  0.00  0.00    -0.027 A 
ATOM      4  C   UNL     1       1.396   1.958  -0.001  0.00  0.00    -0.021 A 
ATOM      5  S   UNL     1       2.002   3.587  -0.351  0.00  0.00    -0.080 S 
ATOM      6  C   UNL     1       3.677   3.295  -0.154  0.00  0.00    +0.080 A 
ATOM      7  C   UNL     1       3.765   1.936   0.180  0.00  0.00    +0.067 A 
ATOM      8  C   UNL     1       5.122   1.385   0.426  0.00  0.00    +0.220 C 
ATOM      9  N   UNL     1       6.147   2.127   0.108  0.00  0.00    -0.223 NA
ATOM     10  C   UNL     1       6.060   3.421  -0.558  0.00  0.00    +0.224 C 
ATOM     11  N   UNL     1       4.785   4.100  -0.261  0.00  0.00    -0.313 N 
ATOM     12  C   UNL     1      -0.018   1.471   0.010  0.00  0.00    -0.035 C 
ATOM     13  H   UNL     1       4.732   5.062  -0.148  0.00  0.00    +0.149 HD
ATOM     14  N   UNL     1       0.013  -0.011  -0.021  0.00  0.00    +0.383 N 
ATOM     15  H   UNL     1       0.359  -0.320  -0.938  0.00  0.00    -0.081 HD
ENDROOT
BRANCH  10  16
ATOM     16  C   UNL     1       6.175   3.216  -2.046  0.00  0.00    -0.003 A 
ATOM     17  C   UNL     1       5.576   4.111  -2.914  0.00  0.00    +0.009 A 
ATOM     18  C   UNL     1       5.681   3.924  -4.280  0.00  0.00    +0.022 A 
ATOM     19  C   UNL     1       6.384   2.841  -4.778  0.00  0.00    +0.071 A 
ATOM     20  C   UNL     1       6.983   1.947  -3.909  0.00  0.00    +0.145 A 
ATOM     21  C   UNL     1       6.882   2.138  -2.543  0.00  0.00    +0.041 A 
ATOM     22 CL   UNL     1       6.516   2.606  -6.493  0.00  0.00    -0.081 Cl
BRANCH  20  23
ATOM     23  N   UNL     1       7.735   0.789  -4.440  0.00  0.00    +0.058 N 
ATOM     24  O   UNL     1       8.262   0.001  -3.675  0.00  0.00    -0.126 OA
ATOM     25  O   UNL     1       7.827   0.623  -5.644  0.00  0.00    -0.126 OA
ENDBRANCH  20  23
ENDBRANCH  10  16
BRANCH  14  27
ATOM     26  C   UNL     1      -1.857  -0.201   1.584  0.00  0.00    -0.017 C 
ATOM     27  C   UNL     1      -1.350  -0.550   0.183  0.00  0.00    -0.082 C 
ENDBRANCH  14  27
BRANCH   8  28
ATOM     28  O   UNL     1       5.290   0.155   0.963  0.00  0.00    -0.492 OA
ATOM     29  H   UNL     1       6.215  -0.101   1.079  0.00  0.00    +0.294 HD
ENDBRANCH   8  28
TORSDOF 4
