REMARK  Name = ZINC00126587
REMARK  3 active torsions:
REMARK  status: ('A' for Active; 'I' for Inactive)
REMARK    1  A    between atoms: C_5  and  C_7
REMARK    2  A    between atoms: N_8  and  N_9
REMARK    3  A    between atoms: C_10  and  C_12
REMARK                            x       y       z     vdW  Elec       q    Type
REMARK                         _______ _______ _______ _____ _____    ______ ____
ROOT
ATOM      1  N   UNL     1      -2.630   1.077   0.135  0.00  0.00    -0.202 N 
ATOM      2  C   UNL     1      -2.472  -0.256   0.024  0.00  0.00    +0.280 C 
ATOM      3  O   UNL     1      -3.446  -0.979  -0.064  0.00  0.00    -0.267 OA
ATOM      4  H   UNL     1      -1.854   1.660   0.131  0.00  0.00    +0.178 HD
ENDROOT
BRANCH   2   5
ATOM      5  C   UNL     1      -1.114  -0.841   0.009  0.00  0.00    +0.117 A 
ATOM      6  C   UNL     1      -0.030  -0.028  -0.009  0.00  0.00    +0.103 A 
ATOM      7  C   UNL     1       1.308  -0.625  -0.024  0.00  0.00    +0.275 A 
ATOM      8  O   UNL     1       2.310   0.075  -0.041  0.00  0.00    -0.266 OA
ATOM      9  N   UNL     1       1.400  -1.960  -0.019  0.00  0.00    -0.184 NA
ATOM     10  C   UNL     1       0.325  -2.709  -0.002  0.00  0.00    +0.181 A 
ATOM     11  N   UNL     1      -0.955  -2.227   0.013  0.00  0.00    -0.290 N 
ATOM     12  C   UNL     1      -1.965  -3.157   0.031  0.00  0.00    +0.101 A 
ATOM     13  C   UNL     1      -1.700  -4.464   0.034  0.00  0.00    +0.067 A 
ATOM     14  S   UNL     1       0.085  -4.473   0.010  0.00  0.00    -0.058 S 
ENDBRANCH   2   5
BRANCH   1  16
ATOM     15  C   UNL     1      -4.067   2.908   0.362  0.00  0.00    +0.139 C 
ATOM     16  N   UNL     1      -3.915   1.623   0.256  0.00  0.00    -0.187 NA
BRANCH  15  21
ATOM     17  C   UNL     1      -6.854   5.394   0.723  0.00  0.00    +0.001 A 
ATOM     18  C   UNL     1      -7.960   4.561   0.728  0.00  0.00    +0.001 A 
ATOM     19  C   UNL     1      -7.802   3.191   0.615  0.00  0.00    +0.020 A 
ATOM     20  C   UNL     1      -6.539   2.646   0.495  0.00  0.00    +0.050 A 
ATOM     21  C   UNL     1      -5.419   3.482   0.489  0.00  0.00    +0.013 A 
ATOM     22  C   UNL     1      -5.586   4.864   0.610  0.00  0.00    +0.011 A 
ATOM     23 CL   UNL     1      -6.343   0.927   0.354  0.00  0.00    -0.083 Cl
ENDBRANCH  15  21
ENDBRANCH   1  16
TORSDOF 3
