REMARK  Name = ZINC61638473
REMARK  7 active torsions:
REMARK  status: ('A' for Active; 'I' for Inactive)
REMARK    1  A    between atoms: C_1  and  C_2
REMARK    2  A    between atoms: C_8  and  N_10
REMARK    3  A    between atoms: N_10  and  C_11
REMARK    4  A    between atoms: N_10  and  C_12
REMARK    5  A    between atoms: C_12  and  C_13
REMARK    6  A    between atoms: C_17  and  N_19
REMARK    7  A    between atoms: N_19  and  N_20
REMARK                            x       y       z     vdW  Elec       q    Type
REMARK                         _______ _______ _______ _____ _____    ______ ____
ROOT
ATOM      1  C   UNL     1       0.434   0.292   4.649  0.00  0.00    +0.045 A 
ATOM      2  C   UNL     1       0.715   1.585   5.045  0.00  0.00    +0.060 A 
ATOM      3  C   UNL     1       0.205   2.054   6.250  0.00  0.00    +0.025 A 
ATOM      4  C   UNL     1      -0.573   1.202   7.013  0.00  0.00    +0.046 A 
ATOM      5  C   UNL     1      -0.816  -0.087   6.552  0.00  0.00    +0.132 A 
ATOM      6  N   UNL     1      -0.316  -0.496   5.396  0.00  0.00    -0.236 NA
ATOM      7 CL   UNL     1       1.698   2.614   4.050  0.00  0.00    -0.082 Cl
ENDROOT
BRANCH   5   8
ATOM      8  N   UNL     1      -1.596  -0.954   7.310  0.00  0.00    -0.268 N 
ATOM      9  H   UNL     1      -1.968  -0.658   8.156  0.00  0.00    +0.167 HD
BRANCH   8  10
ATOM     10  N   UNL     1      -1.839  -2.222   6.863  0.00  0.00    -0.255 NA
ATOM     11  H   UNL     1      -2.417  -2.731   7.516  0.00  0.00    +0.140 HD
ATOM     12  H   UNL     1      -2.257  -2.208   5.945  0.00  0.00    +0.140 HD
ENDBRANCH   8  10
ENDBRANCH   5   8
BRANCH   1  13
ATOM     13  C   UNL     1       0.984  -0.223   3.344  0.00  0.00    -0.021 C 
BRANCH  13  14
ATOM     14  N   UNL     1       0.032   0.064   2.264  0.00  0.00    +0.384 N 
ATOM     15  C   UNL     1      -0.087   1.518   2.088  0.00  0.00    -0.095 C 
ATOM     16  H   UNL     1      -0.871  -0.321   2.499  0.00  0.00    -0.081 HD
BRANCH  14  23
ATOM     17  C   UNL     1      -0.925  -2.543   1.433  0.00  0.00    +0.006 C 
ATOM     18  C   UNL     1       0.501  -2.066   1.150  0.00  0.00    -0.028 C 
ATOM     19  C   UNL     1       1.000  -2.697  -0.151  0.00  0.00    +0.002 C 
ATOM     20  C   UNL     1       2.426  -2.220  -0.435  0.00  0.00    +0.000 C 
ATOM     21  C   UNL     1       2.437  -0.696  -0.570  0.00  0.00    -0.002 C 
ATOM     22  C   UNL     1       1.937  -0.065   0.731  0.00  0.00    -0.015 C 
ATOM     23  C   UNL     1       0.511  -0.542   1.014  0.00  0.00    -0.066 C 
ENDBRANCH  14  23
ENDBRANCH  13  14
ENDBRANCH   1  13
TORSDOF 5
