REMARK  Name = ZINC40167827
REMARK  9 active torsions:
REMARK  status: ('A' for Active; 'I' for Inactive)
REMARK    1  A    between atoms: C_1  and  C_2
REMARK    2  A    between atoms: C_2  and  C_3
REMARK    3  A    between atoms: C_3  and  C_5
REMARK    4  A    between atoms: C_3  and  O_18
REMARK    5  A    between atoms: N_7  and  C_8
REMARK    6  A    between atoms: C_11  and  N_14
REMARK    7  A    between atoms: C_15  and  C_17
REMARK    8  A    between atoms: O_18  and  C_19
REMARK    9  A    between atoms: C_29  and  C_30
REMARK                            x       y       z     vdW  Elec       q    Type
REMARK                         _______ _______ _______ _____ _____    ______ ____
ROOT
ATOM      1  C   UNL     1      -1.167  -0.404  -0.492  0.00  0.00    +0.259 C 
ENDROOT
BRANCH   1   2
ATOM      2  C   UNL     1      -1.405  -1.842  -0.876  0.00  0.00    +0.258 C 
ATOM      3  O   UNL     1      -1.238  -2.723  -0.060  0.00  0.00    -0.271 OA
ATOM      4  N   UNL     1      -1.805  -2.148  -2.126  0.00  0.00    -0.282 N 
ATOM      5  H   UNL     1      -1.863  -1.454  -2.801  0.00  0.00    +0.155 HD
BRANCH   4   6
ATOM      6  C   UNL     1      -2.136  -3.470  -2.452  0.00  0.00    +0.034 A 
ATOM      7  C   UNL     1      -2.769  -4.277  -1.516  0.00  0.00    +0.025 A 
ATOM      8  C   UNL     1      -3.095  -5.580  -1.837  0.00  0.00    +0.025 A 
ATOM      9  C   UNL     1      -2.791  -6.083  -3.095  0.00  0.00    +0.033 A 
ATOM     10  C   UNL     1      -2.157  -5.275  -4.030  0.00  0.00    +0.025 A 
ATOM     11  C   UNL     1      -1.836  -3.971  -3.712  0.00  0.00    +0.025 A 
BRANCH   9  12
ATOM     12  N   UNL     1      -3.121  -7.404  -3.420  0.00  0.00    -0.286 N 
ATOM     13  C   UNL     1      -2.334  -8.110  -4.256  0.00  0.00    +0.214 C 
ATOM     14  O   UNL     1      -1.290  -7.636  -4.651  0.00  0.00    -0.276 OA
ATOM     15  C   UNL     1      -2.751  -9.488  -4.700  0.00  0.00    +0.109 C 
ATOM     16  H   UNL     1      -3.917  -7.812  -3.044  0.00  0.00    +0.155 HD
ENDBRANCH   9  12
ENDBRANCH   4   6
ENDBRANCH   1   2
BRANCH   1  18
ATOM     17  C   UNL     1       0.175   1.639  -1.011  0.00  0.00    +0.008 C 
ATOM     18  C   UNL     1       0.041   0.135  -1.261  0.00  0.00    +0.051 C 
ENDBRANCH   1  18
BRANCH   1  19
ATOM     19  O   UNL     1      -0.914  -0.322   0.912  0.00  0.00    -0.472 OA
BRANCH  19  20
ATOM     20  C   UNL     1      -1.327   0.807   1.548  0.00  0.00    +0.212 A 
ATOM     21  C   UNL     1      -2.701   1.160   1.560  0.00  0.00    +0.235 A 
ATOM     22  O   UNL     1      -3.538   0.468   1.006  0.00  0.00    -0.283 OA
ATOM     23  C   UNL     1      -3.076   2.398   2.270  0.00  0.00    +0.068 A 
ATOM     24  C   UNL     1      -4.404   2.822   2.333  0.00  0.00    +0.015 A 
ATOM     25  C   UNL     1      -4.714   3.983   3.006  0.00  0.00    +0.001 A 
ATOM     26  C   UNL     1      -3.715   4.727   3.616  0.00  0.00    +0.004 A 
ATOM     27  C   UNL     1      -2.400   4.319   3.561  0.00  0.00    +0.047 A 
ATOM     28  C   UNL     1      -2.064   3.150   2.888  0.00  0.00    +0.140 A 
ATOM     29  O   UNL     1      -0.783   2.733   2.823  0.00  0.00    -0.451 OA
ATOM     30  C   UNL     1      -0.425   1.606   2.185  0.00  0.00    +0.181 A 
BRANCH  30  31
ATOM     31  C   UNL     1       1.000   1.222   2.169  0.00  0.00    +0.021 A 
ATOM     32  C   UNL     1       1.982   2.179   1.901  0.00  0.00    +0.012 A 
ATOM     33  C   UNL     1       3.312   1.813   1.887  0.00  0.00    +0.001 A 
ATOM     34  C   UNL     1       3.674   0.501   2.138  0.00  0.00    +0.000 A 
ATOM     35  C   UNL     1       2.707  -0.452   2.405  0.00  0.00    +0.001 A 
ATOM     36  C   UNL     1       1.374  -0.099   2.428  0.00  0.00    +0.012 A 
ENDBRANCH  30  31
ENDBRANCH  19  20
ENDBRANCH   1  19
TORSDOF 7
