REMARK  Name = ZINC43212951
REMARK  10 active torsions:
REMARK  status: ('A' for Active; 'I' for Inactive)
REMARK    1  A    between atoms: C_1  and  C_2
REMARK    2  A    between atoms: C_2  and  C_3
REMARK    3  A    between atoms: C_3  and  C_4
REMARK    4  A    between atoms: C_5  and  C_22
REMARK    5  A    between atoms: C_6  and  C_19
REMARK    6  A    between atoms: C_7  and  C_18
REMARK    7  A    between atoms: N_8  and  C_9
REMARK    8  A    between atoms: C_9  and  C_10
REMARK    9  A    between atoms: C_10  and  C_11
REMARK   10  A    between atoms: C_25  and  C_28
REMARK                            x       y       z     vdW  Elec       q    Type
REMARK                         _______ _______ _______ _____ _____    ______ ____
ROOT
ATOM      1  C   UNL     1       0.739  -2.004  -1.265  0.00  0.00    +0.027 A 
ATOM      2  C   UNL     1       1.708  -2.787  -0.721  0.00  0.00    +0.015 A 
ATOM      3  C   UNL     1       1.296  -4.179  -0.975  0.00  0.00    +0.065 A 
ATOM      4  C   UNL     1       0.112  -4.106  -1.651  0.00  0.00    +0.029 A 
ATOM      5  N   UNL     1      -0.213  -2.808  -1.813  0.00  0.00    -0.346 N 
ATOM      6  C   UNL     1      -0.701  -5.281  -2.131  0.00  0.00    +0.064 C 
ENDROOT
BRANCH   2   7
ATOM      7  C   UNL     1       2.929  -2.333  -0.018  0.00  0.00    -0.015 A 
ATOM      8  C   UNL     1       3.907  -1.615  -0.709  0.00  0.00    +0.010 A 
ATOM      9  C   UNL     1       5.038  -1.195  -0.059  0.00  0.00    +0.019 A 
ATOM     10  C   UNL     1       5.212  -1.484   1.298  0.00  0.00    +0.052 A 
ATOM     11  C   UNL     1       4.232  -2.203   1.990  0.00  0.00    +0.019 A 
ATOM     12  C   UNL     1       3.099  -2.618   1.339  0.00  0.00    +0.010 A 
BRANCH  10  13
ATOM     13  C   UNL     1       6.394  -1.046   1.978  0.00  0.00    +0.099 C 
ATOM     14  N   UNL     1       7.331  -0.698   2.518  0.00  0.00    -0.191 NA
ENDBRANCH  10  13
ENDBRANCH   2   7
BRANCH   3  15
ATOM     15  C   UNL     1       2.015  -5.401  -0.581  0.00  0.00    +0.244 C 
ATOM     16  O   UNL     1       1.790  -5.918   0.497  0.00  0.00    -0.270 OA
ATOM     17  N   UNL     1       2.924  -5.947  -1.414  0.00  0.00    -0.325 N 
ATOM     18  H   UNL     1       3.103  -5.534  -2.273  0.00  0.00    +0.145 HD
ATOM     19  H   UNL     1       3.398  -6.752  -1.154  0.00  0.00    +0.145 HD
ENDBRANCH   3  15
BRANCH   1  20
ATOM     20  C   UNL     1       0.718  -0.497  -1.257  0.00  0.00    +0.054 C 
BRANCH  20  22
ATOM     21  C   UNL     1      -0.019   1.526   0.010  0.00  0.00    +0.004 C 
ATOM     22  C   UNL     1       0.002  -0.004   0.002  0.00  0.00    +0.003 C 
ENDBRANCH  20  22
ENDBRANCH   1  20
BRANCH   5  23
ATOM     23  C   UNL     1      -1.421  -2.329  -2.489  0.00  0.00    +0.126 C 
BRANCH  23  24
ATOM     24  C   UNL     1      -1.133  -2.145  -3.980  0.00  0.00    +0.059 C 
BRANCH  24  25
ATOM     25  C   UNL     1      -2.376  -1.652  -4.676  0.00  0.00    -0.011 A 
ATOM     26  C   UNL     1      -3.231  -2.552  -5.284  0.00  0.00    +0.006 A 
ATOM     27  C   UNL     1      -4.371  -2.100  -5.921  0.00  0.00    +0.000 A 
ATOM     28  C   UNL     1      -4.657  -0.747  -5.952  0.00  0.00    +0.003 A 
ATOM     29  C   UNL     1      -3.804   0.154  -5.345  0.00  0.00    +0.038 A 
ATOM     30  C   UNL     1      -2.664  -0.298  -4.701  0.00  0.00    +0.127 A 
ATOM     31  F   UNL     1      -1.831   0.582  -4.103  0.00  0.00    -0.205 F 
ENDBRANCH  24  25
ENDBRANCH  23  24
ENDBRANCH   5  23
TORSDOF 8
