REMARK  Name = ZINC33274958
REMARK  9 active torsions:
REMARK  status: ('A' for Active; 'I' for Inactive)
REMARK    1  A    between atoms: C_1  and  C_2
REMARK    2  A    between atoms: C_4  and  N_18
REMARK    3  A    between atoms: C_9  and  C_11
REMARK    4  A    between atoms: C_21  and  C_24
REMARK    5  A    between atoms: N_26  and  C_27
REMARK    6  A    between atoms: C_27  and  C_28
REMARK    7  A    between atoms: C_28  and  C_29
REMARK    8  A    between atoms: C_29  and  C_31
REMARK    9  A    between atoms: C_29  and  N_32
REMARK                            x       y       z     vdW  Elec       q    Type
REMARK                         _______ _______ _______ _____ _____    ______ ____
ROOT
ATOM      1  N   UNL     1      -2.443   4.203   1.465  0.00  0.00    -0.315 N 
ATOM      2  C   UNL     1      -1.626   4.438   0.268  0.00  0.00    +0.107 C 
ATOM      3  C   UNL     1      -1.355   5.937   0.119  0.00  0.00    +0.031 C 
ATOM      4  C   UNL     1      -2.688   6.682   0.005  0.00  0.00    +0.078 C 
ATOM      5  C   UNL     1      -3.540   6.382   1.241  0.00  0.00    +0.031 C 
ATOM      6  C   UNL     1      -3.747   4.870   1.357  0.00  0.00    +0.107 C 
ENDROOT
BRANCH   1  10
ATOM      7  C   UNL     1      -5.345   0.318   2.148  0.00  0.00    +0.066 C 
ATOM      8  C   UNL     1      -3.974   0.934   2.036  0.00  0.00    +0.044 A 
ATOM      9  C   UNL     1      -3.846   2.302   1.796  0.00  0.00    +0.066 A 
ATOM     10  C   UNL     1      -2.596   2.853   1.701  0.00  0.00    +0.127 A 
ATOM     11  N   UNL     1      -1.501   2.042   1.835  0.00  0.00    -0.200 N 
ATOM     12  C   UNL     1      -1.673   0.702   2.070  0.00  0.00    +0.158 A 
ATOM     13  N   UNL     1      -2.905   0.179   2.165  0.00  0.00    -0.233 NA
ATOM     14  C   UNL     1      -0.410   0.139   2.165  0.00  0.00    +0.078 A 
ATOM     15  C   UNL     1       0.523   1.164   1.984  0.00  0.00    +0.095 A 
ATOM     16  N   UNL     1      -0.126   2.297   1.787  0.00  0.00    -0.163 NA
BRANCH  15  17
ATOM     17  C   UNL     1       1.999   1.005   2.008  0.00  0.00    +0.002 A 
ATOM     18  C   UNL     1       2.563  -0.249   2.232  0.00  0.00    +0.011 A 
ATOM     19  C   UNL     1       3.936  -0.392   2.249  0.00  0.00    +0.020 A 
ATOM     20  C   UNL     1       4.752   0.709   2.055  0.00  0.00    +0.041 A 
ATOM     21  C   UNL     1       4.196   1.958   1.837  0.00  0.00    +0.020 A 
ATOM     22  C   UNL     1       2.824   2.111   1.813  0.00  0.00    +0.011 A 
ATOM     23 CL   UNL     1       6.477   0.524   2.084  0.00  0.00    -0.084 Cl
ENDBRANCH  15  17
ENDBRANCH   1  10
BRANCH   4  24
ATOM     24  C   UNL     1      -2.432   8.165  -0.082  0.00  0.00    +0.216 C 
ATOM     25  O   UNL     1      -2.885   8.909   0.761  0.00  0.00    -0.276 OA
ATOM     26  N   UNL     1      -1.699   8.663  -1.097  0.00  0.00    -0.315 N 
ATOM     27  H   UNL     1      -1.288   7.988  -1.862  0.00  0.00    +0.149 HD
BRANCH  26  28
ATOM     28  C   UNL     1      -1.450  10.104  -1.182  0.00  0.00    +0.102 C 
BRANCH  28  29
ATOM     29  C   UNL     1      -0.599  10.403  -2.418  0.00  0.00    +0.003 C 
BRANCH  29  30
ATOM     30  C   UNL     1      -0.339  11.909  -2.506  0.00  0.00    -0.070 C 
ATOM     31  C   UNL     1       0.405  12.222  -3.806  0.00  0.00    -0.013 C 
BRANCH  30  32
ATOM     32  N   UNL     1       0.478  12.332  -1.361  0.00  0.00    +0.381 N 
ATOM     33  C   UNL     1       1.871  11.832  -1.485  0.00  0.00    -0.079 C 
ATOM     34  C   UNL     1       2.669  12.769  -0.544  0.00  0.00    -0.020 C 
ATOM     35  C   UNL     1       1.984  14.138  -0.756  0.00  0.00    -0.020 C 
ATOM     36  C   UNL     1       0.582  13.806  -1.301  0.00  0.00    -0.079 C 
ATOM     37  H   UNL     1      -0.024  11.927  -0.469  0.00  0.00    -0.081 HD
ENDBRANCH  30  32
ENDBRANCH  29  30
ENDBRANCH  28  29
ENDBRANCH  26  28
ENDBRANCH   4  24
TORSDOF 7
