REMARK  Name = ZINC39631771
REMARK  11 active torsions:
REMARK  status: ('A' for Active; 'I' for Inactive)
REMARK    1  A    between atoms: C_1  and  C_2
REMARK    2  A    between atoms: C_2  and  C_4
REMARK    3  A    between atoms: C_2  and  N_11
REMARK    4  A    between atoms: C_4  and  C_5
REMARK    5  A    between atoms: C_5  and  C_6
REMARK    6  A    between atoms: C_6  and  C_7
REMARK    7  A    between atoms: C_7  and  C_8
REMARK    8  A    between atoms: C_7  and  C_9
REMARK    9  A    between atoms: C_7  and  O_10
REMARK   10  A    between atoms: C_12  and  C_14
REMARK   11  A    between atoms: C_25  and  C_27
REMARK                            x       y       z     vdW  Elec       q    Type
REMARK                         _______ _______ _______ _____ _____    ______ ____
ROOT
ATOM      1  C   UNL     1       2.799  -0.392   2.236  0.00  0.00    +0.100 C 
ATOM      2  C   UNL     1       2.647   0.314   3.602  0.00  0.00    +0.121 C 
ATOM      3  N   UNL     1       3.980   0.190   4.237  0.00  0.00    -0.296 N 
ATOM      4  C   UNL     1       4.939   0.396   3.125  0.00  0.00    +0.115 C 
ATOM      5  C   UNL     1       4.304  -0.336   1.927  0.00  0.00    -0.004 C 
ATOM      6  C   UNL     1       4.872  -1.747   1.808  0.00  0.00    -0.010 C 
ATOM      7  C   UNL     1       6.357  -1.665   1.444  0.00  0.00    -0.082 C 
ATOM      8  N   UNL     1       6.513  -0.945   0.175  0.00  0.00    +0.379 N 
ATOM      9  C   UNL     1       6.049   0.440   0.324  0.00  0.00    -0.082 C 
ATOM     10  C   UNL     1       4.551   0.447   0.640  0.00  0.00    -0.010 C 
ATOM     11  C   UNL     1       4.258  -0.056   5.533  0.00  0.00    +0.247 C 
ATOM     12  O   UNL     1       3.359  -0.313   6.309  0.00  0.00    -0.270 OA
ATOM     13  H   UNL     1       7.486  -0.945  -0.093  0.00  0.00    -0.086 HD
ATOM     14  H   UNL     1       5.970  -1.405  -0.540  0.00  0.00    -0.086 HD
ENDROOT
BRANCH  11  15
ATOM     15  C   UNL     1       5.660  -0.011   6.011  0.00  0.00    +0.040 A 
ATOM     16  C   UNL     1       6.645   0.666   5.286  0.00  0.00    +0.033 A 
ATOM     17  C   UNL     1       7.939   0.683   5.769  0.00  0.00    +0.111 A 
ATOM     18  N   UNL     1       8.249   0.072   6.896  0.00  0.00    -0.263 NA
ATOM     19  C   UNL     1       7.351  -0.577   7.610  0.00  0.00    +0.111 A 
ATOM     20  C   UNL     1       6.032  -0.639   7.203  0.00  0.00    +0.033 A 
ENDBRANCH  11  15
BRANCH   1  22
ATOM     21  N   UNL     1       1.514  -0.331   0.123  0.00  0.00    -0.312 N 
ATOM     22  C   UNL     1       2.017   0.342   1.176  0.00  0.00    +0.218 C 
ATOM     23  O   UNL     1       1.842   1.538   1.272  0.00  0.00    -0.275 OA
ATOM     24  H   UNL     1       1.654  -1.288   0.047  0.00  0.00    +0.149 HD
BRANCH  21  26
ATOM     25  C   UNL     1      -0.708   0.503  -0.471  0.00  0.00    +0.028 C 
ATOM     26  C   UNL     1       0.754   0.383  -0.907  0.00  0.00    +0.070 C 
BRANCH  26  27
ATOM     27  C   UNL     1       0.832  -0.390  -2.225  0.00  0.00    +0.022 C 
BRANCH  27  28
ATOM     28  C   UNL     1       2.278  -0.403  -2.724  0.00  0.00    +0.005 C 
BRANCH  28  29
ATOM     29  C   UNL     1       2.355  -1.176  -4.043  0.00  0.00    +0.034 C 
BRANCH  29  30
ATOM     30  C   UNL     1       3.802  -1.189  -4.542  0.00  0.00    +0.061 C 
ATOM     31  C   UNL     1       3.860  -1.853  -5.919  0.00  0.00    +0.041 C 
ATOM     32  C   UNL     1       4.318   0.247  -4.646  0.00  0.00    +0.041 C 
BRANCH  30  33
ATOM     33  O   UNL     1       4.616  -1.923  -3.625  0.00  0.00    -0.389 OA
ATOM     34  H   UNL     1       5.547  -1.972  -3.879  0.00  0.00    +0.210 HD
ENDBRANCH  30  33
ENDBRANCH  29  30
ENDBRANCH  28  29
ENDBRANCH  27  28
ENDBRANCH  26  27
ENDBRANCH  21  26
ENDBRANCH   1  22
TORSDOF 8
