REMARK  Name = ZINC12942000
REMARK  7 active torsions:
REMARK  status: ('A' for Active; 'I' for Inactive)
REMARK    1  A    between atoms: C_1  and  C_2
REMARK    2  A    between atoms: C_2  and  C_4
REMARK    3  A    between atoms: C_2  and  N_52
REMARK    4  A    between atoms: C_12  and  N_52
REMARK    5  A    between atoms: C_13  and  C_14
REMARK    6  A    between atoms: C_13  and  N_52
REMARK    7  A    between atoms: N_16  and  N_17
REMARK                            x       y       z     vdW  Elec       q    Type
REMARK                         _______ _______ _______ _____ _____    ______ ____
ROOT
ATOM      1  C   UNL     1      -1.187   1.624   0.017  0.00  0.00    +0.213 C 
ATOM      2  O   UNL     1      -1.204   2.837   0.023  0.00  0.00    -0.276 OA
ATOM      3  N   UNL     1      -0.011   0.966   0.007  0.00  0.00    -0.225 N 
ATOM      4  H   UNL     1       0.002  -0.004   0.002  0.00  0.00    +0.173 HD
ENDROOT
BRANCH   3   5
ATOM      5  N   UNL     1       1.193   1.683  -0.000  0.00  0.00    -0.137 N 
ATOM      6  C   UNL     1       2.002   1.817   1.071  0.00  0.00    +0.263 C 
ATOM      7  O   UNL     1       1.834   1.358   2.180  0.00  0.00    -0.271 OA
ATOM      8  C   UNL     1       3.163   2.660   0.596  0.00  0.00    +0.114 C 
ATOM      9  C   UNL     1       4.469   1.881   0.716  0.00  0.00    +0.035 C 
ATOM     10  C   UNL     1       5.628   2.741   0.204  0.00  0.00    +0.003 C 
ATOM     11  C   UNL     1       5.706   4.030   1.025  0.00  0.00    +0.000 C 
ATOM     12  C   UNL     1       4.399   4.811   0.874  0.00  0.00    +0.003 C 
ATOM     13  C   UNL     1       3.235   3.960   1.389  0.00  0.00    +0.035 C 
ATOM     14  N   UNL     1       2.854   2.932  -0.814  0.00  0.00    -0.284 N 
ATOM     15  C   UNL     1       1.685   2.315  -1.073  0.00  0.00    +0.326 C 
ATOM     16  O   UNL     1       1.137   2.333  -2.157  0.00  0.00    -0.251 OA
ATOM     17  H   UNL     1       3.388   3.450  -1.436  0.00  0.00    +0.151 HD
ENDBRANCH   3   5
BRANCH   1  18
ATOM     18  C   UNL     1      -2.482   0.853   0.018  0.00  0.00    +0.021 C 
BRANCH  18  20
ATOM     19  C   UNL     1      -3.654   2.550   1.287  0.00  0.00    -0.095 C 
ATOM     20  N   UNL     1      -3.607   1.811   0.007  0.00  0.00    +0.388 N 
ATOM     21  H   UNL     1      -3.469   2.479  -0.759  0.00  0.00    -0.081 HD
BRANCH  20  23
ATOM     22  C   UNL     1      -4.834   0.396  -1.569  0.00  0.00    -0.008 C 
ATOM     23  C   UNL     1      -4.881   1.091  -0.207  0.00  0.00    -0.040 C 
BRANCH  23  24
ATOM     24  C   UNL     1      -6.014   2.085  -0.189  0.00  0.00    -0.058 A 
ATOM     25  C   UNL     1      -7.212   1.756   0.417  0.00  0.00    +0.005 A 
ATOM     26  C   UNL     1      -8.252   2.666   0.435  0.00  0.00    +0.041 A 
ATOM     27  C   UNL     1      -8.095   3.908  -0.154  0.00  0.00    +0.158 A 
ATOM     28  C   UNL     1      -6.894   4.239  -0.762  0.00  0.00    +0.159 A 
ATOM     29  C   UNL     1      -5.852   3.327  -0.774  0.00  0.00    +0.043 A 
ATOM     30  F   UNL     1      -6.738   5.451  -1.337  0.00  0.00    -0.202 F 
ATOM     31  F   UNL     1      -9.111   4.798  -0.137  0.00  0.00    -0.202 F 
ENDBRANCH  23  24
ENDBRANCH  20  23
ENDBRANCH  18  20
ENDBRANCH   1  18
TORSDOF 5
