REMARK  Name = ZINC02076123
REMARK  5 active torsions:
REMARK  status: ('A' for Active; 'I' for Inactive)
REMARK    1  A    between atoms: C_1  and  C_2
REMARK    2  A    between atoms: C_4  and  C_17
REMARK    3  A    between atoms: C_5  and  C_16
REMARK    4  A    between atoms: N_6  and  C_7
REMARK    5  A    between atoms: N_23  and  C_24
REMARK                            x       y       z     vdW  Elec       q    Type
REMARK                         _______ _______ _______ _____ _____    ______ ____
ROOT
ATOM      1  C   UNL     1       1.205  -3.845  -1.186  0.00  0.00    +0.030 C 
ATOM      2  C   UNL     1       1.388  -3.671  -2.522  0.00  0.00    +0.078 C 
ATOM      3  C   UNL     1       1.801  -2.466  -3.259  0.00  0.00    +0.256 C 
ATOM      4  O   UNL     1       2.037  -1.419  -2.684  0.00  0.00    -0.269 OA
ATOM      5  N   UNL     1       1.903  -2.570  -4.573  0.00  0.00    -0.260 N 
ATOM      6  C   UNL     1       1.631  -3.763  -5.206  0.00  0.00    +0.166 C 
ATOM      7  N   UNL     1       1.682  -4.038  -6.490  0.00  0.00    -0.224 NA
ATOM      8  S   UNL     1       1.199  -4.847  -3.854  0.00  0.00    -0.049 S 
ATOM      9  H   UNL     1       2.172  -1.799  -5.096  0.00  0.00    +0.157 HD
ENDROOT
BRANCH   7  10
ATOM     10  C   UNL     1       1.296  -5.271  -6.942  0.00  0.00    +0.086 A 
ATOM     11  C   UNL     1       0.071  -5.812  -6.544  0.00  0.00    +0.029 A 
ATOM     12  C   UNL     1      -0.312  -7.055  -7.003  0.00  0.00    +0.004 A 
ATOM     13  C   UNL     1       0.513  -7.768  -7.855  0.00  0.00    +0.021 A 
ATOM     14  C   UNL     1       1.729  -7.239  -8.254  0.00  0.00    +0.061 A 
ATOM     15  C   UNL     1       2.123  -5.992  -7.807  0.00  0.00    +0.085 A 
ATOM     16 CL   UNL     1       3.644  -5.327  -8.314  0.00  0.00    -0.080 Cl
ATOM     17 CL   UNL     1       2.758  -8.141  -9.323  0.00  0.00    -0.082 Cl
ENDBRANCH   7  10
BRANCH   1  21
ATOM     18  C   UNL     1       0.745   0.871   0.696  0.00  0.00    +0.064 C 
ATOM     19  C   UNL     1       1.042  -0.597   0.533  0.00  0.00    +0.022 A 
ATOM     20  C   UNL     1       0.815  -1.320  -0.577  0.00  0.00    +0.031 A 
ATOM     21  C   UNL     1       1.253  -2.690  -0.283  0.00  0.00    -0.003 A 
ATOM     22  C   UNL     1       1.719  -2.670   1.017  0.00  0.00    +0.028 A 
ATOM     23  N   UNL     1       1.590  -1.405   1.490  0.00  0.00    -0.317 N 
ATOM     24  C   UNL     1       2.278  -3.846   1.775  0.00  0.00    +0.064 C 
BRANCH  23  25
ATOM     25  C   UNL     1       1.961  -0.987   2.776  0.00  0.00    +0.050 A 
ATOM     26  C   UNL     1       3.298  -1.004   3.152  0.00  0.00    +0.030 A 
ATOM     27  C   UNL     1       3.665  -0.593   4.419  0.00  0.00    +0.051 A 
ATOM     28  C   UNL     1       2.702  -0.163   5.318  0.00  0.00    +0.166 A 
ATOM     29  C   UNL     1       1.361  -0.144   4.943  0.00  0.00    +0.168 A 
ATOM     30  C   UNL     1       0.994  -0.551   3.671  0.00  0.00    +0.075 A 
ATOM     31  O   UNL     1       0.620   0.315   5.994  0.00  0.00    -0.453 OA
ATOM     32  C   UNL     1       1.472   0.189   7.148  0.00  0.00    +0.466 C 
ATOM     33  O   UNL     1       2.801   0.285   6.604  0.00  0.00    -0.453 OA
ENDBRANCH  23  25
ENDBRANCH   1  21
TORSDOF 3
