REMARK  Name = ZINC09345709
REMARK  8 active torsions:
REMARK  status: ('A' for Active; 'I' for Inactive)
REMARK    1  A    between atoms: C_1  and  C_2
REMARK    2  A    between atoms: C_5  and  C_8
REMARK    3  A    between atoms: C_14  and  C_29
REMARK    4  A    between atoms: C_19  and  C_21
REMARK    5  A    between atoms: C_24  and  S_27
REMARK    6  A    between atoms: S_27  and  C_28
REMARK    7  A    between atoms: C_34  and  S_36
REMARK    8  A    between atoms: S_36  and  C_37
REMARK                            x       y       z     vdW  Elec       q    Type
REMARK                         _______ _______ _______ _____ _____    ______ ____
ROOT
ATOM      1  C   UNL     1      -0.016  -4.166  -0.235  0.00  0.00    +0.159 C 
ATOM      2  C   UNL     1       1.404  -4.655  -0.055  0.00  0.00    +0.025 C 
ATOM      3  C   UNL     1       1.683  -5.414   1.025  0.00  0.00    +0.058 C 
ATOM      4  C   UNL     1       3.079  -5.894   1.182  0.00  0.00    +0.040 A 
ATOM      5  C   UNL     1       3.541  -6.397   2.391  0.00  0.00    +0.017 A 
ATOM      6  C   UNL     1       4.848  -6.831   2.494  0.00  0.00    -0.050 A 
ATOM      7  C   UNL     1       5.693  -6.766   1.400  0.00  0.00    +0.007 A 
ATOM      8  C   UNL     1       5.240  -6.267   0.192  0.00  0.00    +0.046 A 
ATOM      9  C   UNL     1       3.933  -5.829   0.074  0.00  0.00    +0.131 A 
ATOM     10  O   UNL     1       3.460  -5.341  -1.101  0.00  0.00    -0.479 OA
ATOM     11  C   UNL     1       2.480  -4.303  -1.040  0.00  0.00    +0.234 C 
ATOM     12  C   UNL     1       5.357  -7.378   3.803  0.00  0.00    +0.044 C 
ATOM     13  N   UNL     1       0.729  -5.730   1.934  0.00  0.00    -0.326 N 
ATOM     14  C   UNL     1      -0.528  -5.347   1.855  0.00  0.00    +0.216 C 
ATOM     15  N   UNL     1      -0.969  -4.569   0.807  0.00  0.00    -0.209 N 
ATOM     16  N   UNL     1      -2.331  -4.341   1.019  0.00  0.00    -0.239 N 
ATOM     17  C   UNL     1      -2.652  -4.985   2.185  0.00  0.00    +0.174 C 
ATOM     18  N   UNL     1      -1.583  -5.572   2.659  0.00  0.00    -0.192 NA
ATOM     19  H   UNL     1       0.990  -6.274   2.693  0.00  0.00    +0.169 HD
ATOM     20  H   UNL     1      -2.929  -3.829   0.454  0.00  0.00    +0.172 HD
ENDROOT
BRANCH   1  25
ATOM     21  C   UNL     1       0.077   1.608  -0.456  0.00  0.00    +0.044 C 
ATOM     22  C   UNL     1       0.053   0.102  -0.398  0.00  0.00    -0.050 A 
ATOM     23  C   UNL     1      -0.071  -0.632  -1.563  0.00  0.00    +0.004 A 
ATOM     24  C   UNL     1      -0.094  -2.014  -1.510  0.00  0.00    +0.006 A 
ATOM     25  C   UNL     1       0.009  -2.660  -0.293  0.00  0.00    -0.021 A 
ATOM     26  C   UNL     1       0.134  -1.926   0.872  0.00  0.00    +0.006 A 
ATOM     27  C   UNL     1       0.161  -0.545   0.819  0.00  0.00    +0.004 A 
ENDBRANCH   1  25
BRANCH  11  28
ATOM     28  C   UNL     1       3.142  -3.017  -0.616  0.00  0.00    -0.003 A 
ATOM     29  C   UNL     1       2.930  -1.860  -1.343  0.00  0.00    +0.008 A 
ATOM     30  C   UNL     1       3.536  -0.680  -0.958  0.00  0.00    +0.015 A 
ATOM     31  C   UNL     1       4.359  -0.656   0.161  0.00  0.00    +0.008 A 
ATOM     32  C   UNL     1       4.569  -1.821   0.889  0.00  0.00    +0.015 A 
ATOM     33  C   UNL     1       3.956  -2.996   0.502  0.00  0.00    +0.008 A 
BRANCH  31  34
ATOM     34  S   UNL     1       5.134   0.847   0.656  0.00  0.00    -0.129 S 
ATOM     35  C   UNL     1       6.083   0.386   2.132  0.00  0.00    +0.090 C 
ENDBRANCH  31  34
ENDBRANCH  11  28
BRANCH  17  36
ATOM     36  S   UNL     1      -4.251  -5.023   2.925  0.00  0.00    -0.092 S 
ATOM     37  C   UNL     1      -4.018  -6.021   4.421  0.00  0.00    +0.093 C 
ENDBRANCH  17  36
TORSDOF 4
