REMARK  Name = ZINC40487561
REMARK  10 active torsions:
REMARK  status: ('A' for Active; 'I' for Inactive)
REMARK    1  A    between atoms: C_1  and  C_2
REMARK    2  A    between atoms: C_2  and  C_4
REMARK    3  A    between atoms: C_4  and  S_5
REMARK    4  A    between atoms: S_5  and  C_6
REMARK    5  A    between atoms: C_7  and  C_33
REMARK    6  A    between atoms: C_8  and  C_26
REMARK    7  A    between atoms: C_10  and  C_19
REMARK    8  A    between atoms: C_12  and  C_14
REMARK    9  A    between atoms: C_12  and  O_18
REMARK   10  A    between atoms: C_19  and  C_21
REMARK                            x       y       z     vdW  Elec       q    Type
REMARK                         _______ _______ _______ _____ _____    ______ ____
ROOT
ATOM      1  C   UNL     1      -3.207  -1.152   3.222  0.00  0.00    +0.078 C 
ATOM      2  C   UNL     1      -4.301  -1.776   3.731  0.00  0.00    +0.065 C 
ATOM      3  C   UNL     1      -5.366  -2.373   2.855  0.00  0.00    +0.078 C 
ATOM      4  C   UNL     1      -4.817  -2.614   1.447  0.00  0.00    +0.132 C 
ATOM      5  C   UNL     1      -4.132  -1.331   0.959  0.00  0.00    +0.239 C 
ATOM      6  N   UNL     1      -3.013  -1.040   1.865  0.00  0.00    -0.303 N 
ATOM      7  H   UNL     1      -2.150  -0.775   1.511  0.00  0.00    +0.150 HD
ENDROOT
BRANCH   3   8
ATOM      8  C   UNL     1      -6.536  -1.426   2.775  0.00  0.00    -0.020 A 
ATOM      9  C   UNL     1      -6.342  -0.070   2.961  0.00  0.00    +0.006 A 
ATOM     10  C   UNL     1      -7.415   0.798   2.888  0.00  0.00    +0.000 A 
ATOM     11  C   UNL     1      -8.683   0.311   2.630  0.00  0.00    +0.001 A 
ATOM     12  C   UNL     1      -8.878  -1.044   2.444  0.00  0.00    +0.020 A 
ATOM     13  C   UNL     1      -7.803  -1.913   2.511  0.00  0.00    +0.045 A 
ATOM     14 CL   UNL     1      -8.047  -3.616   2.272  0.00  0.00    -0.083 Cl
ENDBRANCH   3   8
BRANCH   5  15
ATOM     15  C   UNL     1      -3.608  -1.532  -0.465  0.00  0.00    +0.436 C 
ATOM     16  F   UNL     1      -4.676  -1.839  -1.315  0.00  0.00    -0.166 F 
ATOM     17  F   UNL     1      -2.985  -0.359  -0.903  0.00  0.00    -0.166 F 
ATOM     18  F   UNL     1      -2.685  -2.583  -0.477  0.00  0.00    -0.166 F 
ENDBRANCH   5  15
BRANCH   5  19
ATOM     19  O   UNL     1      -5.062  -0.246   0.983  0.00  0.00    -0.364 OA
ATOM     20  H   UNL     1      -4.674   0.611   0.761  0.00  0.00    +0.212 HD
ENDBRANCH   5  19
BRANCH   4  21
ATOM     21  C   UNL     1      -3.818  -3.743   1.480  0.00  0.00    +0.178 C 
ATOM     22  O   UNL     1      -3.228  -4.000   2.510  0.00  0.00    -0.291 OA
BRANCH  21  23
ATOM     23  C   UNL     1      -3.570  -4.500   0.315  0.00  0.00    +0.055 A 
ATOM     24  C   UNL     1      -2.703  -5.574   0.135  0.00  0.00    +0.019 A 
ATOM     25  C   UNL     1      -2.678  -6.113  -1.127  0.00  0.00    +0.008 A 
ATOM     26  C   UNL     1      -3.475  -5.580  -2.088  0.00  0.00    +0.046 A 
ATOM     27  S   UNL     1      -4.290  -4.336  -1.308  0.00  0.00    -0.094 S 
ENDBRANCH  21  23
ENDBRANCH   4  21
BRANCH   2  28
ATOM     28  C   UNL     1      -4.445  -1.867   5.153  0.00  0.00    +0.098 C 
ATOM     29  N   UNL     1      -4.559  -1.940   6.281  0.00  0.00    -0.191 NA
ENDBRANCH   2  28
BRANCH   1  30
ATOM     30  S   UNL     1      -2.014  -0.468   4.323  0.00  0.00    -0.105 S 
BRANCH  30  31
ATOM     31  C   UNL     1      -0.764   0.252   3.223  0.00  0.00    +0.105 C 
BRANCH  31  33
ATOM     32  C   UNL     1       0.088   2.195   4.744  0.00  0.00    +0.039 C 
ATOM     33  C   UNL     1       0.330   0.880   4.048  0.00  0.00    -0.070 C 
ATOM     34  C   UNL     1       1.490   0.283   4.160  0.00  0.00    +0.008 C 
ENDBRANCH  31  33
ENDBRANCH  30  31
ENDBRANCH   1  30
TORSDOF 9
