REMARK  Name = ZINC36863775
REMARK  5 active torsions:
REMARK  status: ('A' for Active; 'I' for Inactive)
REMARK    1  A    between atoms: C_1  and  C_2
REMARK    2  A    between atoms: C_2  and  C_3
REMARK    3  A    between atoms: C_2  and  N_4
REMARK    4  A    between atoms: C_6  and  N_23
REMARK    5  A    between atoms: C_8  and  C_9
REMARK                            x       y       z     vdW  Elec       q    Type
REMARK                         _______ _______ _______ _____ _____    ______ ____
ROOT
ATOM      1  C   UNL     1       2.427  -1.935  -0.069  0.00  0.00    +0.263 C 
ATOM      2  O   UNL     1       3.442  -2.591  -0.217  0.00  0.00    -0.268 OA
ATOM      3  N   UNL     1       1.891  -1.793   1.159  0.00  0.00    -0.296 N 
ATOM      4  C   UNL     1       0.586  -1.140   1.336  0.00  0.00    +0.108 C 
ATOM      5  C   UNL     1       0.736  -0.008   2.356  0.00  0.00    +0.023 C 
ATOM      6  C   UNL     1       1.337  -0.565   3.649  0.00  0.00    -0.005 C 
ATOM      7  C   UNL     1       1.467   0.566   4.673  0.00  0.00    +0.004 C 
ATOM      8  C   UNL     1       2.366   1.665   4.103  0.00  0.00    +0.000 C 
ATOM      9  C   UNL     1       3.751   1.089   3.803  0.00  0.00    +0.000 C 
ATOM     10  C   UNL     1       3.622  -0.048   2.786  0.00  0.00    +0.005 C 
ATOM     11  C   UNL     1       2.720  -1.151   3.359  0.00  0.00    +0.010 C 
ATOM     12  C   UNL     1       2.596  -2.292   2.348  0.00  0.00    +0.112 C 
ENDROOT
BRANCH   1  17
ATOM     13  N   UNL     1       1.870  -1.722  -2.532  0.00  0.00    -0.339 N 
ATOM     14  C   UNL     1       1.140  -0.879  -3.310  0.00  0.00    +0.109 A 
ATOM     15  C   UNL     1       0.597   0.084  -2.519  0.00  0.00    +0.043 A 
ATOM     16  C   UNL     1       1.002  -0.167  -1.201  0.00  0.00    +0.055 A 
ATOM     17  C   UNL     1       1.789  -1.299  -1.226  0.00  0.00    +0.107 A 
BRANCH  13  19
ATOM     18  C   UNL     1       1.675  -3.811  -3.791  0.00  0.00    +0.030 C 
ATOM     19  C   UNL     1       2.614  -2.892  -3.006  0.00  0.00    +0.081 C 
ATOM     20  C   UNL     1       3.757  -2.436  -3.915  0.00  0.00    +0.030 C 
ENDBRANCH  13  19
BRANCH  15  21
ATOM     21  N   UNL     1      -0.224   1.143  -2.948  0.00  0.00    -0.357 N 
ATOM     22  H   UNL     1      -0.449   1.233  -3.888  0.00  0.00    +0.142 HD
ATOM     23  H   UNL     1      -0.565   1.784  -2.304  0.00  0.00    +0.142 HD
ENDBRANCH  15  21
ENDBRANCH   1  17
TORSDOF 3
