REMARK  Name = ZINC04553672
REMARK  10 active torsions:
REMARK  status: ('A' for Active; 'I' for Inactive)
REMARK    1  A    between atoms: C_1  and  C_2
REMARK    2  A    between atoms: C_2  and  C_3
REMARK    3  A    between atoms: C_3  and  C_4
REMARK    4  A    between atoms: C_3  and  C_5
REMARK    5  A    between atoms: C_3  and  C_6
REMARK    6  A    between atoms: C_15  and  O_30
REMARK    7  A    between atoms: C_17  and  C_20
REMARK    8  A    between atoms: C_23  and  C_26
REMARK    9  A    between atoms: C_26  and  O_28
REMARK   10  A    between atoms: O_28  and  C_29
REMARK                            x       y       z     vdW  Elec       q    Type
REMARK                         _______ _______ _______ _____ _____    ______ ____
ROOT
ATOM      1  C   UNL     1       0.739  -2.027  -1.265  0.00  0.00    -0.000 C 
ATOM      2  C   UNL     1       1.461  -2.524  -2.521  0.00  0.00    +0.009 C 
ATOM      3  C   UNL     1       1.274  -4.035  -2.666  0.00  0.00    +0.037 C 
ATOM      4  C   UNL     1       1.675  -4.705  -1.360  0.00  0.00    -0.023 A 
ATOM      5  C   UNL     1       1.759  -4.000  -0.209  0.00  0.00    -0.004 A 
ATOM      6  S   UNL     1       2.252  -5.184   1.013  0.00  0.00    -0.078 S 
ATOM      7  C   UNL     1       2.339  -6.539   0.062  0.00  0.00    +0.080 A 
ATOM      8  C   UNL     1       1.997  -6.114  -1.227  0.00  0.00    +0.068 A 
ATOM      9  C   UNL     1       2.006  -7.133  -2.309  0.00  0.00    +0.220 C 
ATOM     10  N   UNL     1       2.084  -8.388  -1.959  0.00  0.00    -0.223 NA
ATOM     11  C   UNL     1       2.098  -8.862  -0.581  0.00  0.00    +0.224 C 
ATOM     12  N   UNL     1       2.655  -7.851   0.336  0.00  0.00    -0.313 N 
ATOM     13  C   UNL     1       1.487  -2.539  -0.025  0.00  0.00    +0.046 C 
ATOM     14  H   UNL     1       3.213  -8.097   1.091  0.00  0.00    +0.149 HD
ENDROOT
BRANCH  11  15
ATOM     15  C   UNL     1       0.687  -9.184  -0.158  0.00  0.00    -0.005 A 
ATOM     16  C   UNL     1       0.317  -9.043   1.168  0.00  0.00    +0.008 A 
ATOM     17  C   UNL     1      -0.972  -9.336   1.562  0.00  0.00    +0.015 A 
ATOM     18  C   UNL     1      -1.904  -9.775   0.620  0.00  0.00    +0.059 A 
ATOM     19  C   UNL     1      -1.524  -9.915  -0.716  0.00  0.00    +0.015 A 
ATOM     20  C   UNL     1      -0.233  -9.613  -1.098  0.00  0.00    +0.008 A 
BRANCH  18  21
ATOM     21  C   UNL     1      -3.286 -10.092   1.035  0.00  0.00    +0.339 C 
ATOM     22  O   UNL     1      -3.614  -9.970   2.198  0.00  0.00    -0.245 OA
BRANCH  21  23
ATOM     23  O   UNL     1      -4.183 -10.515   0.123  0.00  0.00    -0.464 OA
ATOM     24  C   UNL     1      -5.501 -10.803   0.595  0.00  0.00    +0.280 C 
ENDBRANCH  21  23
ENDBRANCH  18  21
ENDBRANCH  11  15
BRANCH   1  25
ATOM     25  C   UNL     1       0.718  -0.497  -1.257  0.00  0.00    -0.032 C 
ATOM     26  C   UNL     1      -0.022   0.009  -2.496  0.00  0.00    +0.011 C 
ATOM     27  C   UNL     1       2.154   0.032  -1.268  0.00  0.00    +0.011 C 
BRANCH  25  29
ATOM     28  C   UNL     1      -0.019   1.526   0.010  0.00  0.00    +0.004 C 
ATOM     29  C   UNL     1       0.002  -0.004   0.002  0.00  0.00    +0.003 C 
ENDBRANCH  25  29
ENDBRANCH   1  25
BRANCH   9  30
ATOM     30  O   UNL     1       1.937  -6.771  -3.611  0.00  0.00    -0.492 OA
ATOM     31  H   UNL     1       1.950  -7.517  -4.228  0.00  0.00    +0.294 HD
ENDBRANCH   9  30
TORSDOF 6
