REMARK  Name = ZINC04885030
REMARK  7 active torsions:
REMARK  status: ('A' for Active; 'I' for Inactive)
REMARK    1  A    between atoms: C_1  and  C_2
REMARK    2  A    between atoms: C_2  and  N_3
REMARK    3  A    between atoms: C_8  and  C_25
REMARK    4  A    between atoms: C_10  and  C_15
REMARK    5  A    between atoms: C_10  and  C_21
REMARK    6  A    between atoms: C_21  and  O_23
REMARK    7  A    between atoms: O_23  and  C_24
REMARK                            x       y       z     vdW  Elec       q    Type
REMARK                         _______ _______ _______ _____ _____    ______ ____
ROOT
ATOM      1  N   UNL     1       1.671   5.236  -3.222  0.00  0.00    -0.242 N 
ATOM      2  C   UNL     1       2.181   4.245  -2.421  0.00  0.00    +0.224 C 
ATOM      3  O   UNL     1       3.209   3.624  -2.582  0.00  0.00    -0.275 OA
ATOM      4  C   UNL     1       1.230   4.104  -1.347  0.00  0.00    +0.077 C 
ATOM      5  C   UNL     1       1.137   3.585   0.028  0.00  0.00    -0.023 C 
ATOM      6  C   UNL     1      -0.524   5.305  -0.354  0.00  0.00    +0.070 C 
ATOM      7  C   UNL     1       0.725   5.587  -1.170  0.00  0.00    +0.090 C 
ATOM      8  C   UNL     1       0.651   5.925  -2.626  0.00  0.00    +0.225 C 
ATOM      9  O   UNL     1      -0.148   6.659  -3.165  0.00  0.00    -0.275 OA
ATOM     10  N   UNL     1      -0.189   4.116   0.474  0.00  0.00    +0.398 N 
ATOM     11  H   UNL     1      -0.139   4.386   1.464  0.00  0.00    -0.083 HD
ATOM     12  H   UNL     1      -0.909   3.394   0.352  0.00  0.00    -0.083 HD
ENDROOT
BRANCH   5  13
ATOM     13  C   UNL     1       1.148   2.078   0.033  0.00  0.00    -0.025 A 
ATOM     14  C   UNL     1      -0.043   1.378   0.059  0.00  0.00    +0.005 A 
ATOM     15  C   UNL     1      -0.034  -0.004   0.063  0.00  0.00    +0.000 A 
ATOM     16  C   UNL     1       1.167  -0.688   0.042  0.00  0.00    +0.003 A 
ATOM     17  C   UNL     1       2.360   0.009   0.016  0.00  0.00    +0.038 A 
ATOM     18  C   UNL     1       2.352   1.394   0.012  0.00  0.00    +0.125 A 
ATOM     19  F   UNL     1       3.517   2.077  -0.013  0.00  0.00    -0.205 F 
ENDBRANCH   5  13
BRANCH   6  20
ATOM     20  C   UNL     1      -1.685   4.998  -1.265  0.00  0.00    -0.047 A 
ATOM     21  C   UNL     1      -1.938   3.694  -1.647  0.00  0.00    +0.003 A 
ATOM     22  C   UNL     1      -3.006   3.413  -2.479  0.00  0.00    +0.000 A 
ATOM     23  C   UNL     1      -3.815   4.436  -2.936  0.00  0.00    +0.000 A 
ATOM     24  C   UNL     1      -3.558   5.741  -2.558  0.00  0.00    +0.000 A 
ATOM     25  C   UNL     1      -2.494   6.022  -1.722  0.00  0.00    +0.003 A 
ENDBRANCH   6  20
BRANCH   1  27
ATOM     26  C   UNL     1       3.288   6.559  -4.493  0.00  0.00    +0.025 C 
ATOM     27  C   UNL     1       2.164   5.524  -4.571  0.00  0.00    +0.113 C 
ENDBRANCH   1  27
BRANCH   6  28
ATOM     28  C   UNL     1      -0.850   6.484   0.526  0.00  0.00    +0.301 C 
ATOM     29  O   UNL     1      -0.512   7.596   0.195  0.00  0.00    -0.252 OA
BRANCH  28  30
ATOM     30  O   UNL     1      -1.516   6.300   1.676  0.00  0.00    -0.469 OA
ATOM     31  C   UNL     1      -1.796   7.481   2.473  0.00  0.00    +0.280 C 
ENDBRANCH  28  30
ENDBRANCH   6  28
TORSDOF 5
