REMARK  Name = ZINC07387772
REMARK  6 active torsions:
REMARK  status: ('A' for Active; 'I' for Inactive)
REMARK    1  A    between atoms: C_1  and  C_2
REMARK    2  A    between atoms: C_5  and  S_9
REMARK    3  A    between atoms: C_6  and  C_8
REMARK    4  A    between atoms: S_9  and  N_12
REMARK    5  A    between atoms: N_12  and  N_13
REMARK    6  A    between atoms: C_14  and  C_16
REMARK                            x       y       z     vdW  Elec       q    Type
REMARK                         _______ _______ _______ _____ _____    ______ ____
ROOT
ATOM      1  N   UNL     1       1.223  -5.080   1.718  0.00  0.00    -0.227 N 
ATOM      2  C   UNL     1       1.328  -6.156   2.522  0.00  0.00    +0.265 C 
ATOM      3  O   UNL     1       1.347  -7.275   2.042  0.00  0.00    -0.268 OA
ATOM      4  H   UNL     1       1.208  -4.189   2.100  0.00  0.00    +0.171 HD
ENDROOT
BRANCH   2   5
ATOM      5  C   UNL     1       1.420  -5.980   3.974  0.00  0.00    +0.076 A 
ATOM      6  C   UNL     1       1.538  -6.933   4.962  0.00  0.00    +0.024 A 
ATOM      7  C   UNL     1       1.579  -6.477   6.283  0.00  0.00    -0.036 A 
ATOM      8  C   UNL     1       1.458  -5.149   6.474  0.00  0.00    -0.006 A 
ATOM      9  S   UNL     1       1.416  -4.477   4.929  0.00  0.00    -0.088 S 
ATOM     10  C   UNL     1       1.297  -4.309   7.716  0.00  0.00    +0.043 C 
ATOM     11  C   UNL     1       1.249  -5.156   8.988  0.00  0.00    +0.005 C 
ATOM     12  C   UNL     1       2.646  -5.574   9.415  0.00  0.00    +0.000 C 
ATOM     13  C   UNL     1       3.545  -5.910   8.243  0.00  0.00    +0.000 C 
ATOM     14  C   UNL     1       3.261  -7.369   7.868  0.00  0.00    +0.005 C 
ATOM     15  C   UNL     1       1.811  -7.486   7.399  0.00  0.00    +0.036 C 
ENDBRANCH   2   5
BRANCH   1  16
ATOM     16  N   UNL     1       1.135  -5.248   0.330  0.00  0.00    -0.108 NA
ATOM     17  H   UNL     1       1.819  -5.748  -0.142  0.00  0.00    +0.172 HD
BRANCH  16  18
ATOM     18  S   UNL     1      -0.137  -4.595  -0.505  0.00  0.00    +0.074 S 
ATOM     19  O   UNL     1      -1.321  -5.104   0.095  0.00  0.00    -0.152 OA
ATOM     20  O   UNL     1       0.152  -4.766  -1.885  0.00  0.00    -0.152 OA
BRANCH  18  25
ATOM     21  C   UNL     1      -0.092   1.347   0.545  0.00  0.00    +0.044 C 
ATOM     22  C   UNL     1      -0.103  -0.137   0.283  0.00  0.00    -0.050 A 
ATOM     23  C   UNL     1      -1.162  -0.909   0.725  0.00  0.00    +0.005 A 
ATOM     24  C   UNL     1      -1.172  -2.270   0.484  0.00  0.00    +0.029 A 
ATOM     25  C   UNL     1      -0.125  -2.860  -0.199  0.00  0.00    +0.110 A 
ATOM     26  C   UNL     1       0.933  -2.088  -0.642  0.00  0.00    -0.024 A 
ATOM     27  C   UNL     1       0.941  -0.726  -0.405  0.00  0.00    +0.008 A 
ATOM     28  C   UNL     1       2.075  -2.730  -1.386  0.00  0.00    +0.046 C 
ENDBRANCH  18  25
ENDBRANCH  16  18
ENDBRANCH   1  16
TORSDOF 4
