REMARK  Name = ZINC01629153
REMARK  14 active torsions:
REMARK  status: ('A' for Active; 'I' for Inactive)
REMARK    1  A    between atoms: C_1  and  C_2
REMARK    2  A    between atoms: C_2  and  S_3
REMARK    3  A    between atoms: S_3  and  C_4
REMARK    4  A    between atoms: C_4  and  S_24
REMARK    5  A    between atoms: C_6  and  C_15
REMARK    6  A    between atoms: C_11  and  C_12
REMARK    7  A    between atoms: C_11  and  C_13
REMARK    8  A    between atoms: C_11  and  C_14
REMARK    9  A    between atoms: C_11  and  N_60
REMARK   10  A    between atoms: C_15  and  C_16
REMARK   11  A    between atoms: C_19  and  O_22
REMARK   12  A    between atoms: O_22  and  C_23
REMARK   13  A    between atoms: S_24  and  C_25
REMARK   14  A    between atoms: C_25  and  C_26
REMARK                            x       y       z     vdW  Elec       q    Type
REMARK                         _______ _______ _______ _____ _____    ______ ____
ROOT
ATOM      1  C   UNL     1      -0.894   1.999   0.130  0.00  0.00    +0.079 C 
ATOM      2  C   UNL     1       0.480   2.594  -0.273  0.00  0.00    +0.052 C 
ATOM      3  C   UNL     1       1.479   1.534   0.237  0.00  0.00    +0.081 C 
ATOM      4  N   UNL     1       0.745   0.266   0.361  0.00  0.00    -0.317 N 
ATOM      5  C   UNL     1      -0.648   0.483  -0.071  0.00  0.00    +0.134 C 
ATOM      6  C   UNL     1       1.268  -0.920   0.804  0.00  0.00    +0.154 C 
ATOM      7  N   UNL     1       0.472  -1.983   0.784  0.00  0.00    -0.374 N 
ATOM      8  H   UNL     1      -0.457  -1.921   0.350  0.00  0.00    +0.161 HD
ENDROOT
BRANCH   7   9
ATOM      9  C   UNL     1       0.930  -3.276   1.398  0.00  0.00    +0.031 C 
ATOM     10  C   UNL     1       1.123  -3.114   2.907  0.00  0.00    +0.033 C 
ATOM     11  C   UNL     1      -0.162  -4.314   1.133  0.00  0.00    +0.033 C 
ATOM     12  C   UNL     1       2.241  -3.743   0.764  0.00  0.00    +0.033 C 
ENDBRANCH   7   9
BRANCH   1  13
ATOM     13  S   UNL     1      -2.209   2.596  -0.969  0.00  0.00    -0.142 S 
BRANCH  13  15
ATOM     14  C   UNL     1      -3.559   4.950  -1.306  0.00  0.00    +0.015 C 
ATOM     15  C   UNL     1      -2.388   4.346  -0.528  0.00  0.00    +0.067 C 
ENDBRANCH  13  15
ENDBRANCH   1  13
BRANCH   3  16
ATOM     16  C   UNL     1       2.628   1.374  -0.760  0.00  0.00    +0.057 C 
BRANCH  16  17
ATOM     17  C   UNL     1       3.658   0.431  -0.193  0.00  0.00    -0.045 A 
ATOM     18  C   UNL     1       4.593   0.895   0.715  0.00  0.00    +0.007 A 
ATOM     19  C   UNL     1       5.534   0.031   1.241  0.00  0.00    +0.046 A 
ATOM     20  C   UNL     1       5.548  -1.300   0.849  0.00  0.00    +0.120 A 
ATOM     21  C   UNL     1       4.613  -1.761  -0.066  0.00  0.00    +0.046 A 
ATOM     22  C   UNL     1       3.670  -0.895  -0.585  0.00  0.00    +0.007 A 
BRANCH  20  23
ATOM     23  O   UNL     1       6.477  -2.150   1.361  0.00  0.00    -0.495 OA
ATOM     24  C   UNL     1       7.408  -1.606   2.298  0.00  0.00    +0.277 C 
ENDBRANCH  20  23
ENDBRANCH  16  17
ENDBRANCH   3  16
BRANCH   1  25
ATOM     25  S   UNL     1      -1.281   2.371   1.863  0.00  0.00    -0.142 S 
BRANCH  25  26
ATOM     26  C   UNL     1      -2.844   1.500   2.161  0.00  0.00    +0.067 C 
ATOM     27  C   UNL     1      -3.355   1.835   3.564  0.00  0.00    +0.015 C 
ENDBRANCH  25  26
ENDBRANCH   1  25
TORSDOF 8
