REMARK  Name = ZINC33661945
REMARK  10 active torsions:
REMARK  status: ('A' for Active; 'I' for Inactive)
REMARK    1  A    between atoms: C_1  and  C_2
REMARK    2  A    between atoms: C_2  and  C_3
REMARK    3  A    between atoms: C_2  and  C_4
REMARK    4  A    between atoms: C_2  and  N_5
REMARK    5  A    between atoms: C_10  and  C_32
REMARK    6  A    between atoms: C_13  and  C_18
REMARK    7  A    between atoms: C_13  and  C_29
REMARK    8  A    between atoms: C_18  and  C_19
REMARK    9  A    between atoms: C_35  and  O_42
REMARK   10  A    between atoms: O_42  and  C_43
REMARK                            x       y       z     vdW  Elec       q    Type
REMARK                         _______ _______ _______ _____ _____    ______ ____
ROOT
ATOM      1  N   UNL     1      -5.449  -3.523   3.652  0.00  0.00    -0.236 N 
ATOM      2  C   UNL     1      -5.298  -2.171   3.832  0.00  0.00    +0.225 C 
ATOM      3  O   UNL     1      -4.650  -1.607   4.688  0.00  0.00    -0.275 OA
ATOM      4  C   UNL     1      -6.075  -1.547   2.762  0.00  0.00    +0.077 C 
ATOM      5  C   UNL     1      -5.966  -0.276   2.001  0.00  0.00    -0.026 C 
ATOM      6  N   UNL     1      -6.544  -0.588   0.653  0.00  0.00    +0.396 N 
ATOM      7  C   UNL     1      -6.816  -2.065   0.611  0.00  0.00    +0.052 C 
ATOM      8  C   UNL     1      -5.824  -2.606   1.613  0.00  0.00    +0.086 C 
ATOM      9  C   UNL     1      -5.975  -3.834   2.425  0.00  0.00    +0.225 C 
ATOM     10  O   UNL     1      -6.460  -4.890   2.079  0.00  0.00    -0.275 OA
ATOM     11  H   UNL     1      -7.476  -0.021   0.514  0.00  0.00    -0.083 HD
ATOM     12  H   UNL     1      -5.824  -0.307  -0.129  0.00  0.00    -0.083 HD
ENDROOT
BRANCH   5  13
ATOM     13  C   UNL     1      -4.522   0.137   1.871  0.00  0.00    -0.053 A 
ATOM     14  C   UNL     1      -3.833  -0.140   0.730  0.00  0.00    +0.006 A 
ATOM     15  C   UNL     1      -2.499   0.232   0.589  0.00  0.00    +0.046 A 
ATOM     16  C   UNL     1      -1.842   0.885   1.593  0.00  0.00    +0.128 A 
ATOM     17  C   UNL     1      -2.523   1.182   2.791  0.00  0.00    +0.024 A 
ATOM     18  C   UNL     1      -3.882   0.807   2.927  0.00  0.00    -0.013 A 
ATOM     19  C   UNL     1      -4.564   1.109   4.119  0.00  0.00    +0.009 A 
ATOM     20  C   UNL     1      -3.912   1.759   5.121  0.00  0.00    +0.001 A 
ATOM     21  C   UNL     1      -2.576   2.133   4.984  0.00  0.00    +0.001 A 
ATOM     22  C   UNL     1      -1.885   1.857   3.844  0.00  0.00    +0.012 A 
BRANCH  16  23
ATOM     23  O   UNL     1      -0.540   1.241   1.440  0.00  0.00    -0.495 OA
ATOM     24  C   UNL     1       0.084   0.900   0.201  0.00  0.00    +0.277 C 
ENDBRANCH  16  23
ENDBRANCH   5  13
BRANCH   1  26
ATOM     25  C   UNL     1      -4.023  -5.462   4.087  0.00  0.00    +0.031 C 
ATOM     26  C   UNL     1      -5.088  -4.523   4.659  0.00  0.00    +0.036 C 
ATOM     27  C   UNL     1      -4.534  -3.820   5.900  0.00  0.00    +0.031 C 
ATOM     28  C   UNL     1      -6.328  -5.332   5.043  0.00  0.00    +0.031 C 
ENDBRANCH   1  26
BRANCH   7  29
ATOM     29  C   UNL     1      -6.546  -2.620  -0.764  0.00  0.00    +0.347 C 
ATOM     30  O   UNL     1      -6.069  -3.723  -0.887  0.00  0.00    -0.248 OA
ATOM     31  O   UNL     1      -6.837  -1.889  -1.851  0.00  0.00    -0.248 OA
ENDBRANCH   7  29
BRANCH   7  32
ATOM     32  C   UNL     1      -8.252  -2.366   1.044  0.00  0.00    +0.037 C 
BRANCH  32  33
ATOM     33  C   UNL     1      -9.214  -1.714   0.085  0.00  0.00    -0.023 A 
ATOM     34  C   UNL     1      -9.799  -0.515   0.232  0.00  0.00    +0.087 A 
ATOM     35  N   UNL     1     -10.608  -0.256  -0.841  0.00  0.00    -0.360 N 
ATOM     36  H   UNL     1     -11.170   0.689  -0.890  0.00  0.00    +0.165 HD
ATOM     37  C   UNL     1     -10.562  -1.309  -1.727  0.00  0.00    +0.047 A 
ATOM     38  C   UNL     1      -9.683  -2.266  -1.189  0.00  0.00    +0.003 A 
ATOM     39  C   UNL     1      -9.444  -3.457  -1.877  0.00  0.00    +0.010 A 
ATOM     40  C   UNL     1     -10.059  -3.682  -3.076  0.00  0.00    +0.001 A 
ATOM     41  C   UNL     1     -10.923  -2.739  -3.614  0.00  0.00    +0.002 A 
ATOM     42  C   UNL     1     -11.177  -1.559  -2.949  0.00  0.00    +0.026 A 
ENDBRANCH  32  33
ENDBRANCH   7  32
TORSDOF 6
