REMARK  Name = ZINC27238076
REMARK  14 active torsions:
REMARK  status: ('A' for Active; 'I' for Inactive)
REMARK    1  A    between atoms: C_1  and  C_2
REMARK    2  A    between atoms: C_2  and  C_3
REMARK    3  A    between atoms: C_3  and  C_4
REMARK    4  A    between atoms: C_4  and  C_5
REMARK    5  A    between atoms: C_5  and  C_6
REMARK    6  A    between atoms: C_5  and  C_15
REMARK    7  A    between atoms: C_5  and  O_34
REMARK    8  A    between atoms: C_9  and  O_12
REMARK    9  A    between atoms: O_12  and  C_13
REMARK   10  A    between atoms: C_13  and  C_14
REMARK   11  A    between atoms: C_15  and  C_17
REMARK   12  A    between atoms: C_15  and  O_25
REMARK   13  A    between atoms: C_17  and  N_18
REMARK   14  A    between atoms: O_25  and  C_26
REMARK                            x       y       z     vdW  Elec       q    Type
REMARK                         _______ _______ _______ _____ _____    ______ ____
ROOT
ATOM      1  C   UNL     1       0.043   1.498   5.093  0.00  0.00    +0.193 C 
ENDROOT
BRANCH   1   2
ATOM      2  C   UNL     1      -0.819   2.276   4.097  0.00  0.00    +0.126 C 
BRANCH   2   3
ATOM      3  C   UNL     1      -0.982   3.696   4.576  0.00  0.00    -0.012 A 
ATOM      4  C   UNL     1      -2.218   4.142   5.005  0.00  0.00    +0.010 A 
ATOM      5  C   UNL     1      -2.368   5.441   5.450  0.00  0.00    +0.046 A 
ATOM      6  C   UNL     1      -1.280   6.302   5.454  0.00  0.00    +0.121 A 
ATOM      7  C   UNL     1      -0.042   5.854   5.017  0.00  0.00    +0.046 A 
ATOM      8  C   UNL     1       0.104   4.552   4.579  0.00  0.00    +0.010 A 
BRANCH   6   9
ATOM      9  O   UNL     1      -1.427   7.583   5.885  0.00  0.00    -0.492 OA
BRANCH   9  10
ATOM     10  C   UNL     1      -2.730   7.975   6.321  0.00  0.00    +0.225 C 
ATOM     11  C   UNL     1      -2.700   9.439   6.766  0.00  0.00    +0.048 C 
ENDBRANCH   9  10
ENDBRANCH   6   9
ENDBRANCH   2   3
BRANCH   2  12
ATOM     12  O   UNL     1      -2.103   1.658   3.994  0.00  0.00    -0.380 OA
ATOM     13  H   UNL     1      -2.743   1.567   4.884  0.00  0.00    +0.211 HD
ENDBRANCH   2  12
BRANCH   2  14
ATOM     14  C   UNL     1      -0.141   2.275   2.725  0.00  0.00    +0.043 C 
BRANCH  14  15
ATOM     15  C   UNL     1      -0.938   3.156   1.762  0.00  0.00    +0.003 C 
BRANCH  15  17
ATOM     16  C   UNL     1      -1.057   4.037  -0.574  0.00  0.00    +0.004 C 
ATOM     17  C   UNL     1      -0.260   3.155   0.390  0.00  0.00    -0.003 C 
ENDBRANCH  15  17
ENDBRANCH  14  15
ENDBRANCH   2  14
ENDBRANCH   1   2
BRANCH   1  18
ATOM     18  C   UNL     1      -0.626   1.514   6.468  0.00  0.00    -0.030 C 
BRANCH  18  19
ATOM     19  N   UNL     1       0.164   0.706   7.407  0.00  0.00    +0.382 N 
ATOM     20  C   UNL     1       0.109  -0.729   7.047  0.00  0.00    -0.079 C 
ATOM     21  C   UNL     1       0.670  -1.622   8.120  0.00  0.00    -0.019 C 
ATOM     22  C   UNL     1      -0.491  -2.091   9.023  0.00  0.00    -0.002 C 
ATOM     23  C   UNL     1      -0.896  -1.064   9.976  0.00  0.00    -0.002 C 
ATOM     24  C   UNL     1      -1.400   0.216   9.276  0.00  0.00    -0.019 C 
ATOM     25  C   UNL     1      -0.208   1.004   8.808  0.00  0.00    -0.079 C 
ATOM     26  H   UNL     1       1.223   0.990   7.317  0.00  0.00    -0.082 HD
ENDBRANCH  18  19
ENDBRANCH   1  18
BRANCH   1  27
ATOM     27  O   UNL     1       1.333   2.106   5.183  0.00  0.00    -0.486 OA
BRANCH  27  28
ATOM     28  C   UNL     1       2.338   1.532   4.469  0.00  0.00    +0.139 A 
ATOM     29  C   UNL     1       2.064   0.480   3.607  0.00  0.00    +0.048 A 
ATOM     30  C   UNL     1       3.085  -0.099   2.879  0.00  0.00    +0.023 A 
ATOM     31  C   UNL     1       4.383   0.363   3.016  0.00  0.00    +0.043 A 
ATOM     32  C   UNL     1       4.659   1.408   3.879  0.00  0.00    +0.043 A 
ATOM     33  C   UNL     1       3.639   1.994   4.606  0.00  0.00    +0.084 A 
ATOM     34 CL   UNL     1       3.987   3.305   5.689  0.00  0.00    -0.080 Cl
ATOM     35 CL   UNL     1       5.665  -0.371   2.104  0.00  0.00    -0.083 Cl
ENDBRANCH  27  28
ENDBRANCH   1  27
TORSDOF 12
