REMARK  Name = ZINC61520381
REMARK  4 active torsions:
REMARK  status: ('A' for Active; 'I' for Inactive)
REMARK    1  A    between atoms: C_1  and  C_2
REMARK    2  A    between atoms: C_8  and  C_10
REMARK    3  A    between atoms: C_10  and  O_11
REMARK    4  A    between atoms: O_11  and  C_12
REMARK                            x       y       z     vdW  Elec       q    Type
REMARK                         _______ _______ _______ _____ _____    ______ ____
ROOT
ATOM      1  C   UNL     1       0.009  -0.566   4.840  0.00  0.00    +0.324 A 
ATOM      2  N   UNL     1       0.558  -1.073   5.937  0.00  0.00    -0.161 NA
ATOM      3  C   UNL     1      -0.018  -0.875   7.118  0.00  0.00    +0.225 A 
ATOM      4  N   UNL     1      -1.144  -0.170   7.197  0.00  0.00    -0.184 NA
ATOM      5  C   UNL     1      -1.688   0.334   6.101  0.00  0.00    +0.230 A 
ATOM      6  N   UNL     1      -1.112   0.142   4.925  0.00  0.00    -0.164 NA
ATOM      7 CL   UNL     1      -3.156   1.254   6.207  0.00  0.00    -0.041 Cl
ATOM      8  N   UNL     1       0.549  -1.401   8.261  0.00  0.00    -0.299 N 
ATOM      9  C   UNL     1       1.788  -2.190   8.317  0.00  0.00    +0.108 C 
ATOM     10  C   UNL     1       2.015  -2.582   9.792  0.00  0.00    +0.020 C 
ATOM     11  C   UNL     1       0.594  -2.471  10.404  0.00  0.00    +0.020 C 
ATOM     12  C   UNL     1       0.017  -1.258   9.628  0.00  0.00    +0.108 C 
ENDROOT
BRANCH   1  13
ATOM     13  O   UNL     1       0.594  -0.766   3.637  0.00  0.00    -0.462 OA
BRANCH  13  14
ATOM     14  C   UNL     1      -0.048  -0.186   2.499  0.00  0.00    +0.236 C 
BRANCH  14  21
ATOM     15  C   UNL     1      -0.019   1.526   0.010  0.00  0.00    +0.008 C 
ATOM     16  C   UNL     1       0.002  -0.004   0.002  0.00  0.00    -0.004 C 
ATOM     17  C   UNL     1       0.727  -0.502  -1.250  0.00  0.00    +0.030 C 
ATOM     18  C   UNL     1       2.195  -0.208  -1.149  0.00  0.00    -0.031 C 
ATOM     19  C   UNL     1       2.802   0.083  -0.043  0.00  0.00    -0.031 C 
ATOM     20  C   UNL     1       2.121   0.175   1.290  0.00  0.00    +0.034 C 
ATOM     21  C   UNL     1       0.752  -0.516   1.238  0.00  0.00    +0.034 C 
ENDBRANCH  14  21
ENDBRANCH  13  14
ENDBRANCH   1  13
TORSDOF 3
