REMARK  Name = ZINC09329433
REMARK  11 active torsions:
REMARK  status: ('A' for Active; 'I' for Inactive)
REMARK    1  A    between atoms: C_1  and  C_2
REMARK    2  A    between atoms: C_2  and  C_3
REMARK    3  A    between atoms: C_3  and  C_27
REMARK    4  A    between atoms: N_4  and  N_5
REMARK    5  A    between atoms: C_6  and  C_8
REMARK    6  A    between atoms: C_8  and  S_9
REMARK    7  A    between atoms: S_9  and  C_10
REMARK    8  A    between atoms: C_13  and  S_15
REMARK    9  A    between atoms: S_15  and  C_16
REMARK   10  A    between atoms: C_16  and  C_17
REMARK   11  A    between atoms: C_30  and  O_33
REMARK                            x       y       z     vdW  Elec       q    Type
REMARK                         _______ _______ _______ _____ _____    ______ ____
ROOT
ATOM      1  S   UNL     1       1.254  -1.177   6.731  0.00  0.00    -0.088 S 
ENDROOT
BRANCH   1   2
ATOM      2  C   UNL     1       0.680  -0.816   5.105  0.00  0.00    +0.160 A 
ATOM      3  N   UNL     1       1.304  -0.945   3.950  0.00  0.00    -0.134 NA
ATOM      4  N   UNL     1       0.662  -0.599   2.783  0.00  0.00    -0.134 NA
ATOM      5  C   UNL     1      -0.574  -0.141   2.825  0.00  0.00    +0.160 A 
ATOM      6  S   UNL     1      -0.901  -0.170   4.581  0.00  0.00    -0.033 S 
BRANCH   5   7
ATOM      7  S   UNL     1      -1.621   0.370   1.502  0.00  0.00    -0.092 S 
BRANCH   7   8
ATOM      8  C   UNL     1      -0.606   0.124   0.019  0.00  0.00    +0.112 C 
BRANCH   8   9
ATOM      9  C   UNL     1      -1.392   0.529  -1.201  0.00  0.00    -0.029 A 
ATOM     10  C   UNL     1      -2.156  -0.387  -1.857  0.00  0.00    +0.005 A 
ATOM     11  C   UNL     1      -2.895  -0.029  -2.983  0.00  0.00    +0.001 A 
ATOM     12  C   UNL     1      -2.866   1.243  -3.466  0.00  0.00    +0.008 A 
ATOM     13  C   UNL     1      -2.084   2.214  -2.819  0.00  0.00    -0.018 A 
ATOM     14  C   UNL     1      -1.337   1.853  -1.670  0.00  0.00    -0.014 A 
ATOM     15  C   UNL     1      -0.555   2.824  -1.022  0.00  0.00    +0.009 A 
ATOM     16  C   UNL     1      -0.525   4.096  -1.506  0.00  0.00    +0.001 A 
ATOM     17  C   UNL     1      -1.260   4.452  -2.636  0.00  0.00    +0.001 A 
ATOM     18  C   UNL     1      -2.028   3.538  -3.288  0.00  0.00    +0.008 A 
ENDBRANCH   8   9
ENDBRANCH   7   8
ENDBRANCH   5   7
ENDBRANCH   1   2
BRANCH   1  19
ATOM     19  C   UNL     1       2.944  -1.785   6.474  0.00  0.00    +0.173 C 
BRANCH  19  21
ATOM     20  N   UNL     1       4.819  -2.611   7.860  0.00  0.00    -0.206 N 
ATOM     21  C   UNL     1       3.559  -2.135   7.805  0.00  0.00    +0.242 C 
ATOM     22  O   UNL     1       2.921  -1.989   8.826  0.00  0.00    -0.273 OA
ATOM     23  H   UNL     1       5.330  -2.728   7.044  0.00  0.00    +0.177 HD
BRANCH  20  25
ATOM     24  C   UNL     1       6.548  -3.524   9.142  0.00  0.00    +0.066 C 
ATOM     25  N   UNL     1       5.391  -2.936   9.097  0.00  0.00    -0.184 NA
BRANCH  24  26
ATOM     26  C   UNL     1       7.197  -3.972   7.897  0.00  0.00    -0.002 A 
ATOM     27  C   UNL     1       8.570  -3.787   7.716  0.00  0.00    +0.013 A 
ATOM     28  C   UNL     1       9.173  -4.211   6.552  0.00  0.00    +0.046 A 
ATOM     29  C   UNL     1       8.416  -4.813   5.555  0.00  0.00    +0.117 A 
ATOM     30  C   UNL     1       7.050  -4.993   5.728  0.00  0.00    +0.046 A 
ATOM     31  C   UNL     1       6.439  -4.577   6.890  0.00  0.00    +0.013 A 
BRANCH  29  32
ATOM     32  O   UNL     1       9.014  -5.226   4.407  0.00  0.00    -0.507 OA
ATOM     33  H   UNL     1       9.037  -4.554   3.712  0.00  0.00    +0.292 HD
ENDBRANCH  29  32
ENDBRANCH  24  26
BRANCH  24  35
ATOM     34  C   UNL     1       6.802  -5.104  11.036  0.00  0.00    +0.010 C 
ATOM     35  C   UNL     1       7.227  -3.748  10.469  0.00  0.00    +0.054 C 
ENDBRANCH  24  35
ENDBRANCH  20  25
ENDBRANCH  19  21
ENDBRANCH   1  19
TORSDOF 10
