REMARK  Name = ZINC12205166
REMARK  13 active torsions:
REMARK  status: ('A' for Active; 'I' for Inactive)
REMARK    1  A    between atoms: C_1  and  C_2
REMARK    2  A    between atoms: C_2  and  C_4
REMARK    3  A    between atoms: C_2  and  N_12
REMARK    4  A    between atoms: C_4  and  C_5
REMARK    5  A    between atoms: C_4  and  C_8
REMARK    6  A    between atoms: C_4  and  O_11
REMARK    7  A    between atoms: C_5  and  C_6
REMARK    8  A    between atoms: C_8  and  C_9
REMARK    9  A    between atoms: C_13  and  C_15
REMARK   10  A    between atoms: C_15  and  C_16
REMARK   11  A    between atoms: C_16  and  C_17
REMARK   12  A    between atoms: C_17  and  C_23
REMARK   13  A    between atoms: C_23  and  C_24
REMARK                            x       y       z     vdW  Elec       q    Type
REMARK                         _______ _______ _______ _____ _____    ______ ____
ROOT
ATOM      1  C   UNL     1      -1.701   1.436  -0.825  0.00  0.00    +0.039 C 
ATOM      2  C   UNL     1      -3.088   1.645  -1.471  0.00  0.00    +0.035 C 
ATOM      3  C   UNL     1      -3.033   0.661  -2.663  0.00  0.00    +0.098 C 
ATOM      4  C   UNL     1      -2.021  -0.380  -2.237  0.00  0.00    +0.214 C 
ATOM      5  O   UNL     1      -1.886  -1.469  -2.753  0.00  0.00    -0.276 OA
ATOM      6  N   UNL     1      -1.293   0.078  -1.204  0.00  0.00    -0.309 N 
ATOM      7  H   UNL     1      -0.589  -0.424  -0.766  0.00  0.00    +0.149 HD
ENDROOT
BRANCH   1   8
ATOM      8  C   UNL     1      -1.802   1.553   0.697  0.00  0.00    +0.035 C 
BRANCH   8   9
ATOM      9  C   UNL     1      -0.452   1.204   1.327  0.00  0.00    +0.098 C 
BRANCH   9  11
ATOM     10  N   UNL     1       0.539   1.113   3.591  0.00  0.00    -0.310 N 
ATOM     11  C   UNL     1      -0.538   1.368   2.822  0.00  0.00    +0.213 C 
ATOM     12  O   UNL     1      -1.577   1.729   3.334  0.00  0.00    -0.276 OA
ATOM     13  H   UNL     1       1.370   0.825   3.181  0.00  0.00    +0.149 HD
BRANCH  10  15
ATOM     14  C   UNL     1      -0.107  -0.006   5.667  0.00  0.00    +0.031 C 
ATOM     15  C   UNL     1       0.456   1.273   5.045  0.00  0.00    +0.102 C 
BRANCH  15  16
ATOM     16  C   UNL     1       1.852   1.543   5.609  0.00  0.00    +0.091 C 
BRANCH  16  17
ATOM     17  O   UNL     1       2.712   0.444   5.299  0.00  0.00    -0.386 OA
ATOM     18  H   UNL     1       2.814   0.280   4.351  0.00  0.00    +0.210 HD
ENDBRANCH  16  17
BRANCH  16  19
ATOM     19  C   UNL     1       2.415   2.822   4.987  0.00  0.00    +0.063 C 
BRANCH  19  20
ATOM     20  C   UNL     1       1.522   3.985   5.335  0.00  0.00    -0.032 C 
ATOM     21  C   UNL     1       2.014   5.021   5.969  0.00  0.00    +0.004 C 
ENDBRANCH  19  20
ENDBRANCH  16  19
BRANCH  16  22
ATOM     22  C   UNL     1       1.765   1.709   7.127  0.00  0.00    +0.063 C 
BRANCH  22  23
ATOM     23  C   UNL     1       3.142   1.970   7.684  0.00  0.00    -0.032 C 
ATOM     24  C   UNL     1       3.373   3.057   8.377  0.00  0.00    +0.004 C 
ENDBRANCH  22  23
ENDBRANCH  16  22
ENDBRANCH  15  16
ENDBRANCH  10  15
ENDBRANCH   9  11
ENDBRANCH   8   9
ENDBRANCH   1   8
BRANCH   1  25
ATOM     25  C   UNL     1      -0.704   2.462  -1.369  0.00  0.00    +0.061 C 
BRANCH  25  26
ATOM     26  C   UNL     1      -0.576   2.296  -2.861  0.00  0.00    -0.045 A 
ATOM     27  C   UNL     1       0.287   1.329  -3.373  0.00  0.00    +0.004 A 
ATOM     28  C   UNL     1       0.422   1.149  -4.715  0.00  0.00    +0.009 A 
ATOM     29  C   UNL     1      -0.310   1.958  -5.602  0.00  0.00    -0.018 A 
ATOM     30  C   UNL     1      -0.193   1.806  -6.994  0.00  0.00    +0.008 A 
ATOM     31  C   UNL     1      -0.917   2.608  -7.822  0.00  0.00    +0.001 A 
ATOM     32  C   UNL     1      -1.776   3.579  -7.310  0.00  0.00    +0.001 A 
ATOM     33  C   UNL     1      -1.915   3.754  -5.968  0.00  0.00    +0.008 A 
ATOM     34  C   UNL     1      -1.184   2.945  -5.081  0.00  0.00    -0.018 A 
ATOM     35  C   UNL     1      -1.301   3.097  -3.689  0.00  0.00    +0.012 A 
ENDBRANCH  25  26
ENDBRANCH   1  25
TORSDOF 12
