REMARK  Name = ZINC39701439
REMARK  9 active torsions:
REMARK  status: ('A' for Active; 'I' for Inactive)
REMARK    1  A    between atoms: C_1  and  C_2
REMARK    2  A    between atoms: C_2  and  O_3
REMARK    3  A    between atoms: O_3  and  C_4
REMARK    4  A    between atoms: C_12  and  C_14
REMARK    5  A    between atoms: C_14  and  S_15
REMARK    6  A    between atoms: S_15  and  C_16
REMARK    7  A    between atoms: N_30  and  C_31
REMARK    8  A    between atoms: C_36  and  O_37
REMARK    9  A    between atoms: O_37  and  C_38
REMARK                            x       y       z     vdW  Elec       q    Type
REMARK                         _______ _______ _______ _____ _____    ______ ____
ROOT
ATOM      1  C   UNL     1       5.225  -7.365  -6.703  0.00  0.00    +0.259 C 
ATOM      2  N   UNL     1       3.843  -7.834  -6.837  0.00  0.00    -0.248 NA
ATOM      3  C   UNL     1       3.340  -8.651  -5.974  0.00  0.00    +0.101 C 
ATOM      4  C   UNL     1       2.023  -9.309  -5.802  0.00  0.00    +0.028 A 
ATOM      5  C   UNL     1       0.836  -9.292  -6.509  0.00  0.00    +0.012 A 
ATOM      6  C   UNL     1      -0.241 -10.046  -6.067  0.00  0.00    +0.001 A 
ATOM      7  C   UNL     1      -0.130 -10.813  -4.921  0.00  0.00    +0.002 A 
ATOM      8  C   UNL     1       1.049 -10.841  -4.203  0.00  0.00    +0.028 A 
ATOM      9  C   UNL     1       2.149 -10.089  -4.631  0.00  0.00    +0.074 A 
ATOM     10  N   UNL     1       3.397  -9.943  -4.120  0.00  0.00    -0.240 NA
ATOM     11  C   UNL     1       4.146  -9.139  -4.823  0.00  0.00    +0.152 C 
ATOM     12  C   UNL     1       5.541  -8.676  -4.673  0.00  0.00    +0.274 C 
ATOM     13  O   UNL     1       6.220  -9.060  -3.741  0.00  0.00    -0.268 OA
ATOM     14  N   UNL     1       6.053  -7.821  -5.584  0.00  0.00    -0.231 N 
ENDROOT
BRANCH  14  15
ATOM     15  C   UNL     1       7.372  -7.372  -5.458  0.00  0.00    +0.081 A 
ATOM     16  C   UNL     1       7.650  -6.222  -4.733  0.00  0.00    +0.027 A 
ATOM     17  C   UNL     1       8.954  -5.781  -4.611  0.00  0.00    +0.002 A 
ATOM     18  C   UNL     1       9.984  -6.482  -5.210  0.00  0.00    +0.004 A 
ATOM     19  C   UNL     1       9.715  -7.628  -5.936  0.00  0.00    +0.047 A 
ATOM     20  C   UNL     1       8.412  -8.081  -6.058  0.00  0.00    +0.141 A 
BRANCH  20  21
ATOM     21  O   UNL     1       8.146  -9.211  -6.765  0.00  0.00    -0.493 OA
ATOM     22  C   UNL     1       9.261  -9.886  -7.351  0.00  0.00    +0.277 C 
ENDBRANCH  20  21
ENDBRANCH  14  15
BRANCH   1  23
ATOM     23  S   UNL     1       5.175  -5.554  -6.633  0.00  0.00    -0.106 S 
BRANCH  23  24
ATOM     24  C   UNL     1       4.295  -5.199  -5.086  0.00  0.00    +0.168 C 
BRANCH  24  33
ATOM     25  C   UNL     1       0.776  -1.798  -1.335  0.00  0.00    +0.403 C 
ATOM     26  O   UNL     1       0.312  -2.549  -0.500  0.00  0.00    -0.226 OA
ATOM     27  N   UNL     1       1.395  -2.298  -2.422  0.00  0.00    -0.264 N 
ATOM     28  C   UNL     1       1.966  -1.402  -3.437  0.00  0.00    +0.130 C 
ATOM     29  C   UNL     1       3.447  -1.754  -3.624  0.00  0.00    +0.127 C 
ATOM     30  N   UNL     1       3.564  -3.206  -3.816  0.00  0.00    -0.298 N 
ATOM     31  C   UNL     1       2.993  -4.103  -2.801  0.00  0.00    +0.127 C 
ATOM     32  C   UNL     1       1.517  -3.751  -2.611  0.00  0.00    +0.130 C 
ATOM     33  C   UNL     1       4.183  -3.707  -4.903  0.00  0.00    +0.226 C 
ATOM     34  O   UNL     1       4.650  -2.957  -5.734  0.00  0.00    -0.275 OA
BRANCH  25  35
ATOM     35  O   UNL     1       0.671  -0.465  -1.174  0.00  0.00    -0.451 OA
BRANCH  35  37
ATOM     36  C   UNL     1      -0.019   1.526   0.010  0.00  0.00    +0.048 C 
ATOM     37  C   UNL     1       0.002  -0.004   0.002  0.00  0.00    +0.230 C 
ENDBRANCH  35  37
ENDBRANCH  25  35
ENDBRANCH  24  33
ENDBRANCH  23  24
ENDBRANCH   1  23
TORSDOF 7
