REMARK  Name = ZINC30937948
REMARK  6 active torsions:
REMARK  status: ('A' for Active; 'I' for Inactive)
REMARK    1  A    between atoms: C_4  and  S_7
REMARK    2  A    between atoms: S_7  and  C_8
REMARK    3  A    between atoms: C_13  and  N_14
REMARK    4  A    between atoms: C_15  and  C_17
REMARK    5  A    between atoms: N_20  and  C_23
REMARK    6  A    between atoms: C_23  and  C_24
REMARK                            x       y       z     vdW  Elec       q    Type
REMARK                         _______ _______ _______ _____ _____    ______ ____
ROOT
ATOM      1  N   UNL     1       1.624  -2.622  -2.245  0.00  0.00    -0.284 N 
ATOM      2  C   UNL     1       1.116  -1.917  -1.215  0.00  0.00    +0.220 C 
ATOM      3  O   UNL     1       0.625  -2.496  -0.268  0.00  0.00    -0.275 OA
ATOM      4  H   UNL     1       1.989  -2.099  -3.142  0.00  0.00    +0.155 HD
ENDROOT
BRANCH   2   5
ATOM      5  C   UNL     1       1.158  -0.411  -1.238  0.00  0.00    +0.072 C 
ATOM      6  C   UNL     1       0.521   0.138   0.041  0.00  0.00    -0.006 C 
ATOM      7  C   UNL     1       0.621   1.665   0.040  0.00  0.00    -0.078 C 
ATOM      8  N   UNL     1       2.032   2.065  -0.036  0.00  0.00    +0.382 N 
ATOM      9  C   UNL     1       2.652   1.589  -1.279  0.00  0.00    -0.078 C 
ATOM     10  C   UNL     1       2.613   0.059  -1.317  0.00  0.00    -0.006 C 
ATOM     11  H   UNL     1       2.560   1.592   0.805  0.00  0.00    -0.081 HD
BRANCH   8  12
ATOM     12  C   UNL     1       2.175   3.521   0.099  0.00  0.00    -0.043 C 
BRANCH  12  13
ATOM     13  C   UNL     1       3.632   3.869   0.263  0.00  0.00    -0.064 A 
ATOM     14  C   UNL     1       4.189   3.934   1.527  0.00  0.00    +0.003 A 
ATOM     15  C   UNL     1       5.527   4.249   1.677  0.00  0.00    +0.015 A 
ATOM     16  C   UNL     1       6.305   4.508   0.564  0.00  0.00    +0.018 A 
ATOM     17  C   UNL     1       5.746   4.448  -0.700  0.00  0.00    +0.015 A 
ATOM     18  C   UNL     1       4.410   4.128  -0.850  0.00  0.00    +0.003 A 
ATOM     19 BR   UNL     1       8.134   4.946   0.770  0.00  0.00    -0.050 Br
ENDBRANCH  12  13
ENDBRANCH   8  12
ENDBRANCH   2   5
BRANCH   1  25
ATOM     20  C   UNL     1       1.720  -4.779  -3.345  0.00  0.00    +0.034 A 
ATOM     21  C   UNL     1       1.784  -6.163  -3.267  0.00  0.00    +0.017 A 
ATOM     22  C   UNL     1       1.815  -6.785  -2.033  0.00  0.00    +0.001 A 
ATOM     23  C   UNL     1       1.784  -6.032  -0.874  0.00  0.00    +0.002 A 
ATOM     24  C   UNL     1       1.725  -4.652  -0.941  0.00  0.00    +0.024 A 
ATOM     25  C   UNL     1       1.688  -4.020  -2.174  0.00  0.00    +0.047 A 
BRANCH  20  26
ATOM     26  S   UNL     1       1.679  -3.983  -4.916  0.00  0.00    -0.088 S 
BRANCH  26  30
ATOM     27  C   UNL     1      -2.626  -2.648  -5.356  0.00  0.00    +0.000 A 
ATOM     28  C   UNL     1      -1.691  -2.286  -6.309  0.00  0.00    +0.001 A 
ATOM     29  C   UNL     1      -0.378  -2.691  -6.178  0.00  0.00    +0.015 A 
ATOM     30  C   UNL     1       0.004  -3.463  -5.087  0.00  0.00    +0.013 A 
ATOM     31  C   UNL     1      -0.940  -3.830  -4.135  0.00  0.00    +0.015 A 
ATOM     32  C   UNL     1      -2.250  -3.416  -4.269  0.00  0.00    +0.001 A 
ENDBRANCH  26  30
ENDBRANCH  20  26
ENDBRANCH   1  25
TORSDOF 6
