REMARK  Name = ZINC01908880
REMARK  8 active torsions:
REMARK  status: ('A' for Active; 'I' for Inactive)
REMARK    1  A    between atoms: C_1  and  O_2
REMARK    2  A    between atoms: O_2  and  C_3
REMARK    3  A    between atoms: C_7  and  C_9
REMARK    4  A    between atoms: N_13  and  C_17
REMARK    5  A    between atoms: C_17  and  C_18
REMARK    6  A    between atoms: N_20  and  N_21
REMARK    7  A    between atoms: C_22  and  C_24
REMARK    8  A    between atoms: C_29  and  O_30
REMARK                            x       y       z     vdW  Elec       q    Type
REMARK                         _______ _______ _______ _____ _____    ______ ____
ROOT
ATOM      1  C   UNL     1      -7.495  -4.541   0.305  0.00  0.00    +0.212 C 
ENDROOT
BRANCH   1   6
ATOM      2  C   UNL     1      -2.559  -4.136   0.016  0.00  0.00    +0.028 C 
ATOM      3  C   UNL     1      -3.758  -4.761   0.127  0.00  0.00    +0.077 C 
ATOM      4  C   UNL     1      -5.120  -4.188   0.154  0.00  0.00    +0.259 C 
ATOM      5  O   UNL     1      -5.312  -2.989   0.071  0.00  0.00    -0.269 OA
ATOM      6  N   UNL     1      -6.120  -5.045   0.272  0.00  0.00    -0.246 N 
ATOM      7  C   UNL     1      -5.903  -6.373   0.363  0.00  0.00    +0.121 C 
ATOM      8  S   UNL     1      -7.055  -7.630   0.520  0.00  0.00    -0.027 S 
ATOM      9  S   UNL     1      -4.125  -6.504   0.273  0.00  0.00    -0.061 S 
BRANCH   2  14
ATOM     10  C   UNL     1      -3.223  -0.591   1.054  0.00  0.00    +0.121 A 
ATOM     11  C   UNL     1      -2.340   0.097   0.231  0.00  0.00    +0.045 A 
ATOM     12  C   UNL     1      -1.533  -0.592  -0.656  0.00  0.00    +0.004 A 
ATOM     13  C   UNL     1      -1.599  -1.967  -0.732  0.00  0.00    +0.008 A 
ATOM     14  C   UNL     1      -2.485  -2.670   0.092  0.00  0.00    -0.020 A 
ATOM     15  C   UNL     1      -3.296  -1.971   0.993  0.00  0.00    +0.053 A 
BRANCH  10  17
ATOM     16  C   UNL     1      -3.887   1.516   1.933  0.00  0.00    +0.277 C 
ATOM     17  O   UNL     1      -4.013   0.093   1.923  0.00  0.00    -0.495 OA
ENDBRANCH  10  17
ENDBRANCH   2  14
ENDBRANCH   1   6
BRANCH   1  18
ATOM     18  C   UNL     1      -8.041  -4.477  -1.098  0.00  0.00    +0.247 C 
ATOM     19  O   UNL     1      -7.349  -4.819  -2.034  0.00  0.00    -0.273 OA
ATOM     20  N   UNL     1      -9.298  -4.040  -1.313  0.00  0.00    -0.233 N 
ATOM     21  H   UNL     1      -9.851  -3.767  -0.565  0.00  0.00    +0.173 HD
BRANCH  20  22
ATOM     22  N   UNL     1      -9.805  -3.981  -2.618  0.00  0.00    -0.230 N 
ATOM     23  C   UNL     1     -11.062  -3.543  -2.833  0.00  0.00    +0.264 C 
ATOM     24  O   UNL     1     -11.755  -3.201  -1.895  0.00  0.00    -0.269 OA
ATOM     25  H   UNL     1      -9.252  -4.254  -3.366  0.00  0.00    +0.173 HD
BRANCH  23  26
ATOM     26  C   UNL     1     -11.596  -3.481  -4.206  0.00  0.00    +0.079 A 
ATOM     27  C   UNL     1     -10.805  -3.879  -5.287  0.00  0.00    +0.017 A 
ATOM     28  C   UNL     1     -11.309  -3.818  -6.567  0.00  0.00    +0.001 A 
ATOM     29  C   UNL     1     -12.599  -3.363  -6.790  0.00  0.00    +0.004 A 
ATOM     30  C   UNL     1     -13.392  -2.966  -5.731  0.00  0.00    +0.046 A 
ATOM     31  C   UNL     1     -12.902  -3.027  -4.435  0.00  0.00    +0.129 A 
BRANCH  31  32
ATOM     32  O   UNL     1     -13.682  -2.643  -3.393  0.00  0.00    -0.506 OA
ATOM     33  H   UNL     1     -13.607  -1.705  -3.170  0.00  0.00    +0.292 HD
ENDBRANCH  31  32
ENDBRANCH  23  26
ENDBRANCH  20  22
ENDBRANCH   1  18
TORSDOF 7
