REMARK  Name = ZINC20078296
REMARK  13 active torsions:
REMARK  status: ('A' for Active; 'I' for Inactive)
REMARK    1  A    between atoms: C_1  and  C_2
REMARK    2  A    between atoms: C_2  and  N_3
REMARK    3  A    between atoms: C_7  and  C_34
REMARK    4  A    between atoms: C_8  and  C_33
REMARK    5  A    between atoms: C_12  and  S_13
REMARK    6  A    between atoms: S_13  and  C_14
REMARK    7  A    between atoms: C_14  and  C_15
REMARK    8  A    between atoms: N_17  and  C_18
REMARK    9  A    between atoms: C_19  and  C_31
REMARK   10  A    between atoms: C_20  and  C_30
REMARK   11  A    between atoms: C_21  and  C_29
REMARK   12  A    between atoms: N_22  and  C_23
REMARK   13  A    between atoms: C_23  and  C_24
REMARK                            x       y       z     vdW  Elec       q    Type
REMARK                         _______ _______ _______ _____ _____    ______ ____
ROOT
ATOM      1  C   UNL     1      -3.455   2.728  -0.071  0.00  0.00    +0.229 C 
ATOM      2  O   UNL     1      -3.197   3.900  -0.250  0.00  0.00    -0.275 OA
ATOM      3  N   UNL     1      -2.459   1.825   0.022  0.00  0.00    -0.270 N 
ATOM      4  H   UNL     1      -2.693   0.753   0.086  0.00  0.00    +0.156 HD
ENDROOT
BRANCH   3   5
ATOM      5  C   UNL     1      -1.138   2.249   0.038  0.00  0.00    +0.124 A 
ATOM      6  C   UNL     1      -0.674   3.460   0.534  0.00  0.00    +0.095 A 
ATOM      7  C   UNL     1       0.780   3.447   0.336  0.00  0.00    -0.011 A 
ATOM      8  C   UNL     1       1.079   2.276  -0.249  0.00  0.00    +0.022 A 
ATOM      9  N   UNL     1      -0.070   1.554  -0.432  0.00  0.00    -0.324 N 
ATOM     10  C   UNL     1       2.463   1.825  -0.640  0.00  0.00    +0.064 C 
ATOM     11  C   UNL     1       1.749   4.537   0.714  0.00  0.00    +0.047 C 
BRANCH   6  12
ATOM     12  C   UNL     1      -1.455   4.505   1.124  0.00  0.00    +0.103 C 
ATOM     13  N   UNL     1      -2.074   5.335   1.592  0.00  0.00    -0.191 NA
ENDBRANCH   6  12
BRANCH   9  14
ATOM     14  C   UNL     1      -0.138   0.224  -1.042  0.00  0.00    +0.197 C 
BRANCH  14  15
ATOM     15  C   UNL     1       0.131  -0.824   0.007  0.00  0.00    +0.124 A 
ATOM     16  C   UNL     1      -0.795  -1.416   0.782  0.00  0.00    +0.046 A 
ATOM     17  C   UNL     1      -0.108  -2.329   1.616  0.00  0.00    +0.041 A 
ATOM     18  C   UNL     1       1.197  -2.234   1.305  0.00  0.00    +0.195 A 
ATOM     19  O   UNL     1       1.336  -1.321   0.330  0.00  0.00    -0.466 OA
ENDBRANCH  14  15
ENDBRANCH   9  14
ENDBRANCH   3   5
BRANCH   1  20
ATOM     20  C   UNL     1      -4.890   2.282   0.046  0.00  0.00    +0.173 C 
BRANCH  20  21
ATOM     21  S   UNL     1      -5.983   3.715  -0.121  0.00  0.00    -0.078 S 
BRANCH  21  31
ATOM     22  N   UNL     1      -8.690   3.673  -0.015  0.00  0.00    -0.288 N 
ATOM     23  C   UNL     1      -9.903   3.107   0.111  0.00  0.00    +0.263 A 
ATOM     24  O   UNL     1     -10.912   3.788   0.051  0.00  0.00    -0.267 OA
ATOM     25  C   UNL     1      -9.995   1.694   0.318  0.00  0.00    +0.075 A 
ATOM     26  C   UNL     1     -11.175   0.863   0.482  0.00  0.00    -0.026 A 
ATOM     27  C   UNL     1     -11.026  -0.457   0.666  0.00  0.00    -0.008 A 
ATOM     28  S   UNL     1      -9.258  -0.683   0.633  0.00  0.00    -0.073 S 
ATOM     29  C   UNL     1      -8.770   1.003   0.372  0.00  0.00    +0.117 A 
ATOM     30  N   UNL     1      -7.604   1.623   0.235  0.00  0.00    -0.216 NA
ATOM     31  C   UNL     1      -7.549   2.927   0.051  0.00  0.00    +0.173 A 
ATOM     32  C   UNL     1     -12.097  -1.500   0.857  0.00  0.00    +0.052 C 
ATOM     33  C   UNL     1     -12.551   1.476   0.444  0.00  0.00    +0.045 C 
BRANCH  22  35
ATOM     34  C   UNL     1      -8.608   5.418  -1.728  0.00  0.00    +0.027 C 
ATOM     35  C   UNL     1      -8.590   5.120  -0.227  0.00  0.00    +0.124 C 
ENDBRANCH  22  35
ENDBRANCH  21  31
ENDBRANCH  20  21
ENDBRANCH   1  20
TORSDOF 8
