REMARK  Name = ZINC03471934
REMARK  9 active torsions:
REMARK  status: ('A' for Active; 'I' for Inactive)
REMARK    1  A    between atoms: C_1  and  C_2
REMARK    2  A    between atoms: C_2  and  C_3
REMARK    3  A    between atoms: C_3  and  C_5
REMARK    4  A    between atoms: C_3  and  N_6
REMARK    5  A    between atoms: C_7  and  C_9
REMARK    6  A    between atoms: C_9  and  O_10
REMARK    7  A    between atoms: O_10  and  C_11
REMARK    8  A    between atoms: C_11  and  C_13
REMARK    9  A    between atoms: N_21  and  C_24
REMARK                            x       y       z     vdW  Elec       q    Type
REMARK                         _______ _______ _______ _____ _____    ______ ____
ROOT
ATOM      1  C   UNL     1      -1.230   1.762   0.017  0.00  0.00    +0.060 A 
ATOM      2  C   UNL     1      -1.248   3.158   0.030  0.00  0.00    +0.016 A 
ATOM      3  C   UNL     1      -0.062   3.871   0.023  0.00  0.00    +0.014 A 
ATOM      4  C   UNL     1       1.149   3.198   0.008  0.00  0.00    +0.050 A 
ATOM      5  C   UNL     1       1.174   1.788   0.001  0.00  0.00    +0.051 A 
ATOM      6  C   UNL     1      -0.013   1.076   0.008  0.00  0.00    +0.028 A 
ATOM      7  C   UNL     1       2.603   1.409  -0.015  0.00  0.00    +0.258 C 
ATOM      8  O   UNL     1       3.034   0.273  -0.024  0.00  0.00    -0.269 OA
ATOM      9  N   UNL     1       3.345   2.530  -0.016  0.00  0.00    -0.202 N 
ATOM     10  C   UNL     1       2.566   3.627  -0.003  0.00  0.00    +0.258 C 
ATOM     11  O   UNL     1       2.960   4.776   0.001  0.00  0.00    -0.269 OA
ENDROOT
BRANCH   9  12
ATOM     12  C   UNL     1       4.747   2.553  -0.028  0.00  0.00    +0.046 A 
ATOM     13  C   UNL     1       5.422   3.766  -0.029  0.00  0.00    +0.025 A 
ATOM     14  C   UNL     1       6.803   3.787  -0.041  0.00  0.00    +0.023 A 
ATOM     15  C   UNL     1       7.514   2.600  -0.054  0.00  0.00    +0.059 A 
ATOM     16  C   UNL     1       6.843   1.389  -0.054  0.00  0.00    +0.061 A 
ATOM     17  C   UNL     1       5.461   1.363  -0.035  0.00  0.00    +0.045 A 
ATOM     18 CL   UNL     1       7.739  -0.099  -0.070  0.00  0.00    -0.082 Cl
ATOM     19 CL   UNL     1       9.250   2.630  -0.070  0.00  0.00    -0.082 Cl
ENDBRANCH   9  12
BRANCH   1  20
ATOM     20  C   UNL     1      -2.503   1.008   0.019  0.00  0.00    +0.340 C 
ATOM     21  O   UNL     1      -2.489  -0.206   0.012  0.00  0.00    -0.245 OA
BRANCH  20  22
ATOM     22  O   UNL     1      -3.677   1.668   0.028  0.00  0.00    -0.452 OA
BRANCH  22  23
ATOM     23  C   UNL     1      -4.886   0.864   0.029  0.00  0.00    +0.328 C 
BRANCH  23  25
ATOM     24  N   UNL     1      -7.330   1.238   0.042  0.00  0.00    -0.310 N 
ATOM     25  C   UNL     1      -6.091   1.768   0.039  0.00  0.00    +0.251 C 
ATOM     26  O   UNL     1      -5.946   2.972   0.046  0.00  0.00    -0.272 OA
ATOM     27  H   UNL     1      -7.447   0.276   0.037  0.00  0.00    +0.149 HD
BRANCH  24  28
ATOM     28  C   UNL     1      -8.502   2.118   0.052  0.00  0.00    +0.070 C 
ATOM     29  C   UNL     1      -8.829   2.516   1.493  0.00  0.00    +0.028 C 
BRANCH  28  31
ATOM     30  C   UNL     1      -9.421   1.093  -2.033  0.00  0.00    +0.005 C 
ATOM     31  C   UNL     1      -9.698   1.381  -0.556  0.00  0.00    +0.018 C 
ENDBRANCH  28  31
ENDBRANCH  24  28
ENDBRANCH  23  25
ENDBRANCH  22  23
ENDBRANCH  20  22
ENDBRANCH   1  20
TORSDOF 7
