REMARK  Name = ZINC42085790
REMARK  7 active torsions:
REMARK  status: ('A' for Active; 'I' for Inactive)
REMARK    1  A    between atoms: C_1  and  C_2
REMARK    2  A    between atoms: C_8  and  N_10
REMARK    3  A    between atoms: N_10  and  C_11
REMARK    4  A    between atoms: C_11  and  N_13
REMARK    5  A    between atoms: N_13  and  N_14
REMARK    6  A    between atoms: C_15  and  C_17
REMARK    7  A    between atoms: C_17  and  C_18
REMARK                            x       y       z     vdW  Elec       q    Type
REMARK                         _______ _______ _______ _____ _____    ______ ____
ROOT
ATOM      1  N   UNL     1       0.107   0.528   4.711  0.00  0.00    -0.246 N 
ATOM      2  H   UNL     1       0.598   0.623   5.542  0.00  0.00    +0.172 HD
ENDROOT
BRANCH   1   3
ATOM      3  N   UNL     1      -1.257   0.843   4.663  0.00  0.00    -0.235 N 
ATOM      4  C   UNL     1      -1.888   1.278   5.772  0.00  0.00    +0.229 C 
ATOM      5  O   UNL     1      -1.275   1.396   6.811  0.00  0.00    -0.274 OA
ATOM      6  H   UNL     1      -1.748   0.748   3.831  0.00  0.00    +0.173 HD
BRANCH   4   7
ATOM      7  C   UNL     1      -3.356   1.616   5.720  0.00  0.00    +0.101 C 
BRANCH   7   8
ATOM      8  C   UNL     1      -3.821   2.081   7.101  0.00  0.00    -0.002 C 
ATOM      9  C   UNL     1      -3.708   0.922   8.094  0.00  0.00    +0.004 C 
ATOM     10  C   UNL     1      -4.173   1.387   9.475  0.00  0.00    +0.000 C 
ATOM     11  C   UNL     1      -5.629   1.849   9.394  0.00  0.00    +0.000 C 
ATOM     12  C   UNL     1      -5.742   3.007   8.402  0.00  0.00    +0.000 C 
ATOM     13  C   UNL     1      -5.277   2.543   7.020  0.00  0.00    +0.004 C 
ENDBRANCH   7   8
ENDBRANCH   4   7
ENDBRANCH   1   3
BRANCH   1  14
ATOM     14  C   UNL     1       0.738   0.093   3.602  0.00  0.00    +0.147 C 
ATOM     15  S   UNL     1       2.405  -0.292   3.661  0.00  0.00    -0.017 S 
BRANCH  14  16
ATOM     16  N   UNL     1       0.056  -0.038   2.447  0.00  0.00    -0.322 N 
ATOM     17  H   UNL     1      -0.888   0.180   2.413  0.00  0.00    +0.148 HD
BRANCH  16  24
ATOM     18  C   UNL     1      -0.019   1.526   0.010  0.00  0.00    +0.009 C 
ATOM     19  C   UNL     1       0.002  -0.004   0.002  0.00  0.00    +0.006 C 
ATOM     20  C   UNL     1       0.718  -0.497  -1.257  0.00  0.00    +0.005 C 
ATOM     21  C   UNL     1       0.739  -2.027  -1.265  0.00  0.00    +0.000 C 
ATOM     22  C   UNL     1       1.479  -2.534  -0.026  0.00  0.00    +0.002 C 
ATOM     23  C   UNL     1       0.763  -2.041   1.233  0.00  0.00    +0.022 C 
ATOM     24  C   UNL     1       0.742  -0.511   1.242  0.00  0.00    +0.075 C 
ENDBRANCH  16  24
ENDBRANCH  14  16
ENDBRANCH   1  14
TORSDOF 6
