REMARK  Name = ZINC02641132
REMARK  4 active torsions:
REMARK  status: ('A' for Active; 'I' for Inactive)
REMARK    1  A    between atoms: C_4  and  C_7
REMARK    2  A    between atoms: N_10  and  C_12
REMARK    3  A    between atoms: C_26  and  C_28
REMARK    4  A    between atoms: C_31  and  N_34
REMARK                            x       y       z     vdW  Elec       q    Type
REMARK                         _______ _______ _______ _____ _____    ______ ____
ROOT
ATOM      1  C   UNL     1       3.364  -0.667  -0.114  0.00  0.00    +0.100 A 
ATOM      2  C   UNL     1       3.847  -1.786   0.603  0.00  0.00    +0.045 A 
ATOM      3  C   UNL     1       5.129  -1.992   0.227  0.00  0.00    +0.132 A 
ATOM      4  N   UNL     1       5.452  -1.037  -0.697  0.00  0.00    -0.218 N 
ATOM      5  N   UNL     1       4.328  -0.228  -0.893  0.00  0.00    -0.164 NA
ATOM      6  N   UNL     1       6.006  -2.978   0.667  0.00  0.00    -0.298 N 
ATOM      7  C   UNL     1       6.070  -3.323   2.024  0.00  0.00    +0.054 A 
ATOM      8  C   UNL     1       7.258  -3.212   2.727  0.00  0.00    +0.025 A 
ATOM      9  C   UNL     1       7.306  -3.595   4.056  0.00  0.00    +0.002 A 
ATOM     10  C   UNL     1       6.172  -4.090   4.675  0.00  0.00    +0.002 A 
ATOM     11  C   UNL     1       4.982  -4.188   3.980  0.00  0.00    +0.025 A 
ATOM     12  C   UNL     1       4.919  -3.787   2.650  0.00  0.00    +0.049 A 
ATOM     13  N   UNL     1       3.697  -3.800   1.982  0.00  0.00    -0.331 N 
ATOM     14  C   UNL     1       3.024  -2.568   1.596  0.00  0.00    +0.137 C 
ATOM     15  H   UNL     1       6.578  -3.433   0.029  0.00  0.00    +0.154 HD
ATOM     16  H   UNL     1       3.284  -4.651   1.769  0.00  0.00    +0.147 HD
ENDROOT
BRANCH   1  20
ATOM     17  C   UNL     1      -0.543   0.985   0.184  0.00  0.00    +0.000 A 
ATOM     18  C   UNL     1       0.558   1.821   0.157  0.00  0.00    +0.001 A 
ATOM     19  C   UNL     1       1.829   1.290   0.060  0.00  0.00    +0.010 A 
ATOM     20  C   UNL     1       2.000  -0.091  -0.010  0.00  0.00    +0.003 A 
ATOM     21  C   UNL     1       0.887  -0.928   0.018  0.00  0.00    +0.010 A 
ATOM     22  C   UNL     1      -0.379  -0.387   0.115  0.00  0.00    +0.001 A 
ENDBRANCH   1  20
BRANCH   4  23
ATOM     23  C   UNL     1       6.690  -0.896  -1.337  0.00  0.00    +0.067 A 
ATOM     24  C   UNL     1       7.863  -1.193  -0.657  0.00  0.00    +0.028 A 
ATOM     25  C   UNL     1       9.082  -1.053  -1.292  0.00  0.00    +0.002 A 
ATOM     26  C   UNL     1       9.134  -0.618  -2.603  0.00  0.00    +0.000 A 
ATOM     27  C   UNL     1       7.968  -0.322  -3.284  0.00  0.00    +0.002 A 
ATOM     28  C   UNL     1       6.745  -0.464  -2.656  0.00  0.00    +0.028 A 
ENDBRANCH   4  23
BRANCH  14  29
ATOM     29  C   UNL     1       2.798  -1.723   2.824  0.00  0.00    -0.023 A 
ATOM     30  C   UNL     1       1.514  -1.359   3.185  0.00  0.00    +0.008 A 
ATOM     31  C   UNL     1       1.306  -0.585   4.311  0.00  0.00    +0.033 A 
ATOM     32  C   UNL     1       2.382  -0.174   5.075  0.00  0.00    +0.126 A 
ATOM     33  C   UNL     1       3.666  -0.538   4.714  0.00  0.00    +0.033 A 
ATOM     34  C   UNL     1       3.873  -1.317   3.591  0.00  0.00    +0.008 A 
BRANCH  32  35
ATOM     35  N   UNL     1       2.160   0.657   6.280  0.00  0.00    +0.056 N 
ATOM     36  O   UNL     1       1.037   0.976   6.596  0.00  0.00    -0.126 OA
ATOM     37  O   UNL     1       3.101   1.016   6.949  0.00  0.00    -0.126 OA
ENDBRANCH  32  35
ENDBRANCH  14  29
TORSDOF 4
