REMARK  Name = ZINC18161275
REMARK  6 active torsions:
REMARK  status: ('A' for Active; 'I' for Inactive)
REMARK    1  A    between atoms: C_6  and  C_7
REMARK    2  A    between atoms: N_9  and  C_10
REMARK    3  A    between atoms: C_10  and  C_11
REMARK    4  A    between atoms: C_11  and  S_12
REMARK    5  A    between atoms: S_12  and  C_13
REMARK    6  A    between atoms: C_13  and  C_14
REMARK                            x       y       z     vdW  Elec       q    Type
REMARK                         _______ _______ _______ _____ _____    ______ ____
ROOT
ATOM      1  C   UNL     1       3.707  -0.636  -0.051  0.00  0.00    +0.244 C 
ATOM      2  O   UNL     1       3.738  -1.851  -0.062  0.00  0.00    -0.270 OA
ATOM      3  N   UNL     1       4.857   0.068  -0.061  0.00  0.00    -0.311 N 
ATOM      4  H   UNL     1       4.832   1.037  -0.052  0.00  0.00    +0.149 HD
ENDROOT
BRANCH   1  10
ATOM      5  C   UNL     1       2.378   1.466  -0.017  0.00  0.00    +0.014 A 
ATOM      6  C   UNL     1       1.166   2.121   0.002  0.00  0.00    +0.017 A 
ATOM      7  C   UNL     1      -0.017   1.395   0.010  0.00  0.00    +0.030 A 
ATOM      8  C   UNL     1       0.002  -0.004   0.002  0.00  0.00    +0.048 A 
ATOM      9  C   UNL     1       1.221  -0.662  -0.019  0.00  0.00    +0.037 A 
ATOM     10  C   UNL     1       2.412   0.069  -0.029  0.00  0.00    +0.039 A 
ATOM     11  N   UNL     1      -1.175  -0.748   0.021  0.00  0.00    -0.284 N 
ATOM     12  C   UNL     1      -2.379  -0.325  -0.355  0.00  0.00    +0.227 C 
ATOM     13  O   UNL     1      -3.307  -1.104  -0.288  0.00  0.00    -0.275 OA
ATOM     14  C   UNL     1      -2.654   1.066  -0.857  0.00  0.00    +0.170 C 
ATOM     15  S   UNL     1      -1.572   2.232   0.022  0.00  0.00    -0.114 S 
ATOM     16  H   UNL     1      -1.111  -1.663   0.337  0.00  0.00    +0.155 HD
ENDBRANCH   1  10
BRANCH   3  17
ATOM     17  C   UNL     1       6.144  -0.632  -0.083  0.00  0.00    +0.115 C 
BRANCH  17  18
ATOM     18  C   UNL     1       7.281   0.391  -0.090  0.00  0.00    +0.088 C 
BRANCH  18  19
ATOM     19  S   UNL     1       8.874  -0.476  -0.118  0.00  0.00    -0.154 S 
BRANCH  19  20
ATOM     20  C   UNL     1      10.101   0.861  -0.123  0.00  0.00    +0.111 C 
BRANCH  20  21
ATOM     21  C   UNL     1      11.487   0.270  -0.146  0.00  0.00    +0.001 A 
ATOM     22  C   UNL     1      12.258  -0.055  -1.212  0.00  0.00    +0.013 A 
ATOM     23  C   UNL     1      13.514  -0.591  -0.993  0.00  0.00    +0.023 A 
ATOM     24  C   UNL     1      13.936  -0.774   0.283  0.00  0.00    +0.055 A 
ATOM     25  S   UNL     1      12.542  -0.175   1.223  0.00  0.00    -0.086 S 
ATOM     26 BR   UNL     1      15.579  -1.476   0.904  0.00  0.00    -0.043 Br
ENDBRANCH  20  21
ENDBRANCH  19  20
ENDBRANCH  18  19
ENDBRANCH  17  18
ENDBRANCH   3  17
TORSDOF 6
