REMARK  Name = ZINC38688254
REMARK  11 active torsions:
REMARK  status: ('A' for Active; 'I' for Inactive)
REMARK    1  A    between atoms: C_1  and  C_2
REMARK    2  A    between atoms: C_2  and  C_3
REMARK    3  A    between atoms: C_3  and  C_4
REMARK    4  A    between atoms: C_4  and  C_5
REMARK    5  A    between atoms: C_8  and  C_11
REMARK    6  A    between atoms: C_11  and  O_13
REMARK    7  A    between atoms: O_13  and  C_14
REMARK    8  A    between atoms: C_21  and  N_36
REMARK    9  A    between atoms: C_22  and  C_34
REMARK   10  A    between atoms: C_23  and  C_25
REMARK   11  A    between atoms: C_28  and  N_31
REMARK                            x       y       z     vdW  Elec       q    Type
REMARK                         _______ _______ _______ _____ _____    ______ ____
ROOT
ATOM      1  C   UNL     1       3.030  -6.425  -7.495  0.00  0.00    +0.135 A 
ATOM      2  C   UNL     1       3.502  -5.555  -8.469  0.00  0.00    +0.047 A 
ATOM      3  C   UNL     1       4.113  -6.054  -9.602  0.00  0.00    +0.012 A 
ATOM      4  C   UNL     1       4.257  -7.420  -9.772  0.00  0.00    +0.008 A 
ATOM      5  C   UNL     1       3.787  -8.293  -8.804  0.00  0.00    +0.138 A 
ATOM      6  C   UNL     1       3.178  -7.792  -7.660  0.00  0.00    +0.093 A 
ATOM      7  O   UNL     1       3.919  -9.634  -8.953  0.00  0.00    -0.441 OA
ATOM      8  C   UNL     1       4.144 -10.154 -10.171  0.00  0.00    +0.199 C 
ATOM      9  C   UNL     1       4.621  -9.405 -11.193  0.00  0.00    +0.098 C 
ATOM     10  C   UNL     1       4.927  -7.944 -11.015  0.00  0.00    +0.098 C 
ENDROOT
BRANCH  10  11
ATOM     11  C   UNL     1       6.417  -7.756 -10.896  0.00  0.00    -0.035 A 
ATOM     12  C   UNL     1       7.110  -8.364  -9.865  0.00  0.00    +0.007 A 
ATOM     13  C   UNL     1       8.477  -8.192  -9.756  0.00  0.00    +0.033 A 
ATOM     14  C   UNL     1       9.152  -7.413 -10.678  0.00  0.00    +0.126 A 
ATOM     15  C   UNL     1       8.459  -6.806 -11.709  0.00  0.00    +0.033 A 
ATOM     16  C   UNL     1       7.093  -6.982 -11.821  0.00  0.00    +0.007 A 
BRANCH  14  17
ATOM     17  N   UNL     1      10.616  -7.228 -10.560  0.00  0.00    +0.056 N 
ATOM     18  O   UNL     1      11.222  -7.758  -9.658  0.00  0.00    -0.126 OA
ATOM     19  O   UNL     1      11.206  -6.547 -11.366  0.00  0.00    -0.126 OA
ENDBRANCH  14  17
ENDBRANCH  10  11
BRANCH   8  20
ATOM     20  N   UNL     1       3.882 -11.484 -10.386  0.00  0.00    -0.328 N 
ATOM     21  H   UNL     1       3.540 -12.034  -9.664  0.00  0.00    +0.145 HD
ATOM     22  H   UNL     1       4.040 -11.874 -11.260  0.00  0.00    +0.145 HD
ENDBRANCH   8  20
BRANCH   9  23
ATOM     23  C   UNL     1       4.840 -10.017 -12.469  0.00  0.00    +0.101 C 
ATOM     24  N   UNL     1       5.014 -10.502 -13.481  0.00  0.00    -0.191 NA
ENDBRANCH   9  23
BRANCH   1  25
ATOM     25  O   UNL     1       2.428  -5.935  -6.379  0.00  0.00    -0.426 OA
BRANCH  25  26
ATOM     26  C   UNL     1       1.160  -5.505  -6.484  0.00  0.00    +0.315 C 
ATOM     27  O   UNL     1       0.619  -5.476  -7.564  0.00  0.00    -0.250 OA
BRANCH  26  31
ATOM     28  C   UNL     1      -1.022  -2.990  -3.754  0.00  0.00    -0.011 C 
ATOM     29  C   UNL     1      -1.759  -4.165  -4.400  0.00  0.00    +0.004 C 
ATOM     30  C   UNL     1      -1.000  -4.619  -5.648  0.00  0.00    +0.015 C 
ATOM     31  C   UNL     1       0.412  -5.057  -5.255  0.00  0.00    +0.098 C 
ATOM     32  C   UNL     1       1.149  -3.882  -4.609  0.00  0.00    +0.015 C 
ATOM     33  C   UNL     1       0.390  -3.428  -3.361  0.00  0.00    +0.004 C 
BRANCH  28  34
ATOM     34  C   UNL     1      -1.782  -2.536  -2.506  0.00  0.00    +0.003 C 
BRANCH  34  35
ATOM     35  C   UNL     1      -3.148  -1.981  -2.914  0.00  0.00    +0.000 C 
BRANCH  35  37
ATOM     36  C   UNL     1      -5.274  -0.973  -2.074  0.00  0.00    +0.004 C 
ATOM     37  C   UNL     1      -3.907  -1.527  -1.666  0.00  0.00    -0.003 C 
ENDBRANCH  35  37
ENDBRANCH  34  35
ENDBRANCH  28  34
ENDBRANCH  26  31
ENDBRANCH  25  26
ENDBRANCH   1  25
TORSDOF 10
