REMARK  Name = ZINC36213684
REMARK  13 active torsions:
REMARK  status: ('A' for Active; 'I' for Inactive)
REMARK    1  A    between atoms: C_1  and  C_2
REMARK    2  A    between atoms: C_2  and  C_3
REMARK    3  A    between atoms: C_2  and  C_4
REMARK    4  A    between atoms: C_14  and  C_36
REMARK    5  A    between atoms: C_18  and  C_19
REMARK    6  A    between atoms: C_18  and  C_20
REMARK    7  A    between atoms: C_20  and  N_21
REMARK    8  A    between atoms: C_22  and  C_24
REMARK    9  A    between atoms: C_24  and  C_25
REMARK   10  A    between atoms: C_25  and  C_26
REMARK   11  A    between atoms: C_26  and  C_28
REMARK   12  A    between atoms: C_31  and  O_34
REMARK   13  A    between atoms: O_34  and  C_35
REMARK                            x       y       z     vdW  Elec       q    Type
REMARK                         _______ _______ _______ _____ _____    ______ ____
ROOT
ATOM      1  C   UNL     1      -1.166  -0.288  -0.006  0.00  0.00    -0.045 A 
ATOM      2  C   UNL     1      -2.000   0.032   1.048  0.00  0.00    +0.004 A 
ATOM      3  C   UNL     1      -3.276  -0.495   1.094  0.00  0.00    +0.005 A 
ATOM      4  C   UNL     1      -3.721  -1.339   0.091  0.00  0.00    -0.038 A 
ATOM      5  C   UNL     1      -2.894  -1.666  -0.962  0.00  0.00    -0.043 A 
ATOM      6  C   UNL     1      -1.610  -1.131  -1.002  0.00  0.00    +0.007 A 
ATOM      7  C   UNL     1      -3.295  -2.577  -2.089  0.00  0.00    +0.036 C 
ATOM      8  C   UNL     1      -4.639  -3.262  -1.833  0.00  0.00    +0.009 C 
ATOM      9  C   UNL     1      -5.589  -2.232  -1.224  0.00  0.00    +0.007 C 
ATOM     10  C   UNL     1      -5.128  -1.893   0.181  0.00  0.00    -0.003 C 
ATOM     11  C   UNL     1      -6.056  -0.866   0.821  0.00  0.00    +0.011 C 
ATOM     12  C   UNL     1      -7.490  -1.400   0.816  0.00  0.00    +0.001 C 
ATOM     13  C   UNL     1      -7.956  -1.630  -0.616  0.00  0.00    +0.008 C 
ATOM     14  C   UNL     1      -7.047  -2.606  -1.366  0.00  0.00    -0.013 C 
ATOM     15  C   UNL     1      -7.333  -4.039  -0.917  0.00  0.00    +0.013 C 
ATOM     16  C   UNL     1      -5.057  -3.125   1.083  0.00  0.00    +0.016 C 
ENDROOT
BRANCH   1  18
ATOM     17  C   UNL     1       0.152   1.810  -0.108  0.00  0.00    +0.012 C 
ATOM     18  C   UNL     1       0.228   0.283  -0.066  0.00  0.00    +0.013 C 
ATOM     19  C   UNL     1       1.012  -0.155   1.173  0.00  0.00    +0.012 C 
ENDBRANCH   1  18
BRANCH  14  20
ATOM     20  C   UNL     1      -7.430  -2.508  -2.862  0.00  0.00    +0.111 C 
BRANCH  20  21
ATOM     21  N   UNL     1      -8.841  -2.865  -3.030  0.00  0.00    -0.315 N 
ATOM     22  C   UNL     1      -9.399  -2.851  -4.256  0.00  0.00    +0.213 C 
ATOM     23  O   UNL     1      -8.733  -2.542  -5.222  0.00  0.00    -0.276 OA
ATOM     24  H   UNL     1      -9.374  -3.112  -2.257  0.00  0.00    +0.149 HD
BRANCH  22  25
ATOM     25  C   UNL     1     -10.851  -3.218  -4.429  0.00  0.00    +0.103 C 
BRANCH  25  26
ATOM     26  C   UNL     1     -11.229  -3.121  -5.908  0.00  0.00    +0.089 C 
BRANCH  26  27
ATOM     27  C   UNL     1     -12.680  -3.489  -6.080  0.00  0.00    +0.164 C 
ATOM     28  O   UNL     1     -13.347  -3.798  -5.115  0.00  0.00    -0.292 OA
BRANCH  27  29
ATOM     29  C   UNL     1     -13.288  -3.473  -7.417  0.00  0.00    +0.018 A 
ATOM     30  C   UNL     1     -12.520  -3.122  -8.534  0.00  0.00    +0.015 A 
ATOM     31  C   UNL     1     -13.092  -3.110  -9.780  0.00  0.00    +0.046 A 
ATOM     32  C   UNL     1     -14.433  -3.443  -9.935  0.00  0.00    +0.120 A 
ATOM     33  C   UNL     1     -15.201  -3.792  -8.829  0.00  0.00    +0.046 A 
ATOM     34  C   UNL     1     -14.637  -3.814  -7.580  0.00  0.00    +0.015 A 
BRANCH  32  35
ATOM     35  O   UNL     1     -14.995  -3.429 -11.170  0.00  0.00    -0.495 OA
ATOM     36  C   UNL     1     -16.377  -3.782 -11.259  0.00  0.00    +0.277 C 
ENDBRANCH  32  35
ENDBRANCH  27  29
ENDBRANCH  26  27
ENDBRANCH  25  26
ENDBRANCH  22  25
ENDBRANCH  20  21
ENDBRANCH  14  20
TORSDOF 8
