REMARK  Name = ZINC04696387
REMARK  7 active torsions:
REMARK  status: ('A' for Active; 'I' for Inactive)
REMARK    1  A    between atoms: C_1  and  C_2
REMARK    2  A    between atoms: C_2  and  O_3
REMARK    3  A    between atoms: O_3  and  C_4
REMARK    4  A    between atoms: C_7  and  N_10
REMARK    5  A    between atoms: C_16  and  C_17
REMARK    6  A    between atoms: C_20  and  O_24
REMARK    7  A    between atoms: O_24  and  C_25
REMARK                            x       y       z     vdW  Elec       q    Type
REMARK                         _______ _______ _______ _____ _____    ______ ____
ROOT
ATOM      1  N   UNL     1       2.405   1.202  -0.152  0.00  0.00    -0.226 NA
ATOM      2  C   UNL     1       1.182   1.681  -0.169  0.00  0.00    +0.166 C 
ATOM      3  N   UNL     1       0.009   1.024  -0.473  0.00  0.00    -0.260 N 
ATOM      4  C   UNL     1      -1.148   1.664  -0.446  0.00  0.00    +0.256 C 
ATOM      5  O   UNL     1      -2.193   1.102  -0.717  0.00  0.00    -0.269 OA
ATOM      6  C   UNL     1      -1.115   3.090  -0.069  0.00  0.00    +0.078 C 
ATOM      7  C   UNL     1      -2.138   3.975   0.042  0.00  0.00    +0.028 C 
ATOM      8  S   UNL     1       0.634   3.340   0.197  0.00  0.00    -0.049 S 
ATOM      9  H   UNL     1       0.032   0.085  -0.714  0.00  0.00    +0.157 HD
ENDROOT
BRANCH   7  10
ATOM     10  C   UNL     1      -3.527   3.509  -0.059  0.00  0.00    -0.022 A 
ATOM     11  C   UNL     1      -3.907   2.299   0.535  0.00  0.00    +0.011 A 
ATOM     12  C   UNL     1      -5.210   1.866   0.438  0.00  0.00    +0.048 A 
ATOM     13  C   UNL     1      -6.149   2.628  -0.247  0.00  0.00    +0.138 A 
ATOM     14  C   UNL     1      -5.779   3.831  -0.839  0.00  0.00    +0.083 A 
ATOM     15  C   UNL     1      -4.478   4.276  -0.743  0.00  0.00    +0.031 A 
ATOM     16 CL   UNL     1      -6.958   4.777  -1.692  0.00  0.00    -0.080 Cl
BRANCH  13  17
ATOM     17  O   UNL     1      -7.434   2.196  -0.339  0.00  0.00    -0.494 OA
ATOM     18  C   UNL     1      -7.747   0.952   0.291  0.00  0.00    +0.277 C 
ENDBRANCH  13  17
ENDBRANCH   7  10
BRANCH   1  22
ATOM     19  C   UNL     1       5.579   3.666   0.849  0.00  0.00    +0.121 A 
ATOM     20  C   UNL     1       5.493   2.392   1.394  0.00  0.00    +0.048 A 
ATOM     21  C   UNL     1       4.438   1.568   1.063  0.00  0.00    +0.031 A 
ATOM     22  C   UNL     1       3.455   2.017   0.179  0.00  0.00    +0.067 A 
ATOM     23  C   UNL     1       3.548   3.297  -0.371  0.00  0.00    +0.031 A 
ATOM     24  C   UNL     1       4.604   4.117  -0.030  0.00  0.00    +0.048 A 
BRANCH  19  25
ATOM     25  O   UNL     1       6.622   4.475   1.178  0.00  0.00    -0.492 OA
BRANCH  25  27
ATOM     26  C   UNL     1       7.886   6.532   1.066  0.00  0.00    +0.048 C 
ATOM     27  C   UNL     1       6.649   5.773   0.581  0.00  0.00    +0.225 C 
ENDBRANCH  25  27
ENDBRANCH  19  25
ENDBRANCH   1  22
TORSDOF 5
