REMARK  Name = ZINC31934693
REMARK  5 active torsions:
REMARK  status: ('A' for Active; 'I' for Inactive)
REMARK    1  A    between atoms: C_1  and  C_2
REMARK    2  A    between atoms: C_15  and  C_17
REMARK    3  A    between atoms: C_17  and  N_18
REMARK    4  A    between atoms: N_18  and  C_19
REMARK    5  A    between atoms: C_19  and  C_20
REMARK                            x       y       z     vdW  Elec       q    Type
REMARK                         _______ _______ _______ _____ _____    ______ ____
ROOT
ATOM      1  C   UNL     1       2.995   7.012  11.217  0.00  0.00    +0.008 C 
ATOM      2  C   UNL     1       2.668   6.992   9.723  0.00  0.00    -0.009 C 
ATOM      3  C   UNL     1       3.776   7.708   8.945  0.00  0.00    +0.008 C 
ATOM      4  C   UNL     1       3.344   7.910   7.492  0.00  0.00    +0.037 C 
ATOM      5  C   UNL     1       2.898   6.568   6.919  0.00  0.00    -0.023 A 
ATOM      6  C   UNL     1       2.571   5.544   7.736  0.00  0.00    -0.004 A 
ATOM      7  S   UNL     1       2.125   4.216   6.650  0.00  0.00    -0.073 S 
ATOM      8  C   UNL     1       2.379   5.042   5.100  0.00  0.00    +0.116 A 
ATOM      9  C   UNL     1       2.804   6.325   5.480  0.00  0.00    +0.075 A 
ATOM     10  C   UNL     1       3.089   7.228   4.404  0.00  0.00    +0.260 A 
ATOM     11  O   UNL     1       3.466   8.364   4.632  0.00  0.00    -0.267 OA
ATOM     12  N   UNL     1       2.940   6.797   3.137  0.00  0.00    -0.312 N 
ATOM     13  H   UNL     1       3.162   7.472   2.297  0.00  0.00    +0.170 HD
ATOM     14  C   UNL     1       2.517   5.536   2.865  0.00  0.00    +0.094 A 
ATOM     15  N   UNL     1       2.250   4.690   3.824  0.00  0.00    -0.229 NA
ATOM     16  C   UNL     1       2.584   5.539   9.234  0.00  0.00    +0.046 C 
ENDROOT
BRANCH  14  17
ATOM     17  C   UNL     1       2.359   5.102   1.430  0.00  0.00    -0.006 C 
BRANCH  17  18
ATOM     18  N   UNL     1       1.901   3.707   1.388  0.00  0.00    +0.388 N 
ATOM     19  H   UNL     1       2.640   3.063   1.887  0.00  0.00    -0.085 HD
ATOM     20  H   UNL     1       0.933   3.623   1.906  0.00  0.00    -0.085 HD
BRANCH  18  21
ATOM     21  C   UNL     1       1.735   3.249   0.003  0.00  0.00    -0.006 C 
BRANCH  21  22
ATOM     22  C   UNL     1       1.265   1.817  -0.000  0.00  0.00    +0.088 A 
ATOM     23  C   UNL     1      -0.017   1.410   0.010  0.00  0.00    +0.042 A 
ATOM     24  C   UNL     1       0.002  -0.004   0.002  0.00  0.00    +0.041 A 
ATOM     25  C   UNL     1       1.295  -0.376  -0.012  0.00  0.00    +0.195 A 
ATOM     26  O   UNL     1       2.055   0.731  -0.014  0.00  0.00    -0.470 OA
ENDBRANCH  21  22
ENDBRANCH  18  21
ENDBRANCH  17  18
ENDBRANCH  14  17
TORSDOF 4
