REMARK  Name = ZINC18197906
REMARK  7 active torsions:
REMARK  status: ('A' for Active; 'I' for Inactive)
REMARK    1  A    between atoms: C_4  and  C_7
REMARK    2  A    between atoms: C_7  and  C_20
REMARK    3  A    between atoms: N_8  and  N_9
REMARK    4  A    between atoms: C_20  and  N_21
REMARK    5  A    between atoms: N_21  and  S_22
REMARK    6  A    between atoms: S_22  and  C_25
REMARK    7  A    between atoms: C_28  and  N_31
REMARK                            x       y       z     vdW  Elec       q    Type
REMARK                         _______ _______ _______ _____ _____    ______ ____
ROOT
ATOM      1  C   UNL     1       2.410  -3.421  -3.531  0.00  0.00    +0.082 C 
ATOM      2  N   UNL     1       1.821  -4.574  -3.622  0.00  0.00    -0.184 NA
ENDROOT
BRANCH   2   3
ATOM      3  N   UNL     1       2.383  -5.588  -4.410  0.00  0.00    -0.219 N 
ATOM      4  C   UNL     1       1.824  -6.854  -4.410  0.00  0.00    +0.168 A 
ATOM      5  C   UNL     1       2.380  -7.887  -5.200  0.00  0.00    +0.027 A 
ATOM      6  C   UNL     1       3.503  -7.698  -6.011  0.00  0.00    +0.012 A 
ATOM      7  C   UNL     1       3.982  -8.742  -6.746  0.00  0.00    +0.001 A 
ATOM      8  C   UNL     1       3.372  -9.993  -6.699  0.00  0.00    +0.001 A 
ATOM      9  C   UNL     1       2.275 -10.212  -5.919  0.00  0.00    +0.010 A 
ATOM     10  C   UNL     1       1.756  -9.161  -5.152  0.00  0.00    +0.005 A 
ATOM     11  C   UNL     1       0.629  -9.308  -4.323  0.00  0.00    +0.143 A 
ATOM     12  N   UNL     1       0.203  -8.274  -3.634  0.00  0.00    -0.155 NA
ATOM     13  N   UNL     1       0.763  -7.122  -3.668  0.00  0.00    -0.132 NA
ATOM     14  H   UNL     1       3.163  -5.402  -4.955  0.00  0.00    +0.176 HD
ENDBRANCH   2   3
BRANCH   1  18
ATOM     15  C   UNL     1       6.266  -2.869  -5.217  0.00  0.00    +0.000 A 
ATOM     16  C   UNL     1       5.350  -1.831  -5.238  0.00  0.00    +0.001 A 
ATOM     17  C   UNL     1       4.095  -2.003  -4.692  0.00  0.00    +0.010 A 
ATOM     18  C   UNL     1       3.750  -3.229  -4.117  0.00  0.00    -0.001 A 
ATOM     19  C   UNL     1       4.681  -4.270  -4.095  0.00  0.00    +0.010 A 
ATOM     20  C   UNL     1       5.930  -4.085  -4.649  0.00  0.00    +0.001 A 
ENDBRANCH   1  18
BRANCH   1  21
ATOM     21  C   UNL     1       1.725  -2.278  -2.827  0.00  0.00    +0.163 C 
BRANCH  21  22
ATOM     22  N   UNL     1       0.417  -2.720  -2.338  0.00  0.00    -0.184 NA
ATOM     23  H   UNL     1       0.028  -3.544  -2.670  0.00  0.00    +0.148 HD
BRANCH  22  24
ATOM     24  S   UNL     1      -0.398  -1.812  -1.218  0.00  0.00    +0.059 S 
ATOM     25  O   UNL     1       0.530  -1.515  -0.183  0.00  0.00    -0.153 OA
ATOM     26  O   UNL     1      -1.627  -2.481  -0.970  0.00  0.00    -0.153 OA
BRANCH  24  27
ATOM     27  C   UNL     1      -0.805  -0.280  -1.986  0.00  0.00    +0.105 A 
ATOM     28  C   UNL     1      -2.002  -0.144  -2.664  0.00  0.00    +0.030 A 
ATOM     29  C   UNL     1      -2.324   1.056  -3.267  0.00  0.00    +0.024 A 
ATOM     30  C   UNL     1      -1.443   2.128  -3.191  0.00  0.00    +0.025 A 
ATOM     31  C   UNL     1      -0.242   1.989  -2.507  0.00  0.00    +0.024 A 
ATOM     32  C   UNL     1       0.074   0.786  -1.907  0.00  0.00    +0.030 A 
BRANCH  30  33
ATOM     33  N   UNL     1      -1.766   3.343  -3.799  0.00  0.00    -0.358 N 
ATOM     34  H   UNL     1      -2.605   3.439  -4.276  0.00  0.00    +0.142 HD
ATOM     35  H   UNL     1      -1.150   4.091  -3.745  0.00  0.00    +0.142 HD
ENDBRANCH  30  33
ENDBRANCH  24  27
ENDBRANCH  22  24
ENDBRANCH  21  22
ENDBRANCH   1  21
TORSDOF 7
