REMARK  Name = ZINC00648060
REMARK  10 active torsions:
REMARK  status: ('A' for Active; 'I' for Inactive)
REMARK    1  A    between atoms: C_1  and  C_2
REMARK    2  A    between atoms: C_2  and  C_3
REMARK    3  A    between atoms: C_3  and  C_5
REMARK    4  A    between atoms: C_3  and  O_22
REMARK    5  A    between atoms: N_7  and  C_8
REMARK    6  A    between atoms: C_9  and  C_19
REMARK    7  A    between atoms: C_14  and  C_18
REMARK    8  A    between atoms: O_22  and  C_23
REMARK    9  A    between atoms: C_26  and  C_30
REMARK   10  A    between atoms: C_27  and  C_29
REMARK                            x       y       z     vdW  Elec       q    Type
REMARK                         _______ _______ _______ _____ _____    ______ ____
ROOT
ATOM      1  C   UNL     1       2.713   3.928  -0.119  0.00  0.00    +0.258 C 
ATOM      2  O   UNL     1       3.639   3.148  -0.191  0.00  0.00    -0.271 OA
ATOM      3  N   UNL     1       1.445   3.471  -0.137  0.00  0.00    -0.276 N 
ATOM      4  H   UNL     1       0.704   4.094  -0.079  0.00  0.00    +0.155 HD
ENDROOT
BRANCH   3   5
ATOM      5  C   UNL     1       1.200   2.110  -0.238  0.00  0.00    +0.084 A 
ATOM      6  C   UNL     1      -0.022   1.454  -0.271  0.00  0.00    +0.068 A 
ATOM      7  C   UNL     1      -0.005   0.005  -0.383  0.00  0.00    -0.023 A 
ATOM      8  C   UNL     1       1.224  -0.552  -0.443  0.00  0.00    -0.004 A 
ATOM      9  S   UNL     1       2.346   0.815  -0.353  0.00  0.00    -0.077 S 
ATOM     10  C   UNL     1       1.551  -2.009  -0.562  0.00  0.00    +0.046 C 
ATOM     11  C   UNL     1       0.278  -2.757  -0.982  0.00  0.00    -0.009 C 
ATOM     12  C   UNL     1      -0.881  -2.299  -0.091  0.00  0.00    +0.008 C 
ATOM     13  C   UNL     1      -1.260  -0.857  -0.431  0.00  0.00    +0.037 C 
ATOM     14  C   UNL     1       0.489  -4.263  -0.815  0.00  0.00    +0.008 C 
BRANCH   6  15
ATOM     15  C   UNL     1      -1.285   2.196  -0.203  0.00  0.00    +0.244 C 
ATOM     16  O   UNL     1      -1.800   2.423   0.876  0.00  0.00    -0.270 OA
ATOM     17  N   UNL     1      -1.876   2.626  -1.335  0.00  0.00    -0.325 N 
ATOM     18  H   UNL     1      -1.466   2.446  -2.195  0.00  0.00    +0.145 HD
ATOM     19  H   UNL     1      -2.712   3.117  -1.290  0.00  0.00    +0.145 HD
ENDBRANCH   6  15
ENDBRANCH   3   5
BRANCH   1  20
ATOM     20  C   UNL     1       2.979   5.407  -0.009  0.00  0.00    +0.259 C 
BRANCH  20  22
ATOM     21  C   UNL     1       2.643   7.435   1.410  0.00  0.00    +0.008 C 
ATOM     22  C   UNL     1       2.487   5.915   1.347  0.00  0.00    +0.051 C 
ENDBRANCH  20  22
BRANCH  20  23
ATOM     23  O   UNL     1       4.383   5.648  -0.128  0.00  0.00    -0.480 OA
BRANCH  23  24
ATOM     24  C   UNL     1       4.763   6.742  -0.840  0.00  0.00    +0.122 A 
ATOM     25  C   UNL     1       3.807   7.626  -1.319  0.00  0.00    +0.046 A 
ATOM     26  C   UNL     1       4.196   8.739  -2.038  0.00  0.00    +0.007 A 
ATOM     27  C   UNL     1       5.537   8.967  -2.289  0.00  0.00    -0.047 A 
ATOM     28  C   UNL     1       6.491   8.085  -1.817  0.00  0.00    -0.044 A 
ATOM     29  C   UNL     1       6.107   6.973  -1.093  0.00  0.00    +0.049 A 
ATOM     30  C   UNL     1       7.951   8.337  -2.093  0.00  0.00    +0.044 C 
ATOM     31  C   UNL     1       5.958  10.180  -3.078  0.00  0.00    +0.044 C 
ENDBRANCH  23  24
ENDBRANCH  20  23
ENDBRANCH   1  20
TORSDOF 6
