REMARK  Name = ZINC39447683
REMARK  7 active torsions:
REMARK  status: ('A' for Active; 'I' for Inactive)
REMARK    1  A    between atoms: C_7  and  C_10
REMARK    2  A    between atoms: C_10  and  C_11
REMARK    3  A    between atoms: C_11  and  C_13
REMARK    4  A    between atoms: C_11  and  N_27
REMARK    5  A    between atoms: N_15  and  C_16
REMARK    6  A    between atoms: C_16  and  C_17
REMARK    7  A    between atoms: C_28  and  C_30
REMARK                            x       y       z     vdW  Elec       q    Type
REMARK                         _______ _______ _______ _____ _____    ______ ____
ROOT
ATOM      1  C   UNL     1      -4.437   3.680  -1.374  0.00  0.00    +0.163 C 
ENDROOT
BRANCH   1   2
ATOM      2  C   UNL     1      -5.091   5.038  -1.373  0.00  0.00    +0.234 C 
ATOM      3  O   UNL     1      -4.410   6.039  -1.440  0.00  0.00    -0.274 OA
ATOM      4  N   UNL     1      -6.433   5.139  -1.298  0.00  0.00    -0.311 N 
ATOM      5  H   UNL     1      -6.977   4.339  -1.244  0.00  0.00    +0.149 HD
BRANCH   4   6
ATOM      6  C   UNL     1      -7.068   6.460  -1.297  0.00  0.00    +0.137 C 
BRANCH   6   7
ATOM      7  C   UNL     1      -8.586   6.294  -1.204  0.00  0.00    +0.150 C 
ATOM      8  N   UNL     1      -9.095   5.456  -2.298  0.00  0.00    -0.330 N 
ATOM      9  C   UNL     1      -9.723   4.260  -1.955  0.00  0.00    +0.042 A 
ATOM     10  C   UNL     1     -10.270   3.333  -2.861  0.00  0.00    +0.024 A 
ATOM     11  C   UNL     1     -10.871   2.177  -2.421  0.00  0.00    +0.002 A 
ATOM     12  C   UNL     1     -10.958   1.886  -1.072  0.00  0.00    +0.001 A 
ATOM     13  C   UNL     1     -10.428   2.780  -0.157  0.00  0.00    +0.016 A 
ATOM     14  C   UNL     1      -9.827   3.937  -0.598  0.00  0.00    +0.031 A 
ATOM     15  S   UNL     1      -9.053   5.290   0.262  0.00  0.00    -0.099 S 
ATOM     16  H   UNL     1      -8.998   5.725  -3.225  0.00  0.00    +0.147 HD
ENDBRANCH   6   7
ENDBRANCH   4   6
ENDBRANCH   1   2
BRANCH   1  17
ATOM     17  N   UNL     1      -3.086   3.789  -1.929  0.00  0.00    -0.299 N 
ATOM     18  C   UNL     1      -2.176   4.588  -1.337  0.00  0.00    +0.251 C 
ATOM     19  O   UNL     1      -2.478   5.219  -0.341  0.00  0.00    -0.270 OA
ATOM     20  H   UNL     1      -2.845   3.286  -2.723  0.00  0.00    +0.150 HD
BRANCH  18  21
ATOM     21  C   UNL     1      -0.824   4.697  -1.892  0.00  0.00    +0.074 A 
ATOM     22  C   UNL     1       0.249   5.448  -1.438  0.00  0.00    +0.021 A 
ATOM     23  C   UNL     1       1.404   5.346  -2.176  0.00  0.00    +0.008 A 
ATOM     24  C   UNL     1       1.420   4.541  -3.267  0.00  0.00    +0.046 A 
ATOM     25  S   UNL     1      -0.129   3.892  -3.323  0.00  0.00    -0.092 S 
ENDBRANCH  18  21
ENDBRANCH   1  17
BRANCH   1  26
ATOM     26  C   UNL     1      -4.358   3.151   0.060  0.00  0.00    +0.069 C 
BRANCH  26  33
ATOM     27  C   UNL     1      -0.017   1.384   0.010  0.00  0.00    +0.001 A 
ATOM     28  C   UNL     1       0.002  -0.004   0.002  0.00  0.00    +0.002 A 
ATOM     29  C   UNL     1      -1.173  -0.723   0.009  0.00  0.00    +0.026 A 
ATOM     30  C   UNL     1      -2.392  -0.053   0.024  0.00  0.00    +0.047 A 
ATOM     31  N   UNL     1      -3.704  -0.472   0.034  0.00  0.00    -0.360 N 
ATOM     32  C   UNL     1      -4.539   0.612   0.047  0.00  0.00    +0.087 A 
ATOM     33  C   UNL     1      -3.818   1.744   0.047  0.00  0.00    -0.020 A 
ATOM     34  C   UNL     1      -2.406   1.353   0.032  0.00  0.00    +0.003 A 
ATOM     35  C   UNL     1      -1.203   2.062   0.030  0.00  0.00    +0.010 A 
ATOM     36  H   UNL     1      -3.993  -1.398   0.030  0.00  0.00    +0.165 HD
ENDBRANCH  26  33
ENDBRANCH   1  26
TORSDOF 7
