REMARK  Name = ZINC04615130
REMARK  8 active torsions:
REMARK  status: ('A' for Active; 'I' for Inactive)
REMARK    1  A    between atoms: C_1  and  C_2
REMARK    2  A    between atoms: C_2  and  C_3
REMARK    3  A    between atoms: C_2  and  C_4
REMARK    4  A    between atoms: N_6  and  C_7
REMARK    5  A    between atoms: C_11  and  C_13
REMARK    6  A    between atoms: C_13  and  C_28
REMARK    7  A    between atoms: N_14  and  N_15
REMARK    8  A    between atoms: C_16  and  C_18
REMARK                            x       y       z     vdW  Elec       q    Type
REMARK                         _______ _______ _______ _____ _____    ______ ____
ROOT
ATOM      1  C   UNL     1      -2.408   0.303   0.310  0.00  0.00    +0.063 C 
ATOM      2  N   UNL     1      -2.206  -0.979   0.310  0.00  0.00    -0.184 NA
ATOM      3  C   UNL     1      -3.811   0.845   0.395  0.00  0.00    +0.068 C 
ENDROOT
BRANCH   1   8
ATOM      4  C   UNL     1       1.108   1.607   0.067  0.00  0.00    +0.034 A 
ATOM      5  C   UNL     1       0.884   2.979   0.067  0.00  0.00    +0.023 A 
ATOM      6  C   UNL     1      -0.404   3.474   0.150  0.00  0.00    +0.002 A 
ATOM      7  C   UNL     1      -1.477   2.610   0.234  0.00  0.00    +0.010 A 
ATOM      8  C   UNL     1      -1.263   1.230   0.228  0.00  0.00    -0.001 A 
ATOM      9  C   UNL     1       0.038   0.730   0.150  0.00  0.00    +0.033 A 
BRANCH   4  12
ATOM     10  C   UNL     1       2.752  -0.013   0.644  0.00  0.00    +0.220 C 
ATOM     11  O   UNL     1       1.907  -0.639   1.248  0.00  0.00    -0.275 OA
ATOM     12  N   UNL     1       2.414   1.111  -0.018  0.00  0.00    -0.285 N 
ATOM     13  H   UNL     1       3.075   1.577  -0.553  0.00  0.00    +0.155 HD
BRANCH  10  15
ATOM     14  C   UNL     1       4.294  -1.778   1.455  0.00  0.00    +0.017 C 
ATOM     15  C   UNL     1       4.181  -0.491   0.635  0.00  0.00    +0.069 C 
ATOM     16  C   UNL     1       4.618  -0.765  -0.806  0.00  0.00    +0.017 C 
ENDBRANCH  10  15
ENDBRANCH   4  12
ENDBRANCH   1   8
BRANCH   2  17
ATOM     17  N   UNL     1      -3.294  -1.859   0.388  0.00  0.00    -0.203 N 
ATOM     18  C   UNL     1      -3.084  -3.190   0.387  0.00  0.00    +0.264 C 
ATOM     19  O   UNL     1      -1.951  -3.628   0.319  0.00  0.00    -0.268 OA
ATOM     20  H   UNL     1      -4.197  -1.510   0.442  0.00  0.00    +0.178 HD
BRANCH  18  21
ATOM     21  C   UNL     1      -4.228  -4.116   0.469  0.00  0.00    +0.046 A 
ATOM     22  C   UNL     1      -5.532  -3.638   0.434  0.00  0.00    +0.014 A 
ATOM     23  C   UNL     1      -6.607  -4.512   0.512  0.00  0.00    +0.001 A 
ATOM     24  C   UNL     1      -6.433  -5.857   0.623  0.00  0.00    +0.008 A 
ATOM     25  C   UNL     1      -5.142  -6.411   0.662  0.00  0.00    -0.017 A 
ATOM     26  C   UNL     1      -4.015  -5.557   0.582  0.00  0.00    -0.006 A 
ATOM     27  C   UNL     1      -2.727  -6.105   0.626  0.00  0.00    +0.009 A 
ATOM     28  C   UNL     1      -2.573  -7.455   0.738  0.00  0.00    +0.001 A 
ATOM     29  C   UNL     1      -3.679  -8.298   0.812  0.00  0.00    +0.001 A 
ATOM     30  C   UNL     1      -4.946  -7.798   0.777  0.00  0.00    +0.008 A 
ENDBRANCH  18  21
ENDBRANCH   2  17
TORSDOF 5
