REMARK  Name = ZINC42376964
REMARK  3 active torsions:
REMARK  status: ('A' for Active; 'I' for Inactive)
REMARK    1  A    between atoms: C_1  and  N_2
REMARK    2  A    between atoms: N_2  and  C_3
REMARK    3  A    between atoms: N_2  and  C_4
REMARK                            x       y       z     vdW  Elec       q    Type
REMARK                         _______ _______ _______ _____ _____    ______ ____
ROOT
ATOM      1  C   UNL     1      -1.452  -0.348  -0.075  0.00  0.00    -0.066 C 
ATOM      2  C   UNL     1      -1.255  -1.858  -0.236  0.00  0.00    +0.004 C 
ATOM      3  C   UNL     1      -2.608  -2.563  -0.097  0.00  0.00    +0.105 C 
ATOM      4  N   UNL     1      -3.551  -1.972  -1.056  0.00  0.00    -0.315 N 
ATOM      5  C   UNL     1      -3.747  -0.515  -1.047  0.00  0.00    +0.105 C 
ATOM      6  C   UNL     1      -2.382   0.167  -1.176  0.00  0.00    +0.004 C 
ATOM      7  C   UNL     1      -4.244  -2.775  -1.955  0.00  0.00    +0.121 A 
ATOM      8  C   UNL     1      -4.220  -4.157  -1.804  0.00  0.00    +0.045 A 
ATOM      9  C   UNL     1      -4.913  -4.945  -2.705  0.00  0.00    +0.020 A 
ATOM     10  C   UNL     1      -5.612  -4.320  -3.731  0.00  0.00    +0.036 A 
ATOM     11  C   UNL     1      -5.593  -2.942  -3.821  0.00  0.00    +0.128 A 
ATOM     12  N   UNL     1      -4.926  -2.216  -2.943  0.00  0.00    -0.239 NA
ATOM     13 BR   UNL     1      -6.577  -5.345  -4.993  0.00  0.00    -0.049 Br
ENDROOT
BRANCH   1  15
ATOM     14  C   UNL     1      -0.341   1.777  -0.019  0.00  0.00    -0.096 C 
ATOM     15  N   UNL     1      -0.152   0.328  -0.176  0.00  0.00    +0.378 N 
ATOM     16  C   UNL     1       0.740  -0.166   0.881  0.00  0.00    -0.096 C 
ATOM     17  H   UNL     1       0.257   0.138  -1.078  0.00  0.00    -0.082 HD
ENDBRANCH   1  15
TORSDOF 1
