REMARK  Name = ZINC02801374
REMARK  6 active torsions:
REMARK  status: ('A' for Active; 'I' for Inactive)
REMARK    1  A    between atoms: C_1  and  C_2
REMARK    2  A    between atoms: C_3  and  C_25
REMARK    3  A    between atoms: C_4  and  C_16
REMARK    4  A    between atoms: C_10  and  C_14
REMARK    5  A    between atoms: C_10  and  C_15
REMARK    6  A    between atoms: C_20  and  N_22
REMARK                            x       y       z     vdW  Elec       q    Type
REMARK                         _______ _______ _______ _____ _____    ______ ____
ROOT
ATOM      1  C   UNL     1      -2.133  -1.821  -2.998  0.00  0.00    +0.061 C 
ATOM      2  C   UNL     1      -1.432  -2.679  -1.976  0.00  0.00    +0.014 C 
ATOM      3  C   UNL     1      -0.706  -2.100  -1.006  0.00  0.00    +0.043 C 
ATOM      4  C   UNL     1       0.005  -2.921   0.030  0.00  0.00    +0.090 C 
ATOM      5  C   UNL     1       0.137  -4.355  -0.411  0.00  0.00    +0.024 C 
ATOM      6  C   UNL     1      -0.634  -4.845  -1.406  0.00  0.00    +0.016 C 
ATOM      7  N   UNL     1      -1.541  -4.040  -2.042  0.00  0.00    -0.321 N 
ATOM      8  C   UNL     1      -0.520  -6.285  -1.840  0.00  0.00    +0.058 C 
ATOM      9  C   UNL     1       0.916  -6.772  -1.634  0.00  0.00    -0.023 C 
ATOM     10  C   UNL     1       1.278  -6.605  -0.154  0.00  0.00    +0.086 C 
ATOM     11  C   UNL     1       1.083  -5.166   0.239  0.00  0.00    +0.162 C 
ATOM     12  O   UNL     1       1.754  -4.697   1.136  0.00  0.00    -0.292 OA
ATOM     13  C   UNL     1       1.870  -5.939  -2.493  0.00  0.00    +0.011 C 
ATOM     14  C   UNL     1       1.025  -8.246  -2.027  0.00  0.00    +0.011 C 
ATOM     15  H   UNL     1      -2.363  -4.500  -2.611  0.00  0.00    +0.152 HD
ENDROOT
BRANCH   3  16
ATOM     16  C   UNL     1      -0.604  -0.688  -0.963  0.00  0.00    +0.245 C 
ATOM     17  O   UNL     1      -1.333  -0.047  -0.228  0.00  0.00    -0.270 OA
ATOM     18  N   UNL     1       0.300  -0.053  -1.736  0.00  0.00    -0.298 N 
ATOM     19  C   UNL     1       0.343   1.415  -1.786  0.00  0.00    +0.108 C 
ATOM     20  C   UNL     1       0.259   1.860  -3.249  0.00  0.00    +0.019 C 
ATOM     21  C   UNL     1       1.364   1.171  -4.053  0.00  0.00    +0.003 C 
ATOM     22  C   UNL     1       1.166  -0.346  -3.998  0.00  0.00    +0.019 C 
ATOM     23  C   UNL     1       1.261  -0.817  -2.543  0.00  0.00    +0.108 C 
ENDBRANCH   3  16
BRANCH   4  24
ATOM     24  C   UNL     1      -0.773  -2.874   1.319  0.00  0.00    -0.033 A 
ATOM     25  C   UNL     1      -2.104  -3.249   1.337  0.00  0.00    +0.005 A 
ATOM     26  C   UNL     1      -2.818  -3.206   2.519  0.00  0.00    +0.003 A 
ATOM     27  C   UNL     1      -2.202  -2.788   3.684  0.00  0.00    +0.033 A 
ATOM     28  C   UNL     1      -0.872  -2.413   3.667  0.00  0.00    +0.126 A 
ATOM     29  C   UNL     1      -0.156  -2.461   2.485  0.00  0.00    +0.037 A 
BRANCH  28  30
ATOM     30  N   UNL     1      -0.212  -1.966   4.914  0.00  0.00    +0.056 N 
ATOM     31  O   UNL     1      -0.842  -1.929   5.956  0.00  0.00    -0.126 OA
ATOM     32  O   UNL     1       0.960  -1.636   4.898  0.00  0.00    -0.126 OA
ENDBRANCH  28  30
ENDBRANCH   4  24
TORSDOF 3
