REMARK  Name = ZINC39302780
REMARK  5 active torsions:
REMARK  status: ('A' for Active; 'I' for Inactive)
REMARK    1  A    between atoms: C_4  and  C_8
REMARK    2  A    between atoms: C_8  and  N_9
REMARK    3  A    between atoms: C_12  and  N_15
REMARK    4  A    between atoms: C_16  and  C_18
REMARK    5  A    between atoms: C_24  and  C_26
REMARK                            x       y       z     vdW  Elec       q    Type
REMARK                         _______ _______ _______ _____ _____    ______ ____
ROOT
ATOM      1  N   UNL     1       7.495  -1.455   2.600  0.00  0.00    -0.313 N 
ATOM      2  C   UNL     1       8.269  -1.667   3.683  0.00  0.00    +0.234 C 
ATOM      3  O   UNL     1       7.758  -1.892   4.759  0.00  0.00    -0.274 OA
ATOM      4  H   UNL     1       7.904  -1.275   1.739  0.00  0.00    +0.149 HD
ENDROOT
BRANCH   2   5
ATOM      5  C   UNL     1       9.770  -1.624   3.556  0.00  0.00    +0.162 C 
ATOM      6  C   UNL     1      10.288  -2.962   2.988  0.00  0.00    +0.033 C 
ATOM      7  C   UNL     1      11.599  -3.193   3.784  0.00  0.00    +0.021 C 
ATOM      8  C   UNL     1      11.225  -2.619   5.174  0.00  0.00    +0.109 C 
ATOM      9  N   UNL     1      10.379  -1.444   4.882  0.00  0.00    -0.283 N 
ATOM     10  C   UNL     1      10.195  -0.384   5.694  0.00  0.00    +0.283 C 
ATOM     11  O   UNL     1       9.472   0.531   5.346  0.00  0.00    -0.267 OA
BRANCH  10  12
ATOM     12  C   UNL     1      10.867  -0.332   6.997  0.00  0.00    +0.189 A 
ATOM     13  C   UNL     1      10.763   0.674   7.913  0.00  0.00    +0.054 A 
ATOM     14  C   UNL     1      11.566   0.310   9.005  0.00  0.00    +0.042 A 
ATOM     15  C   UNL     1      12.118  -0.888   8.711  0.00  0.00    +0.196 A 
ATOM     16  O   UNL     1      11.690  -1.274   7.502  0.00  0.00    -0.458 OA
ENDBRANCH  10  12
ENDBRANCH   2   5
BRANCH   1  20
ATOM     17  N   UNL     1       4.155  -0.954   1.341  0.00  0.00    +0.384 N 
ATOM     18  C   UNL     1       4.564   0.318   1.990  0.00  0.00    -0.077 C 
ATOM     19  C   UNL     1       5.494  -0.115   3.143  0.00  0.00    +0.002 C 
ATOM     20  C   UNL     1       6.036  -1.497   2.723  0.00  0.00    +0.055 C 
ATOM     21  C   UNL     1       5.388  -1.782   1.351  0.00  0.00    -0.056 C 
ATOM     22  H   UNL     1       3.423  -1.403   1.871  0.00  0.00    -0.081 HD
BRANCH  17  23
ATOM     23  C   UNL     1       3.713  -0.707  -0.038  0.00  0.00    -0.040 C 
BRANCH  23  27
ATOM     24  C   UNL     1      -0.017   1.378   0.010  0.00  0.00    +0.003 A 
ATOM     25  C   UNL     1       1.171   2.086   0.002  0.00  0.00    +0.020 A 
ATOM     26  C   UNL     1       2.378   1.411  -0.013  0.00  0.00    +0.044 A 
ATOM     27  C   UNL     1       2.398   0.028  -0.021  0.00  0.00    -0.027 A 
ATOM     28  C   UNL     1       1.209  -0.680  -0.013  0.00  0.00    +0.044 A 
ATOM     29  C   UNL     1       0.002  -0.004   0.002  0.00  0.00    +0.020 A 
ATOM     30 CL   UNL     1       1.233  -2.416  -0.023  0.00  0.00    -0.083 Cl
ATOM     31 CL   UNL     1       3.869   2.300  -0.024  0.00  0.00    -0.083 Cl
ENDBRANCH  23  27
ENDBRANCH  17  23
ENDBRANCH   1  20
TORSDOF 5
