REMARK  Name = ZINC00685729
REMARK  5 active torsions:
REMARK  status: ('A' for Active; 'I' for Inactive)
REMARK    1  A    between atoms: C_1  and  C_2
REMARK    2  A    between atoms: C_2  and  O_3
REMARK    3  A    between atoms: O_3  and  C_4
REMARK    4  A    between atoms: N_12  and  C_13
REMARK    5  A    between atoms: C_23  and  C_25
REMARK                            x       y       z     vdW  Elec       q    Type
REMARK                         _______ _______ _______ _____ _____    ______ ____
ROOT
ATOM      1  C   UNL     1       4.222   0.481  -1.499  0.00  0.00    +0.163 A 
ATOM      2  C   UNL     1       5.179   0.029  -2.391  0.00  0.00    +0.049 A 
ATOM      3  C   UNL     1       5.197  -1.298  -2.795  0.00  0.00    +0.004 A 
ATOM      4  C   UNL     1       4.261  -2.186  -2.315  0.00  0.00    +0.012 A 
ATOM      5  C   UNL     1       3.284  -1.746  -1.414  0.00  0.00    +0.022 A 
ATOM      6  C   UNL     1       3.268  -0.401  -1.001  0.00  0.00    +0.179 A 
ATOM      7  O   UNL     1       2.326   0.024  -0.127  0.00  0.00    -0.435 OA
ATOM      8  C   UNL     1       1.146  -0.647  -0.112  0.00  0.00    +0.212 A 
ATOM      9  N   UNL     1       0.002  -0.004   0.002  0.00  0.00    -0.325 N 
ATOM     10  C   UNL     1       1.184  -2.117  -0.232  0.00  0.00    +0.097 A 
ATOM     11  C   UNL     1       2.273  -2.670  -0.894  0.00  0.00    +0.030 A 
ATOM     12  H   UNL     1      -0.937  -0.567   0.102  0.00  0.00    +0.169 HD
ENDROOT
BRANCH   9  13
ATOM     13  C   UNL     1      -0.018   1.358  -0.004  0.00  0.00    +0.050 A 
ATOM     14  C   UNL     1       0.030   2.075   1.187  0.00  0.00    +0.026 A 
ATOM     15  C   UNL     1       0.010   3.462   1.177  0.00  0.00    +0.003 A 
ATOM     16  C   UNL     1      -0.057   4.171   0.016  0.00  0.00    +0.008 A 
ATOM     17  C   UNL     1      -0.107   3.514  -1.224  0.00  0.00    -0.016 A 
ATOM     18  C   UNL     1      -0.083   2.098  -1.263  0.00  0.00    +0.006 A 
ATOM     19  C   UNL     1      -0.140   1.439  -2.497  0.00  0.00    +0.010 A 
ATOM     20  C   UNL     1      -0.205   2.167  -3.648  0.00  0.00    +0.001 A 
ATOM     21  C   UNL     1      -0.224   3.560  -3.613  0.00  0.00    +0.001 A 
ATOM     22  C   UNL     1      -0.176   4.233  -2.430  0.00  0.00    +0.008 A 
ENDBRANCH   9  13
BRANCH  10  23
ATOM     23  C   UNL     1       0.114  -2.962   0.325  0.00  0.00    +0.247 C 
ATOM     24  O   UNL     1      -0.828  -2.450   0.899  0.00  0.00    -0.270 OA
ATOM     25  N   UNL     1       0.178  -4.302   0.198  0.00  0.00    -0.325 N 
ATOM     26  H   UNL     1      -0.622  -4.933   0.614  0.00  0.00    +0.145 HD
ATOM     27  H   UNL     1       1.030  -4.765  -0.322  0.00  0.00    +0.145 HD
ENDBRANCH  10  23
BRANCH   1  28
ATOM     28  O   UNL     1       4.214   1.784  -1.109  0.00  0.00    -0.489 OA
BRANCH  28  30
ATOM     29  C   UNL     1       5.056   4.049  -1.110  0.00  0.00    +0.048 C 
ATOM     30  C   UNL     1       5.223   2.631  -1.661  0.00  0.00    +0.226 C 
ENDBRANCH  28  30
ENDBRANCH   1  28
TORSDOF 4
