REMARK  Name = ZINC64045411
REMARK  9 active torsions:
REMARK  status: ('A' for Active; 'I' for Inactive)
REMARK    1  A    between atoms: C_1  and  C_2
REMARK    2  A    between atoms: C_2  and  C_3
REMARK    3  A    between atoms: C_2  and  C_4
REMARK    4  A    between atoms: C_4  and  C_5
REMARK    5  A    between atoms: C_8  and  C_11
REMARK    6  A    between atoms: C_20  and  C_22
REMARK    7  A    between atoms: N_24  and  C_25
REMARK    8  A    between atoms: C_25  and  C_26
REMARK    9  A    between atoms: C_26  and  C_27
REMARK                            x       y       z     vdW  Elec       q    Type
REMARK                         _______ _______ _______ _____ _____    ______ ____
ROOT
ATOM      1  C   UNL     1      -4.812   1.245  -2.896  0.00  0.00    +0.238 C 
ATOM      2  O   UNL     1      -4.529   2.414  -2.743  0.00  0.00    -0.273 OA
ATOM      3  N   UNL     1      -6.100   0.879  -3.054  0.00  0.00    -0.300 N 
ATOM      4  C   UNL     1      -6.454  -0.534  -3.235  0.00  0.00    +0.108 C 
ATOM      5  C   UNL     1      -7.451  -0.938  -2.142  0.00  0.00    +0.026 C 
ATOM      6  C   UNL     1      -8.601   0.074  -2.127  0.00  0.00    -0.015 C 
ATOM      7  C   UNL     1      -8.177   1.536  -1.952  0.00  0.00    +0.026 C 
ATOM      8  C   UNL     1      -7.166   1.890  -3.042  0.00  0.00    +0.108 C 
ATOM      9  C   UNL     1      -9.811  -0.212  -3.016  0.00  0.00    +0.021 C 
ATOM     10  C   UNL     1      -9.923  -0.362  -1.497  0.00  0.00    +0.082 C 
ENDROOT
BRANCH   1  14
ATOM     11  C   UNL     1      -2.131  -0.084  -1.134  0.00  0.00    +0.039 C 
ATOM     12  N   UNL     1      -1.588   0.584  -2.067  0.00  0.00    -0.195 NA
ATOM     13  N   UNL     1      -2.414   0.820  -3.165  0.00  0.00    -0.257 N 
ATOM     14  C   UNL     1      -3.726   0.201  -2.910  0.00  0.00    +0.180 C 
ATOM     15  C   UNL     1      -3.552  -0.434  -1.516  0.00  0.00    +0.085 C 
ATOM     16  H   UNL     1      -2.166   1.311  -3.963  0.00  0.00    +0.169 HD
BRANCH  11  17
ATOM     17  C   UNL     1      -1.459  -0.475   0.157  0.00  0.00    +0.055 C 
BRANCH  17  19
ATOM     18  C   UNL     1      -0.059   1.594   0.176  0.00  0.00    +0.007 C 
ATOM     19  C   UNL     1      -0.028   0.065   0.170  0.00  0.00    -0.012 C 
ATOM     20  C   UNL     1       0.695  -0.436   1.422  0.00  0.00    +0.007 C 
ENDBRANCH  17  19
ENDBRANCH  11  17
ENDBRANCH   1  14
BRANCH  10  21
ATOM     21  C   UNL     1     -10.001  -1.760  -0.939  0.00  0.00    +0.217 C 
ATOM     22  O   UNL     1     -10.463  -2.657  -1.613  0.00  0.00    -0.275 OA
ATOM     23  N   UNL     1      -9.557  -2.014   0.308  0.00  0.00    -0.315 N 
ATOM     24  H   UNL     1      -9.187  -1.297   0.846  0.00  0.00    +0.149 HD
BRANCH  23  25
ATOM     25  C   UNL     1      -9.632  -3.373   0.850  0.00  0.00    +0.108 C 
BRANCH  25  26
ATOM     26  C   UNL     1      -9.067  -3.387   2.271  0.00  0.00    +0.052 C 
BRANCH  26  27
ATOM     27  C   UNL     1      -9.144  -4.785   2.829  0.00  0.00    -0.040 C 
ATOM     28  C   UNL     1      -8.165  -5.718   2.823  0.00  0.00    -0.001 A 
ATOM     29  C   UNL     1      -6.788  -5.711   2.315  0.00  0.00    +0.010 A 
ATOM     30  C   UNL     1      -6.031  -6.823   2.457  0.00  0.00    +0.001 A 
ATOM     31  C   UNL     1      -6.527  -7.978   3.076  0.00  0.00    +0.002 A 
ATOM     32  C   UNL     1      -7.781  -8.060   3.568  0.00  0.00    +0.026 A 
ATOM     33  C   UNL     1      -8.665  -6.950   3.474  0.00  0.00    +0.043 A 
ATOM     34  N   UNL     1      -9.905  -6.785   3.866  0.00  0.00    -0.380 N 
ATOM     35  C   UNL     1     -10.330  -5.426   3.514  0.00  0.00    +0.144 C 
ATOM     36  H   UNL     1     -10.449  -7.450   4.317  0.00  0.00    +0.160 HD
ENDBRANCH  26  27
ENDBRANCH  25  26
ENDBRANCH  23  25
ENDBRANCH  10  21
TORSDOF 7
