REMARK  Name = ZINC19578984
REMARK  6 active torsions:
REMARK  status: ('A' for Active; 'I' for Inactive)
REMARK    1  A    between atoms: C_1  and  C_2
REMARK    2  A    between atoms: C_3  and  C_9
REMARK    3  A    between atoms: C_4  and  C_8
REMARK    4  A    between atoms: C_9  and  C_10
REMARK    5  A    between atoms: C_10  and  C_11
REMARK    6  A    between atoms: C_20  and  C_23
REMARK                            x       y       z     vdW  Elec       q    Type
REMARK                         _______ _______ _______ _____ _____    ______ ____
ROOT
ATOM      1  C   UNL     1       0.002  -0.004   0.002  0.00  0.00    +0.050 A 
ATOM      2  C   UNL     1       1.217  -0.663  -0.012  0.00  0.00    +0.093 A 
ATOM      3  C   UNL     1       2.386   0.096  -0.019  0.00  0.00    +0.253 A 
ATOM      4  N   UNL     1       2.295   1.420  -0.011  0.00  0.00    -0.295 N 
ATOM      5  C   UNL     1       1.112   2.016   0.003  0.00  0.00    +0.198 A 
ATOM      6  N   UNL     1      -0.016   1.320   0.010  0.00  0.00    -0.221 NA
ATOM      7  N   UNL     1       1.052   3.398   0.011  0.00  0.00    -0.301 N 
ATOM      8  C   UNL     1       0.270   3.885   1.155  0.00  0.00    +0.108 C 
ATOM      9  C   UNL     1       0.102   5.402   1.051  0.00  0.00    +0.022 C 
ATOM     10  C   UNL     1       1.483   6.063   1.036  0.00  0.00    -0.011 C 
ATOM     11  C   UNL     1       2.295   5.504  -0.136  0.00  0.00    +0.022 C 
ATOM     12  C   UNL     1       2.399   3.983   0.002  0.00  0.00    +0.108 C 
ATOM     13  C   UNL     1       1.324   7.576   0.872  0.00  0.00    +0.007 C 
ATOM     14  O   UNL     1       3.598  -0.509  -0.033  0.00  0.00    -0.268 OA
ATOM     15  H   UNL     1       3.215   2.024  -0.016  0.00  0.00    +0.172 HD
ENDROOT
BRANCH   1  16
ATOM     16  C   UNL     1      -1.288  -0.783   0.010  0.00  0.00    +0.060 C 
BRANCH  16  17
ATOM     17  C   UNL     1      -2.141  -0.345   1.202  0.00  0.00    +0.045 C 
BRANCH  17  20
ATOM     18  C   UNL     1      -2.633  -3.079   2.642  0.00  0.00    +0.065 C 
ATOM     19  C   UNL     1      -3.643  -2.307   1.832  0.00  0.00    +0.036 A 
ATOM     20  C   UNL     1      -3.431  -1.125   1.209  0.00  0.00    -0.004 A 
ATOM     21  C   UNL     1      -4.622  -0.751   0.578  0.00  0.00    +0.063 A 
ATOM     22  N   UNL     1      -5.514  -1.681   0.806  0.00  0.00    -0.179 NA
ATOM     23  N   UNL     1      -4.921  -2.672   1.599  0.00  0.00    -0.281 N 
ATOM     24  H   UNL     1      -5.310  -3.612   2.017  0.00  0.00    +0.189 HD
ATOM     25  C   UNL     1      -4.839   0.503  -0.228  0.00  0.00    +0.068 C 
ENDBRANCH  17  20
ENDBRANCH  16  17
ENDBRANCH   1  16
TORSDOF 3
