REMARK  Name = ZINC09431122
REMARK  9 active torsions:
REMARK  status: ('A' for Active; 'I' for Inactive)
REMARK    1  A    between atoms: C_1  and  C_2
REMARK    2  A    between atoms: C_2  and  C_3
REMARK    3  A    between atoms: N_9  and  C_10
REMARK    4  A    between atoms: C_10  and  C_11
REMARK    5  A    between atoms: C_14  and  C_16
REMARK    6  A    between atoms: C_16  and  N_17
REMARK    7  A    between atoms: C_18  and  C_20
REMARK    8  A    between atoms: C_20  and  C_21
REMARK    9  A    between atoms: C_21  and  C_22
REMARK                            x       y       z     vdW  Elec       q    Type
REMARK                         _______ _______ _______ _____ _____    ______ ____
ROOT
ATOM      1  N   UNL     1       7.029   3.422   1.375  0.00  0.00    -0.308 N 
ATOM      2  C   UNL     1       7.944   3.842   2.271  0.00  0.00    +0.214 C 
ATOM      3  O   UNL     1       8.721   3.050   2.761  0.00  0.00    -0.276 OA
ATOM      4  H   UNL     1       6.408   4.055   0.983  0.00  0.00    +0.149 HD
ENDROOT
BRANCH   1   5
ATOM      5  C   UNL     1       6.972   2.008   0.994  0.00  0.00    +0.178 C 
BRANCH   5   9
ATOM      6  C   UNL     1       3.893   1.396  -0.871  0.00  0.00    +0.089 A 
ATOM      7  C   UNL     1       4.726   1.624  -1.903  0.00  0.00    +0.043 A 
ATOM      8  C   UNL     1       6.001   1.886  -1.349  0.00  0.00    +0.046 A 
ATOM      9  C   UNL     1       5.870   1.803  -0.013  0.00  0.00    +0.122 A 
ATOM     10  O   UNL     1       4.590   1.512   0.271  0.00  0.00    -0.465 OA
BRANCH   6  11
ATOM     11  C   UNL     1       2.425   1.073  -0.979  0.00  0.00    -0.003 C 
BRANCH  11  17
ATOM     12  C   UNL     1       0.817  -0.703  -1.055  0.00  0.00    -0.068 C 
ATOM     13  C   UNL     1       0.630  -2.222  -1.058  0.00  0.00    -0.015 C 
ATOM     14  C   UNL     1       1.279  -2.808  -2.315  0.00  0.00    -0.003 C 
ATOM     15  C   UNL     1       2.756  -2.405  -2.350  0.00  0.00    -0.019 C 
ATOM     16  C   UNL     1       2.865  -0.879  -2.298  0.00  0.00    -0.078 C 
ATOM     17  N   UNL     1       2.249  -0.383  -1.061  0.00  0.00    +0.386 N 
ATOM     18  H   UNL     1       2.694  -0.819  -0.267  0.00  0.00    -0.081 HD
BRANCH  12  20
ATOM     19  C   UNL     1      -1.339  -0.370   0.164  0.00  0.00    +0.002 C 
ATOM     20  C   UNL     1       0.169  -0.113   0.200  0.00  0.00    -0.019 C 
ENDBRANCH  12  20
ENDBRANCH  11  17
ENDBRANCH   6  11
ENDBRANCH   5   9
ENDBRANCH   1   5
BRANCH   2  21
ATOM     21  C   UNL     1       8.003   5.296   2.662  0.00  0.00    +0.103 C 
BRANCH  21  22
ATOM     22  C   UNL     1       9.121   5.504   3.685  0.00  0.00    +0.087 C 
BRANCH  22  23
ATOM     23  C   UNL     1       9.180   6.958   4.077  0.00  0.00    +0.156 A 
ATOM     24  N   UNL     1       9.890   7.889   3.489  0.00  0.00    -0.132 NA
ATOM     25  N   UNL     1       9.710   9.021   4.074  0.00  0.00    -0.128 NA
ATOM     26  C   UNL     1       8.864   8.862   5.079  0.00  0.00    +0.178 A 
ATOM     27  N   UNL     1       8.506   7.537   5.093  0.00  0.00    -0.195 N 
ATOM     28  N   UNL     1       7.608   7.064   6.052  0.00  0.00    -0.148 NA
ATOM     29  C   UNL     1       7.096   7.879   6.944  0.00  0.00    +0.142 A 
ATOM     30  C   UNL     1       7.439   9.245   6.955  0.00  0.00    +0.049 A 
ATOM     31  C   UNL     1       8.317   9.735   6.040  0.00  0.00    +0.053 A 
ATOM     32  N   UNL     1       6.203   7.388   7.891  0.00  0.00    -0.314 N 
ATOM     33  C   UNL     1       5.705   8.252   8.970  0.00  0.00    +0.106 C 
ATOM     34  C   UNL     1       4.174   8.216   8.963  0.00  0.00    +0.019 C 
ATOM     35  C   UNL     1       3.701   6.763   9.053  0.00  0.00    +0.003 C 
ATOM     36  C   UNL     1       4.208   5.984   7.837  0.00  0.00    +0.019 C 
ATOM     37  C   UNL     1       5.735   5.997   7.827  0.00  0.00    +0.106 C 
ENDBRANCH  22  23
ENDBRANCH  21  22
ENDBRANCH   2  21
TORSDOF 8
