REMARK  Name = ZINC19292975
REMARK  2 active torsions:
REMARK  status: ('A' for Active; 'I' for Inactive)
REMARK    1  A    between atoms: C_6  and  C_7
REMARK    2  A    between atoms: C_7  and  N_8
REMARK                            x       y       z     vdW  Elec       q    Type
REMARK                         _______ _______ _______ _____ _____    ______ ____
ROOT
ATOM      1  N   UNL     1      -0.734   1.578  -1.177  0.00  0.00    -0.292 NA
ATOM      2  C   UNL     1      -0.013   1.086   0.008  0.00  0.00    +0.090 C 
ATOM      3  C   UNL     1      -0.739   1.584   1.258  0.00  0.00    +0.058 C 
ATOM      4  C   UNL     1      -2.209   1.278   1.154  0.00  0.00    +0.041 A 
ATOM      5  C   UNL     1      -2.800   0.962  -0.028  0.00  0.00    +0.067 A 
ATOM      6  N   UNL     1      -4.113   0.711  -0.066  0.00  0.00    -0.219 NA
ATOM      7  C   UNL     1      -4.857   0.758   1.019  0.00  0.00    +0.199 A 
ATOM      8  N   UNL     1      -4.317   1.064   2.229  0.00  0.00    -0.295 N 
ATOM      9  H   UNL     1      -4.956   1.097   3.124  0.00  0.00    +0.172 HD
ATOM     10  C   UNL     1      -2.997   1.327   2.322  0.00  0.00    +0.256 A 
ATOM     11  O   UNL     1      -2.494   1.601   3.398  0.00  0.00    -0.267 OA
ATOM     12  N   UNL     1      -6.198   0.494   0.927  0.00  0.00    -0.301 N 
ATOM     13  C   UNL     1      -6.606  -0.508   1.919  0.00  0.00    +0.108 C 
ATOM     14  C   UNL     1      -8.128  -0.670   1.886  0.00  0.00    +0.019 C 
ATOM     15  C   UNL     1      -8.559  -1.108   0.484  0.00  0.00    +0.003 C 
ATOM     16  C   UNL     1      -8.079  -0.072  -0.536  0.00  0.00    +0.019 C 
ATOM     17  C   UNL     1      -6.559   0.073  -0.433  0.00  0.00    +0.108 C 
ATOM     18  C   UNL     1      -2.019   0.884  -1.313  0.00  0.00    +0.140 C 
ENDROOT
BRANCH   1  19
ATOM     19  C   UNL     1       0.079   1.424  -2.390  0.00  0.00    +0.120 C 
BRANCH  19  25
ATOM     20  C   UNL     1      -0.272   3.479  -3.773  0.00  0.00    +0.008 A 
ATOM     21  C   UNL     1      -0.875   4.151  -4.821  0.00  0.00    +0.041 A 
ATOM     22  C   UNL     1      -1.787   3.496  -5.629  0.00  0.00    +0.158 A 
ATOM     23  C   UNL     1      -2.095   2.166  -5.387  0.00  0.00    +0.159 A 
ATOM     24  C   UNL     1      -1.486   1.495  -4.342  0.00  0.00    +0.046 A 
ATOM     25  C   UNL     1      -0.579   2.154  -3.533  0.00  0.00    -0.030 A 
ATOM     26  F   UNL     1      -2.985   1.524  -6.175  0.00  0.00    -0.202 F 
ATOM     27  F   UNL     1      -2.376   4.151  -6.653  0.00  0.00    -0.202 F 
ENDBRANCH  19  25
ENDBRANCH   1  19
TORSDOF 2
