REMARK  Name = ZINC67201893
REMARK  8 active torsions:
REMARK  status: ('A' for Active; 'I' for Inactive)
REMARK    1  A    between atoms: C_1  and  C_2
REMARK    2  A    between atoms: C_2  and  C_4
REMARK    3  A    between atoms: C_2  and  N_16
REMARK    4  A    between atoms: C_17  and  C_19
REMARK    5  A    between atoms: C_19  and  C_20
REMARK    6  A    between atoms: C_20  and  C_21
REMARK    7  A    between atoms: C_20  and  C_22
REMARK    8  A    between atoms: C_20  and  C_23
REMARK                            x       y       z     vdW  Elec       q    Type
REMARK                         _______ _______ _______ _____ _____    ______ ____
ROOT
ATOM      1  C   UNL     1      -0.019   1.526   0.010  0.00  0.00    +0.033 C 
ATOM      2  C   UNL     1       0.002  -0.004   0.002  0.00  0.00    +0.100 C 
ENDROOT
BRANCH   2   3
ATOM      3  C   UNL     1       0.731  -0.503   1.223  0.00  0.00    -0.025 A 
ATOM      4  C   UNL     1       0.077  -0.557   2.442  0.00  0.00    +0.007 A 
ATOM      5  C   UNL     1       0.737  -1.013   3.566  0.00  0.00    +0.028 A 
ATOM      6  C   UNL     1       2.059  -1.419   3.474  0.00  0.00    +0.067 A 
ATOM      7  C   UNL     1       2.719  -1.364   2.244  0.00  0.00    +0.067 A 
ATOM      8  C   UNL     1       2.047  -0.910   1.120  0.00  0.00    +0.033 A 
ATOM      9  N   UNL     1       4.014  -1.829   2.461  0.00  0.00    -0.306 N 
ATOM     10  H   UNL     1       4.709  -1.906   1.789  0.00  0.00    +0.170 HD
ATOM     11  C   UNL     1       4.137  -2.151   3.763  0.00  0.00    +0.325 A 
ATOM     12  O   UNL     1       5.145  -2.589   4.284  0.00  0.00    -0.247 OA
ATOM     13  N   UNL     1       2.974  -1.915   4.400  0.00  0.00    -0.306 N 
ATOM     14  H   UNL     1       2.803  -2.064   5.343  0.00  0.00    +0.170 HD
ENDBRANCH   2   3
BRANCH   2  15
ATOM     15  N   UNL     1      -1.372  -0.511   0.012  0.00  0.00    -0.309 N 
ATOM     16  C   UNL     1      -2.051  -0.643  -1.145  0.00  0.00    +0.214 C 
ATOM     17  O   UNL     1      -1.524  -0.341  -2.194  0.00  0.00    -0.276 OA
ATOM     18  H   UNL     1      -1.794  -0.752   0.852  0.00  0.00    +0.149 HD
BRANCH  16  19
ATOM     19  C   UNL     1      -3.465  -1.164  -1.134  0.00  0.00    +0.106 C 
BRANCH  19  20
ATOM     20  C   UNL     1      -4.000  -1.215  -2.566  0.00  0.00    -0.002 C 
ATOM     21  C   UNL     1      -3.980   0.191  -3.168  0.00  0.00    +0.016 C 
ATOM     22  C   UNL     1      -3.121  -2.143  -3.407  0.00  0.00    +0.016 C 
BRANCH  20  23
ATOM     23  C   UNL     1      -5.414  -1.737  -2.555  0.00  0.00    -0.041 A 
ATOM     24  C   UNL     1      -6.017  -2.075  -1.358  0.00  0.00    +0.004 A 
ATOM     25  C   UNL     1      -7.314  -2.554  -1.349  0.00  0.00    +0.000 A 
ATOM     26  C   UNL     1      -8.008  -2.693  -2.536  0.00  0.00    +0.000 A 
ATOM     27  C   UNL     1      -7.405  -2.354  -3.733  0.00  0.00    +0.000 A 
ATOM     28  C   UNL     1      -6.110  -1.872  -3.742  0.00  0.00    +0.004 A 
ENDBRANCH  20  23
ENDBRANCH  19  20
ENDBRANCH  16  19
ENDBRANCH   2  15
TORSDOF 5
