REMARK  Name = ZINC60211585
REMARK  10 active torsions:
REMARK  status: ('A' for Active; 'I' for Inactive)
REMARK    1  A    between atoms: C_1  and  C_2
REMARK    2  A    between atoms: C_2  and  N_3
REMARK    3  A    between atoms: N_3  and  C_4
REMARK    4  A    between atoms: N_3  and  C_6
REMARK    5  A    between atoms: C_4  and  C_5
REMARK    6  A    between atoms: C_6  and  C_7
REMARK    7  A    between atoms: C_10  and  C_12
REMARK    8  A    between atoms: N_14  and  N_15
REMARK    9  A    between atoms: C_16  and  C_18
REMARK   10  A    between atoms: C_19  and  C_28
REMARK                            x       y       z     vdW  Elec       q    Type
REMARK                         _______ _______ _______ _____ _____    ______ ____
ROOT
ATOM      1  C   UNL     1      -6.492  -2.189   1.670  0.00  0.00    +0.295 C 
ATOM      2  O   UNL     1      -7.590  -2.390   1.186  0.00  0.00    -0.265 OA
ATOM      3  N   UNL     1      -6.359  -2.041   3.003  0.00  0.00    -0.228 N 
ATOM      4  H   UNL     1      -5.484  -1.881   3.389  0.00  0.00    +0.173 HD
ENDROOT
BRANCH   1   8
ATOM      5  C   UNL     1      -3.233  -1.881   0.141  0.00  0.00    +0.090 A 
ATOM      6  C   UNL     1      -3.972  -2.093  -0.970  0.00  0.00    +0.043 A 
ATOM      7  C   UNL     1      -5.305  -2.241  -0.557  0.00  0.00    +0.055 A 
ATOM      8  C   UNL     1      -5.312  -2.109   0.802  0.00  0.00    +0.191 A 
ATOM      9  O   UNL     1      -4.043  -1.896   1.208  0.00  0.00    -0.457 OA
BRANCH   5  10
ATOM     10  C   UNL     1      -1.741  -1.668   0.176  0.00  0.00    -0.003 C 
BRANCH  10  11
ATOM     11  N   UNL     1      -1.443  -0.252  -0.073  0.00  0.00    +0.384 N 
ATOM     12  H   UNL     1      -1.876   0.036  -0.938  0.00  0.00    -0.081 HD
BRANCH  11  14
ATOM     13  C   UNL     1      -1.768   2.044   0.714  0.00  0.00    -0.017 C 
ATOM     14  C   UNL     1      -1.967   0.561   1.032  0.00  0.00    -0.082 C 
ENDBRANCH  11  14
BRANCH  11  15
ATOM     15  C   UNL     1       0.012  -0.067  -0.169  0.00  0.00    -0.082 C 
ATOM     16  C   UNL     1       0.538  -0.799  -1.406  0.00  0.00    -0.017 C 
ENDBRANCH  11  15
ENDBRANCH  10  11
ENDBRANCH   5  10
ENDBRANCH   1   8
BRANCH   3  17
ATOM     17  N   UNL     1      -7.486  -2.118   3.832  0.00  0.00    -0.230 N 
ATOM     18  C   UNL     1      -7.354  -1.969   5.165  0.00  0.00    +0.267 C 
ATOM     19  O   UNL     1      -6.256  -1.768   5.648  0.00  0.00    -0.268 OA
ATOM     20  H   UNL     1      -8.362  -2.278   3.446  0.00  0.00    +0.173 HD
BRANCH  18  21
ATOM     21  C   UNL     1      -8.536  -2.050   6.034  0.00  0.00    +0.079 A 
ATOM     22  C   UNL     1      -8.604  -1.922   7.386  0.00  0.00    -0.021 A 
ATOM     23  C   UNL     1      -9.843  -2.033   8.040  0.00  0.00    +0.028 A 
ATOM     24  C   UNL     1     -10.115  -1.931   9.431  0.00  0.00    +0.132 A 
ATOM     25  C   UNL     1     -11.395  -2.066   9.903  0.00  0.00    +0.039 A 
ATOM     26  C   UNL     1     -12.462  -2.307   9.046  0.00  0.00    +0.004 A 
ATOM     27  C   UNL     1     -12.235  -2.412   7.689  0.00  0.00    +0.016 A 
ATOM     28  C   UNL     1     -10.954  -2.278   7.198  0.00  0.00    +0.023 A 
ATOM     29  S   UNL     1     -10.237  -2.332   5.575  0.00  0.00    -0.083 S 
ATOM     30  F   UNL     1      -9.104  -1.698  10.296  0.00  0.00    -0.205 F 
ATOM     31  C   UNL     1      -7.351  -1.662   8.183  0.00  0.00    +0.046 C 
ENDBRANCH  18  21
ENDBRANCH   3  17
TORSDOF 7
