REMARK  Name = ZINC06320922
REMARK  12 active torsions:
REMARK  status: ('A' for Active; 'I' for Inactive)
REMARK    1  A    between atoms: C_1  and  C_2
REMARK    2  A    between atoms: C_6  and  C_15
REMARK    3  A    between atoms: C_13  and  C_14
REMARK    4  A    between atoms: C_15  and  N_68
REMARK    5  A    between atoms: C_16  and  C_17
REMARK    6  A    between atoms: C_16  and  N_68
REMARK    7  A    between atoms: N_21  and  C_22
REMARK    8  A    between atoms: C_22  and  C_23
REMARK    9  A    between atoms: C_26  and  O_29
REMARK   10  A    between atoms: O_29  and  C_30
REMARK   11  A    between atoms: C_31  and  C_32
REMARK   12  A    between atoms: C_31  and  N_68
REMARK                            x       y       z     vdW  Elec       q    Type
REMARK                         _______ _______ _______ _____ _____    ______ ____
ROOT
ATOM      1  N   UNL     1      -1.907   2.141  -1.357  0.00  0.00    +0.389 N 
ATOM      2  H   UNL     1      -2.035   1.209  -1.768  0.00  0.00    -0.081 HD
ENDROOT
BRANCH   1   3
ATOM      3  C   UNL     1      -1.271   1.997  -0.030  0.00  0.00    -0.037 C 
BRANCH   3   9
ATOM      4  C   UNL     1       6.086   1.173  -0.932  0.00  0.00    +0.044 C 
ATOM      5  C   UNL     1       4.709   0.586  -0.758  0.00  0.00    -0.047 A 
ATOM      6  C   UNL     1       3.631   1.414  -0.629  0.00  0.00    +0.013 A 
ATOM      7  C   UNL     1       2.353   0.869  -0.468  0.00  0.00    -0.001 A 
ATOM      8  C   UNL     1       1.175   1.727  -0.327  0.00  0.00    +0.017 A 
ATOM      9  C   UNL     1      -0.038   1.142  -0.172  0.00  0.00    +0.001 A 
ATOM     10  C   UNL     1      -0.151  -0.265  -0.150  0.00  0.00    +0.251 A 
ATOM     11  O   UNL     1      -1.252  -0.770  -0.011  0.00  0.00    -0.268 OA
ATOM     12  N   UNL     1       0.924  -1.061  -0.280  0.00  0.00    -0.322 N 
ATOM     13  H   UNL     1       0.811  -2.024  -0.260  0.00  0.00    +0.169 HD
ATOM     14  C   UNL     1       2.186  -0.529  -0.439  0.00  0.00    +0.049 A 
ATOM     15  C   UNL     1       3.299  -1.352  -0.572  0.00  0.00    +0.030 A 
ATOM     16  C   UNL     1       4.548  -0.793  -0.731  0.00  0.00    -0.046 A 
ATOM     17  C   UNL     1       5.753  -1.687  -0.875  0.00  0.00    +0.044 C 
ENDBRANCH   3   9
ENDBRANCH   1   3
BRANCH   1  18
ATOM     18  C   UNL     1      -3.228   2.789  -1.217  0.00  0.00    +0.001 C 
BRANCH  18  19
ATOM     19  C   UNL     1      -3.888   2.850  -2.570  0.00  0.00    +0.135 A 
ATOM     20  N   UNL     1      -3.800   3.826  -3.440  0.00  0.00    -0.115 NA
ATOM     21  N   UNL     1      -4.502   3.504  -4.472  0.00  0.00    -0.023 NA
ATOM     22  N   UNL     1      -5.042   2.351  -4.278  0.00  0.00    -0.044 NA
ATOM     23  N   UNL     1      -4.687   1.915  -3.117  0.00  0.00    -0.227 N 
BRANCH  23  24
ATOM     24  C   UNL     1      -5.080   0.642  -2.508  0.00  0.00    +0.182 C 
BRANCH  24  25
ATOM     25  C   UNL     1      -6.348   0.834  -1.718  0.00  0.00    -0.026 A 
ATOM     26  C   UNL     1      -6.282   1.182  -0.381  0.00  0.00    +0.009 A 
ATOM     27  C   UNL     1      -7.444   1.363   0.344  0.00  0.00    +0.046 A 
ATOM     28  C   UNL     1      -8.677   1.186  -0.266  0.00  0.00    +0.120 A 
ATOM     29  C   UNL     1      -8.740   0.831  -1.606  0.00  0.00    +0.046 A 
ATOM     30  C   UNL     1      -7.576   0.656  -2.329  0.00  0.00    +0.009 A 
BRANCH  28  31
ATOM     31  O   UNL     1      -9.821   1.359   0.447  0.00  0.00    -0.495 OA
ATOM     32  C   UNL     1      -9.680   1.724   1.821  0.00  0.00    +0.277 C 
ENDBRANCH  28  31
ENDBRANCH  24  25
ENDBRANCH  23  24
ENDBRANCH  18  19
ENDBRANCH   1  18
BRANCH   1  33
ATOM     33  C   UNL     1      -1.042   2.943  -2.247  0.00  0.00    -0.046 C 
BRANCH  33  34
ATOM     34  C   UNL     1      -0.705   4.287  -1.599  0.00  0.00    +0.102 C 
ATOM     35  C   UNL     1       0.337   5.035  -2.453  0.00  0.00    +0.032 C 
ATOM     36  C   UNL     1      -0.357   6.370  -2.817  0.00  0.00    +0.030 C 
ATOM     37  C   UNL     1      -1.449   6.477  -1.722  0.00  0.00    +0.160 C 
ATOM     38  O   UNL     1      -1.882   5.112  -1.543  0.00  0.00    -0.378 OA
ENDBRANCH  33  34
ENDBRANCH   1  33
TORSDOF 9
