REMARK  Name = ZINC04738497
REMARK  3 active torsions:
REMARK  status: ('A' for Active; 'I' for Inactive)
REMARK    1  A    between atoms: N_7  and  N_8
REMARK    2  A    between atoms: C_9  and  C_10
REMARK    3  A    between atoms: C_15  and  O_16
REMARK                            x       y       z     vdW  Elec       q    Type
REMARK                         _______ _______ _______ _____ _____    ______ ____
ROOT
ATOM      1  N   UNL     1       2.491  -2.724  -0.039  0.00  0.00    -0.189 NA
ATOM      2  C   UNL     1       2.523  -4.022  -0.047  0.00  0.00    +0.142 C 
ENDROOT
BRANCH   1   9
ATOM      3  C   UNL     1      -0.017   1.379   0.010  0.00  0.00    +0.005 A 
ATOM      4  C   UNL     1       1.195   2.058   0.002  0.00  0.00    +0.020 A 
ATOM      5  C   UNL     1       2.373   1.339  -0.013  0.00  0.00    +0.113 A 
ATOM      6  N   UNL     1       2.361   0.020  -0.021  0.00  0.00    -0.239 NA
ATOM      7  C   UNL     1       1.227  -0.664  -0.014  0.00  0.00    +0.138 A 
ATOM      8  C   UNL     1       0.002  -0.004   0.002  0.00  0.00    +0.045 A 
ATOM      9  N   UNL     1       1.261  -2.053  -0.022  0.00  0.00    -0.221 N 
ATOM     10  H   UNL     1       0.433  -2.558  -0.017  0.00  0.00    +0.176 HD
ENDBRANCH   1   9
BRANCH   2  11
ATOM     11  C   UNL     1       3.817  -4.727  -0.064  0.00  0.00    +0.037 A 
ATOM     12  C   UNL     1       3.855  -6.123  -0.079  0.00  0.00    +0.028 A 
ATOM     13  C   UNL     1       5.070  -6.778  -0.095  0.00  0.00    +0.019 A 
ATOM     14  C   UNL     1       6.252  -6.055  -0.097  0.00  0.00    +0.019 A 
ATOM     15  C   UNL     1       6.226  -4.673  -0.082  0.00  0.00    +0.047 A 
ATOM     16  C   UNL     1       5.015  -4.001  -0.071  0.00  0.00    +0.126 A 
ATOM     17 BR   UNL     1       5.121  -8.668  -0.115  0.00  0.00    -0.050 Br
BRANCH  16  18
ATOM     18  O   UNL     1       4.989  -2.643  -0.062  0.00  0.00    -0.506 OA
ATOM     19  H   UNL     1       4.991  -2.255   0.823  0.00  0.00    +0.292 HD
ENDBRANCH  16  18
ENDBRANCH   2  11
TORSDOF 3
