REMARK  Name = ZINC39676586
REMARK  14 active torsions:
REMARK  status: ('A' for Active; 'I' for Inactive)
REMARK    1  A    between atoms: C_1  and  C_2
REMARK    2  A    between atoms: C_2  and  C_3
REMARK    3  A    between atoms: C_3  and  C_4
REMARK    4  A    between atoms: C_4  and  C_5
REMARK    5  A    between atoms: C_5  and  C_7
REMARK    6  A    between atoms: C_5  and  C_8
REMARK    7  A    between atoms: C_12  and  C_21
REMARK    8  A    between atoms: N_23  and  C_24
REMARK    9  A    between atoms: C_24  and  C_25
REMARK   10  A    between atoms: C_24  and  C_33
REMARK   11  A    between atoms: C_28  and  O_31
REMARK   12  A    between atoms: O_31  and  C_32
REMARK   13  A    between atoms: C_36  and  O_39
REMARK   14  A    between atoms: O_39  and  C_40
REMARK                            x       y       z     vdW  Elec       q    Type
REMARK                         _______ _______ _______ _____ _____    ______ ____
ROOT
ATOM      1  C   UNL     1       5.049  -4.595  -3.623  0.00  0.00    +0.219 C 
ATOM      2  O   UNL     1       4.768  -3.962  -2.628  0.00  0.00    -0.275 OA
ATOM      3  N   UNL     1       6.319  -4.993  -3.832  0.00  0.00    -0.304 N 
ATOM      4  H   UNL     1       6.545  -5.499  -4.628  0.00  0.00    +0.150 HD
ENDROOT
BRANCH   1   9
ATOM      5  C   UNL     1       1.075  -3.920  -2.715  0.00  0.00    +0.218 C 
ATOM      6  O   UNL     1       0.369  -4.581  -1.983  0.00  0.00    -0.275 OA
ATOM      7  N   UNL     1       1.826  -4.526  -3.655  0.00  0.00    -0.300 N 
ATOM      8  C   UNL     1       2.827  -3.907  -4.557  0.00  0.00    +0.121 C 
ATOM      9  C   UNL     1       3.978  -4.936  -4.627  0.00  0.00    +0.100 C 
ATOM     10  C   UNL     1       3.322  -6.283  -4.277  0.00  0.00    -0.004 C 
ATOM     11  C   UNL     1       1.843  -5.964  -4.018  0.00  0.00    +0.115 C 
ATOM     12  C   UNL     1       3.958  -6.869  -3.020  0.00  0.00    -0.010 C 
ATOM     13  C   UNL     1       3.329  -8.233  -2.725  0.00  0.00    -0.082 C 
ATOM     14  N   UNL     1       3.542  -9.129  -3.868  0.00  0.00    +0.379 N 
ATOM     15  C   UNL     1       2.849  -8.605  -5.051  0.00  0.00    -0.082 C 
ATOM     16  C   UNL     1       3.457  -7.256  -5.444  0.00  0.00    -0.010 C 
ATOM     17  H   UNL     1       4.530  -9.198  -4.061  0.00  0.00    -0.086 HD
ATOM     18  H   UNL     1       3.181 -10.046  -3.647  0.00  0.00    -0.086 HD
BRANCH   5  19
ATOM     19  C   UNL     1       1.112  -2.420  -2.572  0.00  0.00    +0.072 C 
ATOM     20  C   UNL     1       0.958  -2.044  -1.097  0.00  0.00    +0.017 C 
BRANCH  19  21
ATOM     21  C   UNL     1      -0.032  -1.803  -3.378  0.00  0.00    +0.012 C 
BRANCH  21  22
ATOM     22  C   UNL     1       0.079  -0.277  -3.336  0.00  0.00    +0.000 C 
BRANCH  22  24
ATOM     23  C   UNL     1      -0.955   1.865  -4.099  0.00  0.00    +0.004 C 
ATOM     24  C   UNL     1      -1.066   0.340  -4.142  0.00  0.00    -0.003 C 
ENDBRANCH  22  24
ENDBRANCH  21  22
ENDBRANCH  19  21
ENDBRANCH   5  19
ENDBRANCH   1   9
BRANCH   3  25
ATOM     25  C   UNL     1       7.361  -4.661  -2.857  0.00  0.00    +0.134 C 
BRANCH  25  26
ATOM     26  C   UNL     1       8.479  -5.666  -2.954  0.00  0.00    -0.023 A 
ATOM     27  C   UNL     1       8.895  -6.118  -4.192  0.00  0.00    +0.009 A 
ATOM     28  C   UNL     1       9.920  -7.040  -4.284  0.00  0.00    +0.046 A 
ATOM     29  C   UNL     1      10.532  -7.512  -3.132  0.00  0.00    +0.120 A 
ATOM     30  C   UNL     1      10.113  -7.057  -1.891  0.00  0.00    +0.046 A 
ATOM     31  C   UNL     1       9.091  -6.131  -1.804  0.00  0.00    +0.009 A 
BRANCH  29  32
ATOM     32  O   UNL     1      11.540  -8.420  -3.220  0.00  0.00    -0.495 OA
ATOM     33  C   UNL     1      12.123  -8.861  -1.992  0.00  0.00    +0.277 C 
ENDBRANCH  29  32
ENDBRANCH  25  26
BRANCH  25  34
ATOM     34  C   UNL     1       7.898  -3.283  -3.144  0.00  0.00    -0.023 A 
ATOM     35  C   UNL     1       8.095  -2.878  -4.452  0.00  0.00    +0.009 A 
ATOM     36  C   UNL     1       8.588  -1.615  -4.718  0.00  0.00    +0.046 A 
ATOM     37  C   UNL     1       8.884  -0.753  -3.673  0.00  0.00    +0.120 A 
ATOM     38  C   UNL     1       8.685  -1.161  -2.362  0.00  0.00    +0.046 A 
ATOM     39  C   UNL     1       8.187  -2.423  -2.101  0.00  0.00    +0.009 A 
BRANCH  37  40
ATOM     40  O   UNL     1       9.370   0.490  -3.933  0.00  0.00    -0.495 OA
ATOM     41  C   UNL     1       9.653   1.324  -2.808  0.00  0.00    +0.277 C 
ENDBRANCH  37  40
ENDBRANCH  25  34
ENDBRANCH   3  25
TORSDOF 10
