REMARK  Name = ZINC41584740
REMARK  7 active torsions:
REMARK  status: ('A' for Active; 'I' for Inactive)
REMARK    1  A    between atoms: C_1  and  C_2
REMARK    2  A    between atoms: C_2  and  C_3
REMARK    3  A    between atoms: C_6  and  C_9
REMARK    4  A    between atoms: C_14  and  C_38
REMARK    5  A    between atoms: C_16  and  O_37
REMARK    6  A    between atoms: C_17  and  C_20
REMARK    7  A    between atoms: C_20  and  N_21
REMARK                            x       y       z     vdW  Elec       q    Type
REMARK                         _______ _______ _______ _____ _____    ______ ____
ROOT
ATOM      1  C   UNL     1       2.692  -1.858  -4.726  0.00  0.00    +0.058 C 
ATOM      2  C   UNL     1       4.043  -1.974  -4.736  0.00  0.00    +0.176 C 
ATOM      3  C   UNL     1       4.877  -2.328  -5.896  0.00  0.00    +0.232 C 
ATOM      4  O   UNL     1       4.510  -2.575  -7.032  0.00  0.00    -0.283 OA
ATOM      5  C   UNL     1       6.257  -2.317  -5.376  0.00  0.00    +0.071 A 
ATOM      6  C   UNL     1       7.499  -2.564  -5.962  0.00  0.00    -0.033 A 
ATOM      7  C   UNL     1       8.636  -2.476  -5.209  0.00  0.00    +0.050 A 
ATOM      8  C   UNL     1       8.557  -2.139  -3.860  0.00  0.00    +0.122 A 
ATOM      9  C   UNL     1       7.330  -1.891  -3.266  0.00  0.00    +0.020 A 
ATOM     10  C   UNL     1       6.165  -1.976  -4.017  0.00  0.00    +0.145 A 
ATOM     11  O   UNL     1       4.870  -1.781  -3.683  0.00  0.00    -0.451 OA
ATOM     12  C   UNL     1       7.587  -2.929  -7.421  0.00  0.00    +0.045 C 
ENDROOT
BRANCH   1  16
ATOM     13  C   UNL     1       0.709  -0.476  -1.243  0.00  0.00    -0.048 A 
ATOM     14  C   UNL     1       2.072  -0.714  -1.210  0.00  0.00    +0.004 A 
ATOM     15  C   UNL     1       2.724  -1.164  -2.338  0.00  0.00    +0.008 A 
ATOM     16  C   UNL     1       2.005  -1.379  -3.519  0.00  0.00    -0.021 A 
ATOM     17  C   UNL     1       0.627  -1.135  -3.543  0.00  0.00    +0.008 A 
ATOM     18  C   UNL     1      -0.011  -0.691  -2.405  0.00  0.00    +0.004 A 
BRANCH  13  20
ATOM     19  C   UNL     1      -0.477  -1.181   0.818  0.00  0.00    +0.009 C 
ATOM     20  C   UNL     1       0.004   0.016  -0.005  0.00  0.00    +0.032 C 
ENDBRANCH  13  20
ENDBRANCH   1  16
BRANCH   8  21
ATOM     21  O   UNL     1       9.692  -2.054  -3.120  0.00  0.00    -0.506 OA
ATOM     22  H   UNL     1      10.093  -1.175  -3.115  0.00  0.00    +0.292 HD
ENDBRANCH   8  21
BRANCH   9  23
ATOM     23  C   UNL     1       7.260  -1.528  -1.805  0.00  0.00    -0.036 C 
BRANCH  23  24
ATOM     24  N   UNL     1       7.351  -0.069  -1.658  0.00  0.00    +0.383 N 
ATOM     25  C   UNL     1       7.154   0.291  -0.251  0.00  0.00    -0.073 C 
ATOM     26  C   UNL     1       7.242   1.797  -0.052  0.00  0.00    -0.007 C 
ATOM     27  C   UNL     1       8.579   2.335  -0.572  0.00  0.00    +0.011 C 
ATOM     28  C   UNL     1       8.697   1.923  -2.044  0.00  0.00    +0.020 C 
ATOM     29  C   UNL     1       8.674   0.387  -2.110  0.00  0.00    -0.069 C 
ATOM     30  C   UNL     1       7.495   2.441  -2.801  0.00  0.00    +0.023 A 
ATOM     31  C   UNL     1       7.657   2.721  -4.121  0.00  0.00    +0.022 A 
ATOM     32  C   UNL     1       6.570   3.143  -4.896  0.00  0.00    +0.007 A 
ATOM     33  C   UNL     1       5.343   3.243  -4.310  0.00  0.00    +0.070 A 
ATOM     34  C   UNL     1       5.210   2.943  -2.947  0.00  0.00    +0.251 A 
ATOM     35  O   UNL     1       4.106   2.969  -2.427  0.00  0.00    -0.268 OA
ATOM     36  N   UNL     1       6.295   2.623  -2.201  0.00  0.00    -0.312 N 
ATOM     37  C   UNL     1       6.110   2.527  -0.756  0.00  0.00    +0.126 C 
ATOM     38  H   UNL     1       6.635   0.369  -2.219  0.00  0.00    -0.081 HD
ENDBRANCH  23  24
ENDBRANCH   9  23
TORSDOF 5
