REMARK  Name = ZINC01950078
REMARK  3 active torsions:
REMARK  status: ('A' for Active; 'I' for Inactive)
REMARK    1  A    between atoms: C_1  and  C_2
REMARK    2  A    between atoms: C_6  and  C_14
REMARK    3  A    between atoms: C_19  and  C_21
REMARK                            x       y       z     vdW  Elec       q    Type
REMARK                         _______ _______ _______ _____ _____    ______ ____
ROOT
ATOM      1  C   UNL     1      -3.588   4.884   0.130  0.00  0.00    +0.045 C 
ATOM      2  C   UNL     1      -4.374   5.779  -0.574  0.00  0.00    +0.152 C 
ATOM      3  C   UNL     1      -5.810   5.661  -0.870  0.00  0.00    +0.364 C 
ATOM      4  O   UNL     1      -6.558   4.756  -0.549  0.00  0.00    -0.243 OA
ATOM      5  O   UNL     1      -6.121   6.772  -1.571  0.00  0.00    -0.402 OA
ATOM      6  C   UNL     1      -5.008   7.515  -1.718  0.00  0.00    +0.233 C 
ATOM      7  N   UNL     1      -3.980   6.954  -1.145  0.00  0.00    -0.205 NA
ENDROOT
BRANCH   1  13
ATOM      8  C   UNL     1       0.237   8.600  -0.084  0.00  0.00    +0.113 C 
ATOM      9  C   UNL     1       0.638   7.245   0.440  0.00  0.00    +0.229 C 
ATOM     10  O   UNL     1       1.774   7.053   0.818  0.00  0.00    -0.273 OA
ATOM     11  N   UNL     1      -0.266   6.246   0.489  0.00  0.00    -0.287 N 
ATOM     12  C   UNL     1      -1.589   6.379   0.189  0.00  0.00    +0.103 A 
ATOM     13  C   UNL     1      -2.217   5.162   0.344  0.00  0.00    +0.003 A 
ATOM     14  C   UNL     1      -1.176   4.207   0.777  0.00  0.00    +0.009 A 
ATOM     15  C   UNL     1       0.018   4.938   0.850  0.00  0.00    +0.057 A 
ATOM     16  C   UNL     1       1.188   4.296   1.236  0.00  0.00    +0.028 A 
ATOM     17  C   UNL     1       1.168   2.952   1.544  0.00  0.00    +0.017 A 
ATOM     18  C   UNL     1      -0.014   2.230   1.472  0.00  0.00    +0.019 A 
ATOM     19  C   UNL     1      -1.185   2.850   1.085  0.00  0.00    +0.026 A 
ATOM     20 BR   UNL     1      -0.020   0.387   1.898  0.00  0.00    -0.050 Br
ENDBRANCH   1  13
BRANCH   6  21
ATOM     21  C   UNL     1      -4.957   8.803  -2.438  0.00  0.00    +0.057 A 
ATOM     22  C   UNL     1      -6.137   9.409  -2.877  0.00  0.00    +0.034 A 
ATOM     23  C   UNL     1      -6.083  10.616  -3.544  0.00  0.00    +0.042 A 
ATOM     24  C   UNL     1      -4.861  11.221  -3.790  0.00  0.00    +0.021 A 
ATOM     25  C   UNL     1      -3.688  10.624  -3.363  0.00  0.00    +0.022 A 
ATOM     26  C   UNL     1      -3.728   9.419  -2.689  0.00  0.00    +0.053 A 
ATOM     27 CL   UNL     1      -2.255   8.672  -2.155  0.00  0.00    -0.083 Cl
ATOM     28 CL   UNL     1      -7.548  11.373  -4.085  0.00  0.00    -0.084 Cl
ENDBRANCH   6  21
TORSDOF 2
