REMARK  Name = ZINC45661079
REMARK  10 active torsions:
REMARK  status: ('A' for Active; 'I' for Inactive)
REMARK    1  A    between atoms: C_1  and  C_2
REMARK    2  A    between atoms: C_2  and  C_3
REMARK    3  A    between atoms: C_3  and  C_4
REMARK    4  A    between atoms: C_4  and  N_5
REMARK    5  A    between atoms: N_14  and  C_31
REMARK    6  A    between atoms: C_15  and  C_17
REMARK    7  A    between atoms: C_17  and  S_18
REMARK    8  A    between atoms: S_18  and  C_19
REMARK    9  A    between atoms: N_27  and  C_28
REMARK   10  A    between atoms: C_31  and  C_32
REMARK                            x       y       z     vdW  Elec       q    Type
REMARK                         _______ _______ _______ _____ _____    ______ ____
ROOT
ATOM      1  N   UNL     1       1.425  -2.500  -2.470  0.00  0.00    -0.277 N 
ATOM      2  C   UNL     1       0.704  -2.728  -3.632  0.00  0.00    +0.168 A 
ATOM      3  C   UNL     1       1.377  -3.176  -4.761  0.00  0.00    +0.151 A 
ATOM      4  C   UNL     1       2.772  -3.385  -4.694  0.00  0.00    +0.280 A 
ATOM      5  O   UNL     1       3.384  -3.776  -5.671  0.00  0.00    -0.265 OA
ATOM      6  N   UNL     1       3.418  -3.144  -3.534  0.00  0.00    -0.273 N 
ATOM      7  H   UNL     1       4.376  -3.286  -3.483  0.00  0.00    +0.173 HD
ATOM      8  C   UNL     1       2.755  -2.706  -2.450  0.00  0.00    +0.331 A 
ATOM      9  O   UNL     1       3.372  -2.495  -1.423  0.00  0.00    -0.246 OA
ATOM     10  N   UNL     1       0.423  -3.315  -5.750  0.00  0.00    -0.322 N 
ATOM     11  C   UNL     1      -0.758  -2.960  -5.209  0.00  0.00    +0.123 A 
ATOM     12  N   UNL     1      -0.586  -2.614  -3.958  0.00  0.00    -0.213 NA
ENDROOT
BRANCH  10  13
ATOM     13  C   UNL     1       0.653  -3.763  -7.125  0.00  0.00    +0.120 C 
ATOM     14  C   UNL     1       0.509  -5.284  -7.197  0.00  0.00    +0.027 C 
ENDBRANCH  10  13
BRANCH   1  15
ATOM     15  C   UNL     1       0.739  -2.027  -1.265  0.00  0.00    +0.128 C 
BRANCH  15  16
ATOM     16  C   UNL     1       0.718  -0.497  -1.257  0.00  0.00    +0.021 C 
BRANCH  16  18
ATOM     17  C   UNL     1      -0.019   1.526   0.010  0.00  0.00    +0.004 C 
ATOM     18  C   UNL     1       0.002  -0.004   0.002  0.00  0.00    -0.002 C 
ENDBRANCH  16  18
ENDBRANCH  15  16
ENDBRANCH   1  15
BRANCH  11  19
ATOM     19  C   UNL     1      -2.079  -2.959  -5.935  0.00  0.00    +0.151 C 
BRANCH  19  20
ATOM     20  S   UNL     1      -2.875  -4.578  -5.743  0.00  0.00    -0.080 S 
BRANCH  20  21
ATOM     21  C   UNL     1      -4.386  -4.418  -6.635  0.00  0.00    +0.174 A 
ATOM     22  N   UNL     1      -4.774  -3.341  -7.273  0.00  0.00    -0.222 NA
ATOM     23  C   UNL     1      -5.984  -3.563  -7.850  0.00  0.00    +0.090 A 
ATOM     24  C   UNL     1      -6.835  -2.774  -8.629  0.00  0.00    +0.030 A 
ATOM     25  C   UNL     1      -8.028  -3.294  -9.079  0.00  0.00    +0.002 A 
ATOM     26  C   UNL     1      -8.392  -4.595  -8.764  0.00  0.00    +0.002 A 
ATOM     27  C   UNL     1      -7.563  -5.387  -7.996  0.00  0.00    +0.028 A 
ATOM     28  C   UNL     1      -6.357  -4.880  -7.535  0.00  0.00    +0.074 A 
ATOM     29  N   UNL     1      -5.326  -5.400  -6.770  0.00  0.00    -0.262 N 
BRANCH  29  30
ATOM     30  C   UNL     1      -5.258  -6.751  -6.207  0.00  0.00    +0.450 C 
ATOM     31  F   UNL     1      -4.523  -6.724  -5.017  0.00  0.00    -0.185 F 
ATOM     32  F   UNL     1      -6.553  -7.213  -5.945  0.00  0.00    -0.185 F 
ENDBRANCH  29  30
ENDBRANCH  20  21
ENDBRANCH  19  20
ENDBRANCH  11  19
TORSDOF 8
