REMARK  Name = ZINC22805446
REMARK  7 active torsions:
REMARK  status: ('A' for Active; 'I' for Inactive)
REMARK    1  A    between atoms: C_1  and  N_2
REMARK    2  A    between atoms: C_3  and  C_5
REMARK    3  A    between atoms: C_5  and  N_6
REMARK    4  A    between atoms: N_9  and  C_12
REMARK    5  A    between atoms: C_12  and  C_13
REMARK    6  A    between atoms: C_16  and  C_32
REMARK    7  A    between atoms: C_24  and  C_25
REMARK                            x       y       z     vdW  Elec       q    Type
REMARK                         _______ _______ _______ _____ _____    ______ ____
ROOT
ATOM      1  C   UNL     1      -0.359   3.692   3.489  0.00  0.00    +0.249 C 
ATOM      2  O   UNL     1       0.752   3.261   3.262  0.00  0.00    -0.272 OA
ATOM      3  N   UNL     1      -0.677   4.118   4.728  0.00  0.00    -0.183 N 
ATOM      4  C   UNL     1       0.219   4.123   5.907  0.00  0.00    +0.147 C 
ATOM      5  C   UNL     1      -0.445   5.188   6.796  0.00  0.00    +0.067 C 
ATOM      6  C   UNL     1      -0.491   4.752   8.262  0.00  0.00    +0.012 C 
ATOM      7  C   UNL     1      -1.320   5.774   9.038  0.00  0.00    +0.005 C 
ATOM      8  C   UNL     1      -2.765   5.842   8.586  0.00  0.00    +0.037 C 
ATOM      9  C   UNL     1      -2.964   5.584   7.123  0.00  0.00    -0.023 C 
ATOM     10  C   UNL     1      -4.191   5.751   6.576  0.00  0.00    +0.020 C 
ATOM     11  C   UNL     1      -1.887   5.170   6.306  0.00  0.00    +0.068 C 
ATOM     12  N   UNL     1      -1.911   4.643   5.130  0.00  0.00    -0.181 NA
ENDROOT
BRANCH  10  13
ATOM     13  C   UNL     1      -5.312   6.179   7.412  0.00  0.00    +0.012 A 
ATOM     14  C   UNL     1      -6.633   6.406   7.055  0.00  0.00    +0.015 A 
ATOM     15  C   UNL     1      -7.512   6.808   8.032  0.00  0.00    +0.008 A 
ATOM     16  C   UNL     1      -7.065   6.970   9.305  0.00  0.00    +0.046 A 
ATOM     17  S   UNL     1      -5.339   6.539   9.161  0.00  0.00    -0.097 S 
ENDBRANCH  10  13
BRANCH   4  18
ATOM     18  C   UNL     1       1.616   4.535   5.522  0.00  0.00    +0.013 A 
ATOM     19  C   UNL     1       2.802   4.061   5.976  0.00  0.00    +0.013 A 
ATOM     20  C   UNL     1       3.974   4.593   5.472  0.00  0.00    +0.008 A 
ATOM     21  C   UNL     1       3.903   5.580   4.546  0.00  0.00    +0.045 A 
ATOM     22  S   UNL     1       2.139   5.780   4.354  0.00  0.00    -0.100 S 
ENDBRANCH   4  18
BRANCH   1  23
ATOM     23  C   UNL     1      -1.385   3.751   2.386  0.00  0.00    +0.182 C 
BRANCH  23  27
ATOM     24  N   UNL     1      -0.696   1.575  -1.169  0.00  0.00    +0.387 N 
ATOM     25  C   UNL     1       0.185   1.317  -0.022  0.00  0.00    -0.063 C 
ATOM     26  C   UNL     1      -0.496   1.799   1.261  0.00  0.00    +0.066 C 
ATOM     27  N   UNL     1      -0.797   3.233   1.143  0.00  0.00    -0.298 NA
ATOM     28  C   UNL     1      -1.679   3.491  -0.004  0.00  0.00    +0.066 C 
ATOM     29  C   UNL     1      -0.997   3.008  -1.286  0.00  0.00    -0.063 C 
ATOM     30  H   UNL     1      -1.643   1.042  -0.996  0.00  0.00    -0.081 HD
BRANCH  24  31
ATOM     31  C   UNL     1      -0.109   1.057  -2.412  0.00  0.00    +0.019 C 
BRANCH  31  34
ATOM     32  C   UNL     1       0.636  -2.600  -3.264  0.00  0.00    +0.128 C 
ATOM     33  N   UNL     1       0.574  -1.138  -3.326  0.00  0.00    -0.320 N 
ATOM     34  C   UNL     1      -0.045  -0.448  -2.348  0.00  0.00    +0.196 C 
ATOM     35  O   UNL     1      -0.552  -1.037  -1.417  0.00  0.00    -0.278 OA
ATOM     36  H   UNL     1       1.034  -0.603  -4.170  0.00  0.00    +0.148 HD
ENDBRANCH  31  34
ENDBRANCH  24  31
ENDBRANCH  23  27
ENDBRANCH   1  23
TORSDOF 6
