REMARK  Name = ZINC12420267
REMARK  4 active torsions:
REMARK  status: ('A' for Active; 'I' for Inactive)
REMARK    1  A    between atoms: C_1  and  O_2
REMARK    2  A    between atoms: O_2  and  C_3
REMARK    3  A    between atoms: C_6  and  C_9
REMARK    4  A    between atoms: C_16  and  O_20
REMARK                            x       y       z     vdW  Elec       q    Type
REMARK                         _______ _______ _______ _____ _____    ______ ____
ROOT
ATOM      1  C   UNL     1       6.064   3.793  -2.586  0.00  0.00    +0.058 C 
ATOM      2  C   UNL     1       5.067   3.299  -1.808  0.00  0.00    +0.176 C 
ATOM      3  C   UNL     1       5.046   3.267  -0.339  0.00  0.00    +0.231 C 
ATOM      4  O   UNL     1       5.904   3.669   0.428  0.00  0.00    -0.283 OA
ATOM      5  C   UNL     1       3.756   2.639  -0.000  0.00  0.00    +0.068 A 
ATOM      6  C   UNL     1       3.137   2.322   1.209  0.00  0.00    +0.019 A 
ATOM      7  C   UNL     1       1.904   1.734   1.210  0.00  0.00    +0.046 A 
ATOM      8  C   UNL     1       1.269   1.439   0.005  0.00  0.00    +0.120 A 
ATOM      9  C   UNL     1       1.872   1.748  -1.203  0.00  0.00    +0.092 A 
ATOM     10  C   UNL     1       3.123   2.353  -1.221  0.00  0.00    +0.143 A 
ATOM     11  O   UNL     1       3.910   2.748  -2.245  0.00  0.00    -0.451 OA
ENDROOT
BRANCH   1  15
ATOM     12  C   UNL     1       5.862   3.390  -6.801  0.00  0.00    +0.120 A 
ATOM     13  C   UNL     1       4.784   2.999  -6.016  0.00  0.00    +0.046 A 
ATOM     14  C   UNL     1       4.844   3.127  -4.647  0.00  0.00    +0.011 A 
ATOM     15  C   UNL     1       5.994   3.653  -4.045  0.00  0.00    -0.021 A 
ATOM     16  C   UNL     1       7.075   4.051  -4.842  0.00  0.00    +0.011 A 
ATOM     17  C   UNL     1       7.006   3.913  -6.210  0.00  0.00    +0.046 A 
BRANCH  12  19
ATOM     18  C   UNL     1       6.940   3.682  -8.899  0.00  0.00    +0.277 C 
ATOM     19  O   UNL     1       5.797   3.261  -8.151  0.00  0.00    -0.495 OA
ENDBRANCH  12  19
ENDBRANCH   1  15
BRANCH   8  20
ATOM     20  O   UNL     1       0.047   0.849   0.016  0.00  0.00    -0.507 OA
ATOM     21  H   UNL     1       0.077  -0.117   0.007  0.00  0.00    +0.292 HD
ENDBRANCH   8  20
TORSDOF 3
