REMARK  Name = ZINC66703116
REMARK  9 active torsions:
REMARK  status: ('A' for Active; 'I' for Inactive)
REMARK    1  A    between atoms: C_1  and  C_2
REMARK    2  A    between atoms: C_2  and  O_3
REMARK    3  A    between atoms: O_3  and  C_4
REMARK    4  A    between atoms: C_4  and  C_5
REMARK    5  A    between atoms: N_7  and  N_8
REMARK    6  A    between atoms: N_11  and  C_12
REMARK    7  A    between atoms: C_12  and  C_13
REMARK    8  A    between atoms: C_13  and  C_18
REMARK    9  A    between atoms: C_22  and  C_24
REMARK                            x       y       z     vdW  Elec       q    Type
REMARK                         _______ _______ _______ _____ _____    ______ ____
ROOT
ATOM      1  N   UNL     1      -3.848  -4.028   1.201  0.00  0.00    -0.218 N 
ATOM      2  C   UNL     1      -4.378  -5.226   0.885  0.00  0.00    +0.316 C 
ATOM      3  O   UNL     1      -5.580  -5.397   0.955  0.00  0.00    -0.251 OA
ATOM      4  N   UNL     1      -3.576  -6.235   0.491  0.00  0.00    -0.297 N 
ATOM      5  H   UNL     1      -4.425  -3.302   1.484  0.00  0.00    +0.174 HD
ATOM      6  H   UNL     1      -2.617  -6.099   0.434  0.00  0.00    +0.150 HD
ENDROOT
BRANCH   1   9
ATOM      7  C   UNL     1      -1.933  -2.633   1.435  0.00  0.00    +0.255 C 
ATOM      8  O   UNL     1      -2.654  -1.725   1.790  0.00  0.00    -0.272 OA
ATOM      9  N   UNL     1      -2.463  -3.832   1.119  0.00  0.00    -0.231 N 
ATOM     10  H   UNL     1      -1.886  -4.558   0.836  0.00  0.00    +0.173 HD
BRANCH   7  11
ATOM     11  C   UNL     1      -0.443  -2.422   1.347  0.00  0.00    +0.256 C 
BRANCH  11  12
ATOM     12  O   UNL     1      -0.129  -1.081   1.730  0.00  0.00    -0.371 OA
BRANCH  12  14
ATOM     13  C   UNL     1       1.484   0.679   2.108  0.00  0.00    +0.034 C 
ATOM     14  C   UNL     1       1.266  -0.774   1.681  0.00  0.00    +0.157 C 
ENDBRANCH  12  14
ENDBRANCH  11  12
ENDBRANCH   7  11
ENDBRANCH   1   9
BRANCH   4  15
ATOM     15  C   UNL     1      -4.152  -7.538   0.147  0.00  0.00    +0.117 C 
BRANCH  15  16
ATOM     16  C   UNL     1      -3.027  -8.533  -0.141  0.00  0.00    +0.011 C 
ATOM     17  C   UNL     1      -2.096  -8.647   1.084  0.00  0.00    +0.013 C 
ATOM     18  C   UNL     1      -2.627  -9.883   1.852  0.00  0.00    +0.001 C 
ATOM     19  C   UNL     1      -3.017 -10.853   0.709  0.00  0.00    +0.001 C 
ATOM     20  C   UNL     1      -3.613  -9.936  -0.379  0.00  0.00    +0.013 C 
BRANCH  16  21
ATOM     21  C   UNL     1      -2.242  -8.090  -1.348  0.00  0.00    -0.039 A 
ATOM     22  C   UNL     1      -1.114  -8.789  -1.734  0.00  0.00    +0.004 A 
ATOM     23  C   UNL     1      -0.394  -8.383  -2.842  0.00  0.00    +0.001 A 
ATOM     24  C   UNL     1      -0.802  -7.276  -3.563  0.00  0.00    +0.003 A 
ATOM     25  C   UNL     1      -1.930  -6.577  -3.178  0.00  0.00    -0.050 A 
ATOM     26  C   UNL     1      -2.653  -6.987  -2.073  0.00  0.00    +0.007 A 
ATOM     27  C   UNL     1      -2.375  -5.371  -3.964  0.00  0.00    +0.044 C 
ENDBRANCH  16  21
ENDBRANCH  15  16
ENDBRANCH   4  15
TORSDOF 7
