REMARK  Name = ZINC46813562
REMARK  9 active torsions:
REMARK  status: ('A' for Active; 'I' for Inactive)
REMARK    1  A    between atoms: C_1  and  C_2
REMARK    2  A    between atoms: C_5  and  C_8
REMARK    3  A    between atoms: N_15  and  C_18
REMARK    4  A    between atoms: C_18  and  C_19
REMARK    5  A    between atoms: C_19  and  C_20
REMARK    6  A    between atoms: N_26  and  C_29
REMARK    7  A    between atoms: C_29  and  C_30
REMARK    8  A    between atoms: N_32  and  C_33
REMARK    9  A    between atoms: N_32  and  C_34
REMARK                            x       y       z     vdW  Elec       q    Type
REMARK                         _______ _______ _______ _____ _____    ______ ____
ROOT
ATOM      1  C   UNL     1       3.922  -5.952   3.014  0.00  0.00    +0.135 C 
ENDROOT
BRANCH   1   9
ATOM      2  C   UNL     1       0.112  -6.232  -0.267  0.00  0.00    +0.004 A 
ATOM      3  C   UNL     1      -0.656  -7.123  -0.940  0.00  0.00    +0.056 A 
ATOM      4  S   UNL     1      -0.027  -8.701  -0.401  0.00  0.00    -0.076 S 
ATOM      5  C   UNL     1       1.241  -8.135   0.703  0.00  0.00    +0.116 A 
ATOM      6  C   UNL     1       1.151  -6.735   0.624  0.00  0.00    +0.080 A 
ATOM      7  C   UNL     1       2.083  -6.007   1.430  0.00  0.00    +0.263 A 
ATOM      8  O   UNL     1       2.079  -4.788   1.433  0.00  0.00    -0.267 OA
ATOM      9  N   UNL     1       2.964  -6.689   2.186  0.00  0.00    -0.298 N 
ATOM     10  C   UNL     1       2.982  -8.047   2.195  0.00  0.00    +0.203 A 
ATOM     11  N   UNL     1       2.137  -8.739   1.479  0.00  0.00    -0.230 NA
BRANCH   2  16
ATOM     12  C   UNL     1      -0.693  -0.570  -0.935  0.00  0.00    +0.044 C 
ATOM     13  C   UNL     1      -0.482  -2.052  -0.760  0.00  0.00    -0.050 A 
ATOM     14  C   UNL     1      -0.360  -2.866  -1.871  0.00  0.00    +0.004 A 
ATOM     15  C   UNL     1      -0.167  -4.224  -1.718  0.00  0.00    +0.009 A 
ATOM     16  C   UNL     1      -0.095  -4.775  -0.439  0.00  0.00    -0.017 A 
ATOM     17  C   UNL     1      -0.218  -3.949   0.678  0.00  0.00    +0.009 A 
ATOM     18  C   UNL     1      -0.406  -2.592   0.511  0.00  0.00    +0.004 A 
ENDBRANCH   2  16
ENDBRANCH   1   9
BRANCH   1  19
ATOM     19  C   UNL     1       3.314  -5.700   4.395  0.00  0.00    +0.117 C 
BRANCH  19  20
ATOM     20  C   UNL     1       4.299  -4.942   5.247  0.00  0.00    +0.217 C 
ATOM     21  O   UNL     1       5.381  -4.634   4.794  0.00  0.00    -0.276 OA
ATOM     22  N   UNL     1       3.978  -4.607   6.512  0.00  0.00    -0.303 N 
ATOM     23  C   UNL     1       2.656  -5.001   7.039  0.00  0.00    +0.106 C 
ATOM     24  C   UNL     1       2.767  -5.505   8.490  0.00  0.00    +0.000 C 
ATOM     25  C   UNL     1       4.016  -6.346   8.637  0.00  0.00    -0.077 C 
ATOM     26  N   UNL     1       5.114  -5.501   9.101  0.00  0.00    +0.386 N 
ATOM     27  C   UNL     1       5.848  -4.863   8.077  0.00  0.00    -0.059 C 
ATOM     28  C   UNL     1       4.945  -3.878   7.308  0.00  0.00    +0.089 C 
ATOM     29  H   UNL     1       4.734  -4.791   9.710  0.00  0.00    -0.081 HD
BRANCH  26  30
ATOM     30  C   UNL     1       6.038  -6.331   9.885  0.00  0.00    +0.019 C 
BRANCH  30  31
ATOM     31  C   UNL     1       5.354  -6.788  11.148  0.00  0.00    +0.199 C 
ATOM     32  O   UNL     1       4.249  -6.371  11.424  0.00  0.00    -0.278 OA
ATOM     33  N   UNL     1       5.970  -7.659  11.971  0.00  0.00    -0.309 N 
ATOM     34  C   UNL     1       5.306  -8.103  13.199  0.00  0.00    +0.131 C 
ATOM     35  C   UNL     1       7.305  -8.162  11.638  0.00  0.00    +0.131 C 
ENDBRANCH  30  31
ENDBRANCH  26  30
ENDBRANCH  19  20
ENDBRANCH   1  19
TORSDOF 6
