REMARK  Name = ZINC28160149
REMARK  6 active torsions:
REMARK  status: ('A' for Active; 'I' for Inactive)
REMARK    1  A    between atoms: C_1  and  C_2
REMARK    2  A    between atoms: C_5  and  C_8
REMARK    3  A    between atoms: C_11  and  C_32
REMARK    4  A    between atoms: C_18  and  C_21
REMARK    5  A    between atoms: C_21  and  C_22
REMARK    6  A    between atoms: N_24  and  C_25
REMARK                            x       y       z     vdW  Elec       q    Type
REMARK                         _______ _______ _______ _____ _____    ______ ____
ROOT
ATOM      1  C   UNL     1      -4.350   8.708   3.996  0.00  0.00    +0.136 C 
ATOM      2  C   UNL     1      -4.026   9.216   5.415  0.00  0.00    +0.087 C 
ATOM      3  C   UNL     1      -2.695   8.574   5.736  0.00  0.00    +0.075 C 
ATOM      4  N   UNL     1      -2.317   7.845   4.740  0.00  0.00    -0.181 NA
ATOM      5  N   UNL     1      -3.206   7.844   3.667  0.00  0.00    -0.195 N 
ATOM      6  C   UNL     1      -3.040   7.158   2.500  0.00  0.00    +0.170 C 
ATOM      7  N   UNL     1      -3.849   7.119   1.449  0.00  0.00    -0.157 NA
ATOM      8  C   UNL     1      -3.615   6.434   0.364  0.00  0.00    +0.252 C 
ATOM      9  O   UNL     1      -4.383   6.425  -0.578  0.00  0.00    -0.272 OA
ATOM     10  C   UNL     1      -2.312   5.644   0.360  0.00  0.00    +0.150 C 
ATOM     11  S   UNL     1      -1.680   6.098   2.026  0.00  0.00    -0.078 S 
ENDROOT
BRANCH   1  16
ATOM     12  C   UNL     1      -4.700  13.118   0.278  0.00  0.00    +0.044 C 
ATOM     13  C   UNL     1      -4.609  11.969   1.248  0.00  0.00    -0.050 A 
ATOM     14  C   UNL     1      -5.761  11.351   1.698  0.00  0.00    +0.004 A 
ATOM     15  C   UNL     1      -5.677  10.296   2.587  0.00  0.00    +0.006 A 
ATOM     16  C   UNL     1      -4.441   9.858   3.026  0.00  0.00    -0.025 A 
ATOM     17  C   UNL     1      -3.290  10.480   2.581  0.00  0.00    +0.006 A 
ATOM     18  C   UNL     1      -3.373  11.531   1.687  0.00  0.00    +0.004 A 
ENDBRANCH   1  16
BRANCH   3  19
ATOM     19  C   UNL     1      -1.950   8.750   6.987  0.00  0.00    +0.035 A 
ATOM     20  C   UNL     1      -0.738   8.200   7.366  0.00  0.00    +0.017 A 
ATOM     21  C   UNL     1      -0.233   8.523   8.604  0.00  0.00    +0.008 A 
ATOM     22  C   UNL     1      -0.938   9.355   9.415  0.00  0.00    +0.046 A 
ATOM     23  S   UNL     1      -2.374   9.725   8.422  0.00  0.00    -0.095 S 
ENDBRANCH   3  19
BRANCH  10  24
ATOM     24  C   UNL     1      -2.570   4.140   0.252  0.00  0.00    +0.120 C 
BRANCH  24  25
ATOM     25  C   UNL     1      -1.256   3.412   0.128  0.00  0.00    +0.219 C 
ATOM     26  O   UNL     1      -0.216   4.035   0.127  0.00  0.00    -0.275 OA
ATOM     27  N   UNL     1      -1.238   2.069   0.019  0.00  0.00    -0.285 N 
ATOM     28  H   UNL     1      -2.182   1.511  -0.067  0.00  0.00    +0.155 HD
BRANCH  27  29
ATOM     29  C   UNL     1      -0.017   1.384   0.015  0.00  0.00    +0.033 A 
ATOM     30  C   UNL     1       0.127   0.222  -0.732  0.00  0.00    +0.025 A 
ATOM     31  C   UNL     1       1.330  -0.455  -0.729  0.00  0.00    +0.022 A 
ATOM     32  C   UNL     1       2.393   0.023   0.018  0.00  0.00    +0.041 A 
ATOM     33  C   UNL     1       2.252   1.181   0.763  0.00  0.00    +0.022 A 
ATOM     34  C   UNL     1       1.051   1.862   0.764  0.00  0.00    +0.025 A 
ATOM     35 CL   UNL     1       3.904  -0.831   0.020  0.00  0.00    -0.084 Cl
ENDBRANCH  27  29
ENDBRANCH  24  25
ENDBRANCH  10  24
TORSDOF 5
