REMARK  Name = ZINC03363121
REMARK  9 active torsions:
REMARK  status: ('A' for Active; 'I' for Inactive)
REMARK    1  A    between atoms: C_1  and  C_2
REMARK    2  A    between atoms: C_2  and  C_3
REMARK    3  A    between atoms: C_6  and  N_9
REMARK    4  A    between atoms: C_10  and  C_12
REMARK    5  A    between atoms: C_12  and  C_14
REMARK    6  A    between atoms: C_12  and  S_15
REMARK    7  A    between atoms: S_15  and  C_16
REMARK    8  A    between atoms: C_19  and  C_22
REMARK    9  A    between atoms: N_20  and  N_21
REMARK                            x       y       z     vdW  Elec       q    Type
REMARK                         _______ _______ _______ _____ _____    ______ ____
ROOT
ATOM      1  S   UNL     1      -1.785   5.622   7.444  0.00  0.00    -0.072 S 
ENDROOT
BRANCH   1   2
ATOM      2  C   UNL     1      -2.672   5.830   8.952  0.00  0.00    +0.209 A 
ATOM      3  N   UNL     1      -3.812   5.259   9.271  0.00  0.00    -0.121 NA
ATOM      4  N   UNL     1      -4.178   5.630  10.446  0.00  0.00    -0.127 NA
ATOM      5  C   UNL     1      -3.294   6.461  10.949  0.00  0.00    +0.183 A 
ATOM      6  N   UNL     1      -2.299   6.609  10.010  0.00  0.00    -0.224 N 
BRANCH   5   7
ATOM      7  C   UNL     1      -3.353   7.108  12.277  0.00  0.00    +0.039 A 
ATOM      8  C   UNL     1      -4.235   6.641  13.258  0.00  0.00    +0.014 A 
ATOM      9  C   UNL     1      -4.251   7.282  14.484  0.00  0.00    +0.020 A 
ATOM     10  C   UNL     1      -3.403   8.353  14.699  0.00  0.00    +0.111 A 
ATOM     11  N   UNL     1      -2.582   8.772  13.756  0.00  0.00    -0.263 NA
ATOM     12  C   UNL     1      -2.526   8.192  12.575  0.00  0.00    +0.122 A 
ENDBRANCH   5   7
BRANCH   6  13
ATOM     13  N   UNL     1      -1.175   7.379  10.113  0.00  0.00    -0.295 N 
ATOM     14  H   UNL     1      -1.343   8.312   9.767  0.00  0.00    +0.163 HD
ATOM     15  H   UNL     1      -0.838   7.401  11.064  0.00  0.00    +0.163 HD
ENDBRANCH   6  13
ENDBRANCH   1   2
BRANCH   1  16
ATOM     16  C   UNL     1      -2.887   4.469   6.588  0.00  0.00    +0.137 C 
ATOM     17  C   UNL     1      -4.224   5.157   6.305  0.00  0.00    +0.029 C 
BRANCH  16  19
ATOM     18  N   UNL     1      -2.668   2.915   4.676  0.00  0.00    -0.285 N 
ATOM     19  C   UNL     1      -2.256   4.043   5.287  0.00  0.00    +0.230 C 
ATOM     20  O   UNL     1      -1.377   4.716   4.790  0.00  0.00    -0.274 OA
ATOM     21  H   UNL     1      -3.421   2.419   5.031  0.00  0.00    +0.155 HD
BRANCH  18  25
ATOM     22  C   UNL     1      -0.706   1.561   1.259  0.00  0.00    -0.048 A 
ATOM     23  C   UNL     1      -2.068   1.362   1.397  0.00  0.00    +0.005 A 
ATOM     24  C   UNL     1      -2.720   1.806   2.531  0.00  0.00    +0.023 A 
ATOM     25  C   UNL     1      -2.009   2.461   3.528  0.00  0.00    +0.033 A 
ATOM     26  C   UNL     1      -0.643   2.664   3.384  0.00  0.00    +0.023 A 
ATOM     27  C   UNL     1       0.004   2.213   2.250  0.00  0.00    +0.005 A 
BRANCH  22  29
ATOM     28  C   UNL     1       0.500  -0.358   0.253  0.00  0.00    +0.009 C 
ATOM     29  C   UNL     1       0.004   1.071   0.023  0.00  0.00    +0.032 C 
ENDBRANCH  22  29
ENDBRANCH  18  25
ENDBRANCH  16  19
ENDBRANCH   1  16
TORSDOF 7
