REMARK  Name = ZINC19853163
REMARK  9 active torsions:
REMARK  status: ('A' for Active; 'I' for Inactive)
REMARK    1  A    between atoms: C_1  and  C_2
REMARK    2  A    between atoms: C_2  and  C_3
REMARK    3  A    between atoms: C_2  and  C_4
REMARK    4  A    between atoms: C_2  and  C_5
REMARK    5  A    between atoms: N_20  and  C_23
REMARK    6  A    between atoms: C_24  and  C_32
REMARK    7  A    between atoms: C_25  and  N_31
REMARK    8  A    between atoms: C_26  and  C_27
REMARK    9  A    between atoms: C_26  and  C_29
REMARK                            x       y       z     vdW  Elec       q    Type
REMARK                         _______ _______ _______ _____ _____    ______ ____
ROOT
ATOM      1  C   UNL     1       0.718  -0.497  -1.257  0.00  0.00    -0.001 C 
ATOM      2  C   UNL     1      -0.014   0.017  -2.501  0.00  0.00    +0.031 C 
ATOM      3  C   UNL     1       0.755  -0.405  -3.722  0.00  0.00    -0.024 C 
ATOM      4  C   UNL     1       2.034  -0.620  -3.708  0.00  0.00    -0.030 C 
ATOM      5  C   UNL     1       2.905  -0.478  -2.488  0.00  0.00    +0.042 C 
ATOM      6  C   UNL     1       2.149   0.038  -1.277  0.00  0.00    +0.014 C 
ATOM      7  C   UNL     1       3.517  -1.846  -2.182  0.00  0.00    +0.116 C 
ATOM      8  C   UNL     1       2.511  -2.731  -1.510  0.00  0.00    -0.005 A 
ATOM      9  C   UNL     1       1.300  -3.225  -1.942  0.00  0.00    +0.007 A 
ATOM     10  C   UNL     1       0.597  -4.034  -1.056  0.00  0.00    +0.000 A 
ATOM     11  C   UNL     1       1.094  -4.327   0.198  0.00  0.00    +0.002 A 
ATOM     12  C   UNL     1       2.312  -3.834   0.639  0.00  0.00    +0.024 A 
ATOM     13  C   UNL     1       3.027  -3.020  -0.242  0.00  0.00    +0.041 A 
ATOM     14  N   UNL     1       4.252  -2.402  -0.068  0.00  0.00    -0.273 N 
ATOM     15  C   UNL     1       4.620  -1.692  -1.155  0.00  0.00    +0.236 C 
ATOM     16  O   UNL     1       5.642  -1.052  -1.286  0.00  0.00    -0.274 OA
ATOM     17  C   UNL     1       5.056  -2.505   1.152  0.00  0.00    +0.138 C 
ATOM     18  C   UNL     1       4.051  -2.485  -3.425  0.00  0.00    +0.069 C 
ATOM     19  C   UNL     1       3.699  -2.149  -4.666  0.00  0.00    +0.055 C 
ATOM     20  C   UNL     1       2.728  -1.048  -4.989  0.00  0.00    +0.202 C 
ENDROOT
BRANCH   1  22
ATOM     21  C   UNL     1      -0.019   1.526   0.010  0.00  0.00    +0.011 C 
ATOM     22  C   UNL     1       0.002  -0.004   0.002  0.00  0.00    -0.035 C 
ATOM     23  C   UNL     1       0.742  -0.511   1.242  0.00  0.00    +0.011 C 
ATOM     24  C   UNL     1      -1.433  -0.534   0.013  0.00  0.00    +0.011 C 
ENDBRANCH   1  22
BRANCH  19  25
ATOM     25  N   UNL     1       4.254  -2.847  -5.706  0.00  0.00    -0.358 N 
ATOM     26  H   UNL     1       4.884  -3.563  -5.529  0.00  0.00    +0.142 HD
ATOM     27  H   UNL     1       4.017  -2.626  -6.620  0.00  0.00    +0.142 HD
ENDBRANCH  19  25
BRANCH  20  28
ATOM     28  C   UNL     1       1.728  -1.538  -5.952  0.00  0.00    +0.095 C 
ATOM     29  N   UNL     1       0.957  -1.916  -6.695  0.00  0.00    -0.194 NA
ENDBRANCH  20  28
BRANCH  20  30
ATOM     30  C   UNL     1       3.453   0.097  -5.565  0.00  0.00    +0.095 C 
ATOM     31  N   UNL     1       4.013   0.980  -6.009  0.00  0.00    -0.194 NA
ENDBRANCH  20  30
BRANCH  18  32
ATOM     32  C   UNL     1       5.013  -3.535  -3.270  0.00  0.00    +0.098 C 
ATOM     33  N   UNL     1       5.775  -4.368  -3.148  0.00  0.00    -0.191 NA
ENDBRANCH  18  32
TORSDOF 5
