REMARK  Name = ZINC37264253
REMARK  7 active torsions:
REMARK  status: ('A' for Active; 'I' for Inactive)
REMARK    1  A    between atoms: C_1  and  C_2
REMARK    2  A    between atoms: C_2  and  C_3
REMARK    3  A    between atoms: C_2  and  C_4
REMARK    4  A    between atoms: N_6  and  C_7
REMARK    5  A    between atoms: C_10  and  C_13
REMARK    6  A    between atoms: C_14  and  C_25
REMARK    7  A    between atoms: N_16  and  C_19
REMARK                            x       y       z     vdW  Elec       q    Type
REMARK                         _______ _______ _______ _____ _____    ______ ____
ROOT
ATOM      1  C   UNL     1      -6.848  -4.015   0.411  0.00  0.00    +0.069 A 
ATOM      2  C   UNL     1      -7.468  -4.813  -0.501  0.00  0.00    +0.049 A 
ATOM      3  N   UNL     1      -8.711  -5.121  -0.036  0.00  0.00    -0.293 N 
ATOM      4  N   UNL     1      -8.907  -4.511   1.207  0.00  0.00    -0.219 N 
ATOM      5  C   UNL     1      -7.788  -3.827   1.523  0.00  0.00    +0.280 A 
ATOM      6  O   UNL     1      -7.596  -3.177   2.535  0.00  0.00    -0.265 OA
ATOM      7  H   UNL     1      -9.359  -5.677  -0.496  0.00  0.00    +0.187 HD
ENDROOT
BRANCH   1  11
ATOM      8  C   UNL     1      -2.930  -2.389   0.108  0.00  0.00    +0.033 A 
ATOM      9  C   UNL     1      -4.033  -1.544   0.111  0.00  0.00    +0.024 A 
ATOM     10  C   UNL     1      -5.304  -2.069   0.209  0.00  0.00    +0.010 A 
ATOM     11  C   UNL     1      -5.482  -3.448   0.305  0.00  0.00    -0.011 A 
ATOM     12  C   UNL     1      -4.374  -4.294   0.302  0.00  0.00    +0.010 A 
ATOM     13  C   UNL     1      -3.105  -3.764   0.198  0.00  0.00    +0.024 A 
BRANCH   8  16
ATOM     14  C   UNL     1      -1.352  -0.676   0.596  0.00  0.00    +0.220 C 
ATOM     15  O   UNL     1      -2.229  -0.040   1.141  0.00  0.00    -0.275 OA
ATOM     16  N   UNL     1      -1.640  -1.854   0.008  0.00  0.00    -0.285 N 
ATOM     17  H   UNL     1      -0.954  -2.331  -0.485  0.00  0.00    +0.155 HD
BRANCH  14  19
ATOM     18  C   UNL     1       0.115   1.192   1.310  0.00  0.00    +0.017 C 
ATOM     19  C   UNL     1       0.061  -0.151   0.579  0.00  0.00    +0.069 C 
ATOM     20  C   UNL     1       0.985  -1.150   1.277  0.00  0.00    +0.017 C 
ENDBRANCH  14  19
ENDBRANCH   8  16
ENDBRANCH   1  11
BRANCH   4  21
ATOM     21  C   UNL     1     -10.062  -4.599   1.990  0.00  0.00    +0.067 A 
ATOM     22  C   UNL     1     -11.145  -5.351   1.551  0.00  0.00    +0.028 A 
ATOM     23  C   UNL     1     -12.284  -5.436   2.327  0.00  0.00    +0.002 A 
ATOM     24  C   UNL     1     -12.348  -4.776   3.540  0.00  0.00    +0.000 A 
ATOM     25  C   UNL     1     -11.272  -4.027   3.980  0.00  0.00    +0.002 A 
ATOM     26  C   UNL     1     -10.128  -3.941   3.211  0.00  0.00    +0.028 A 
ENDBRANCH   4  21
BRANCH   2  27
ATOM     27  C   UNL     1      -6.877  -5.277  -1.808  0.00  0.00    +0.038 C 
ATOM     28  C   UNL     1      -7.654  -6.331  -2.599  0.00  0.00    +0.010 C 
ATOM     29  C   UNL     1      -7.607  -4.884  -3.093  0.00  0.00    +0.010 C 
ENDBRANCH   2  27
TORSDOF 5
