REMARK  Name = ZINC36548731
REMARK  10 active torsions:
REMARK  status: ('A' for Active; 'I' for Inactive)
REMARK    1  A    between atoms: C_1  and  C_2
REMARK    2  A    between atoms: C_2  and  C_4
REMARK    3  A    between atoms: N_6  and  C_7
REMARK    4  A    between atoms: N_6  and  C_14
REMARK    5  A    between atoms: C_14  and  C_16
REMARK    6  A    between atoms: C_14  and  C_22
REMARK    7  A    between atoms: N_24  and  C_25
REMARK    8  A    between atoms: C_25  and  C_26
REMARK    9  A    between atoms: C_25  and  C_27
REMARK   10  A    between atoms: C_25  and  C_28
REMARK                            x       y       z     vdW  Elec       q    Type
REMARK                         _______ _______ _______ _____ _____    ______ ____
ROOT
ATOM      1  C   UNL     1       0.502   1.273  -2.569  0.00  0.00    +0.170 C 
ENDROOT
BRANCH   1   2
ATOM      2  C   UNL     1      -0.483   1.669  -1.468  0.00  0.00    +0.019 C 
ATOM      3  C   UNL     1      -1.910   1.362  -1.927  0.00  0.00    +0.006 C 
ATOM      4  C   UNL     1      -2.896   1.759  -0.826  0.00  0.00    +0.000 C 
ATOM      5  C   UNL     1      -2.764   3.256  -0.538  0.00  0.00    +0.000 C 
ATOM      6  C   UNL     1      -1.337   3.563  -0.080  0.00  0.00    +0.000 C 
ATOM      7  C   UNL     1      -0.351   3.166  -1.181  0.00  0.00    +0.006 C 
ENDBRANCH   1   2
BRANCH   1   8
ATOM      8  C   UNL     1       1.913   1.463  -2.073  0.00  0.00    +0.235 C 
ATOM      9  O   UNL     1       2.570   0.502  -1.734  0.00  0.00    -0.274 OA
ATOM     10  N   UNL     1       2.443   2.700  -2.007  0.00  0.00    -0.309 N 
ATOM     11  H   UNL     1       1.894   3.474  -2.207  0.00  0.00    +0.149 HD
BRANCH  10  12
ATOM     12  C   UNL     1       3.849   2.875  -1.634  0.00  0.00    +0.026 C 
ATOM     13  C   UNL     1       4.739   2.145  -2.642  0.00  0.00    +0.031 C 
ATOM     14  C   UNL     1       4.194   4.366  -1.635  0.00  0.00    +0.031 C 
ATOM     15  C   UNL     1       4.082   2.298  -0.237  0.00  0.00    +0.031 C 
ENDBRANCH  10  12
ENDBRANCH   1   8
BRANCH   1  18
ATOM     16  C   UNL     1       0.368  -1.087  -1.978  0.00  0.00    +0.247 C 
ATOM     17  O   UNL     1       0.492  -0.774  -0.809  0.00  0.00    -0.270 OA
ATOM     18  N   UNL     1       0.295  -0.133  -2.927  0.00  0.00    -0.254 N 
BRANCH  18  19
ATOM     19  C   UNL     1       0.022  -0.484  -4.253  0.00  0.00    +0.056 A 
ATOM     20  C   UNL     1      -1.268  -0.834  -4.629  0.00  0.00    +0.025 A 
ATOM     21  C   UNL     1      -1.535  -1.181  -5.939  0.00  0.00    +0.002 A 
ATOM     22  C   UNL     1      -0.519  -1.180  -6.877  0.00  0.00    +0.002 A 
ATOM     23  C   UNL     1       0.768  -0.833  -6.507  0.00  0.00    +0.022 A 
ATOM     24  C   UNL     1       1.040  -0.479  -5.199  0.00  0.00    +0.062 A 
ATOM     25 CL   UNL     1       2.654  -0.035  -4.737  0.00  0.00    -0.082 Cl
ENDBRANCH  18  19
BRANCH  16  27
ATOM     26  C   UNL     1       0.437  -2.909  -3.802  0.00  0.00    +0.048 C 
ATOM     27  C   UNL     1       0.298  -2.507  -2.356  0.00  0.00    +0.005 C 
ATOM     28  C   UNL     1       0.112  -3.435  -1.422  0.00  0.00    +0.017 C 
ENDBRANCH  16  27
ENDBRANCH   1  18
TORSDOF 6
