REMARK  Name = ZINC39607205
REMARK  8 active torsions:
REMARK  status: ('A' for Active; 'I' for Inactive)
REMARK    1  A    between atoms: C_1  and  C_2
REMARK    2  A    between atoms: C_5  and  C_9
REMARK    3  A    between atoms: C_6  and  C_8
REMARK    4  A    between atoms: C_9  and  N_10
REMARK    5  A    between atoms: C_11  and  C_13
REMARK    6  A    between atoms: C_24  and  C_26
REMARK    7  A    between atoms: C_28  and  C_35
REMARK    8  A    between atoms: C_30  and  C_31
REMARK                            x       y       z     vdW  Elec       q    Type
REMARK                         _______ _______ _______ _____ _____    ______ ____
ROOT
ATOM      1  C   UNL     1      -2.965  -6.600   0.474  0.00  0.00    +0.100 C 
ATOM      2  C   UNL     1      -3.357  -6.318   1.941  0.00  0.00    +0.121 C 
ATOM      3  N   UNL     1      -4.147  -7.503   2.352  0.00  0.00    -0.296 N 
ATOM      4  C   UNL     1      -3.445  -8.649   1.726  0.00  0.00    +0.115 C 
ATOM      5  C   UNL     1      -3.023  -8.131   0.337  0.00  0.00    -0.004 C 
ATOM      6  C   UNL     1      -1.649  -8.680  -0.035  0.00  0.00    -0.010 C 
ATOM      7  C   UNL     1      -1.745 -10.197  -0.223  0.00  0.00    -0.082 C 
ATOM      8  N   UNL     1      -2.719 -10.501  -1.279  0.00  0.00    +0.379 N 
ATOM      9  C   UNL     1      -4.055 -10.052  -0.872  0.00  0.00    -0.082 C 
ATOM     10  C   UNL     1      -4.057  -8.529  -0.712  0.00  0.00    -0.010 C 
ATOM     11  C   UNL     1      -5.253  -7.532   3.121  0.00  0.00    +0.250 C 
ATOM     12  O   UNL     1      -5.779  -6.492   3.469  0.00  0.00    -0.270 OA
ATOM     13  H   UNL     1      -2.450 -10.027  -2.129  0.00  0.00    -0.086 HD
ATOM     14  H   UNL     1      -2.735 -11.496  -1.443  0.00  0.00    -0.086 HD
ENDROOT
BRANCH  11  15
ATOM     15  C   UNL     1      -5.825  -8.824   3.541  0.00  0.00    +0.087 A 
ATOM     16  C   UNL     1      -5.246 -10.160   3.339  0.00  0.00    +0.058 A 
ATOM     17  C   UNL     1      -6.115 -11.025   3.884  0.00  0.00    +0.103 A 
ATOM     18  O   UNL     1      -7.154 -10.343   4.391  0.00  0.00    -0.455 OA
ATOM     19  C   UNL     1      -7.000  -9.029   4.202  0.00  0.00    +0.220 A 
ATOM     20  C   UNL     1      -5.950 -12.522   3.921  0.00  0.00    +0.086 C 
BRANCH  19  21
ATOM     21  C   UNL     1      -7.963  -7.957   4.643  0.00  0.00    +0.451 C 
ATOM     22  F   UNL     1      -8.894  -7.719   3.626  0.00  0.00    -0.163 F 
ATOM     23  F   UNL     1      -8.632  -8.376   5.798  0.00  0.00    -0.163 F 
ATOM     24  F   UNL     1      -7.258  -6.779   4.914  0.00  0.00    -0.163 F 
ENDBRANCH  19  21
ENDBRANCH  11  15
BRANCH   1  26
ATOM     25  N   UNL     1      -1.179  -5.859  -1.069  0.00  0.00    -0.311 N 
ATOM     26  C   UNL     1      -1.570  -6.101   0.198  0.00  0.00    +0.218 C 
ATOM     27  O   UNL     1      -0.799  -5.917   1.116  0.00  0.00    -0.275 OA
ATOM     28  H   UNL     1      -1.795  -6.006  -1.803  0.00  0.00    +0.149 HD
BRANCH  25  29
ATOM     29  C   UNL     1       0.177  -5.374  -1.337  0.00  0.00    +0.139 C 
BRANCH  29  34
ATOM     30  C   UNL     1       0.871  -4.650  -7.028  0.00  0.00    +0.044 C 
ATOM     31  C   UNL     1       0.690  -4.839  -5.543  0.00  0.00    -0.050 A 
ATOM     32  C   UNL     1       1.183  -5.974  -4.926  0.00  0.00    +0.004 A 
ATOM     33  C   UNL     1       1.017  -6.147  -3.565  0.00  0.00    +0.006 A 
ATOM     34  C   UNL     1       0.359  -5.185  -2.821  0.00  0.00    -0.027 A 
ATOM     35  C   UNL     1      -0.132  -4.050  -3.438  0.00  0.00    -0.046 A 
ATOM     36  C   UNL     1       0.037  -3.875  -4.799  0.00  0.00    +0.007 A 
ATOM     37  C   UNL     1      -0.850  -3.002  -2.627  0.00  0.00    +0.044 C 
ENDBRANCH  29  34
ENDBRANCH  25  29
ENDBRANCH   1  26
TORSDOF 5
