REMARK  Name = ZINC63637360
REMARK  7 active torsions:
REMARK  status: ('A' for Active; 'I' for Inactive)
REMARK    1  A    between atoms: C_1  and  C_2
REMARK    2  A    between atoms: C_7  and  C_12
REMARK    3  A    between atoms: C_15  and  O_20
REMARK    4  A    between atoms: C_17  and  O_18
REMARK    5  A    between atoms: O_18  and  C_19
REMARK    6  A    between atoms: O_20  and  C_21
REMARK    7  A    between atoms: N_22  and  C_24
REMARK                            x       y       z     vdW  Elec       q    Type
REMARK                         _______ _______ _______ _____ _____    ______ ____
ROOT
ATOM      1  C   UNL     1      -0.018   1.503   0.010  0.00  0.00    +0.062 C 
ATOM      2  C   UNL     1       0.002  -0.004   0.002  0.00  0.00    +0.024 C 
ATOM      3  C   UNL     1      -1.092  -0.783   0.003  0.00  0.00    +0.031 C 
ATOM      4  C   UNL     1      -0.572  -2.194   0.278  0.00  0.00    +0.115 C 
ATOM      5  C   UNL     1      -1.436  -3.125  -0.572  0.00  0.00    +0.034 C 
ATOM      6  C   UNL     1      -2.880  -2.999  -0.087  0.00  0.00    +0.032 C 
ATOM      7  C   UNL     1      -3.456  -1.609  -0.264  0.00  0.00    +0.087 C 
ATOM      8  C   UNL     1      -2.445  -0.507  -0.169  0.00  0.00    +0.163 C 
ATOM      9  O   UNL     1      -2.816   0.648  -0.225  0.00  0.00    -0.292 OA
ATOM     10  N   UNL     1       0.819  -2.092  -0.197  0.00  0.00    -0.181 NA
ATOM     11  N   UNL     1       1.134  -0.764  -0.013  0.00  0.00    -0.278 N 
ATOM     12  H   UNL     1       2.034  -0.419   0.092  0.00  0.00    +0.166 HD
ENDROOT
BRANCH  10  13
ATOM     13  C   UNL     1       1.707  -2.960   0.587  0.00  0.00    +0.269 C 
ATOM     14  N   UNL     1       1.528  -2.702   2.021  0.00  0.00    -0.350 N 
ATOM     15  C   UNL     1       1.123  -3.810   2.571  0.00  0.00    +0.061 A 
ATOM     16  C   UNL     1       0.780  -4.173   3.953  0.00  0.00    +0.027 A 
ATOM     17  C   UNL     1       0.381  -5.431   4.230  0.00  0.00    +0.002 A 
ATOM     18  C   UNL     1       0.276  -6.428   3.244  0.00  0.00    +0.002 A 
ATOM     19  C   UNL     1       0.567  -6.202   1.948  0.00  0.00    +0.027 A 
ATOM     20  C   UNL     1       1.012  -4.866   1.527  0.00  0.00    +0.061 A 
ATOM     21  N   UNL     1       1.352  -4.369   0.373  0.00  0.00    -0.350 N 
ATOM     22  H   UNL     1       1.683  -1.859   2.476  0.00  0.00    +0.163 HD
ATOM     23  H   UNL     1       1.368  -4.842  -0.473  0.00  0.00    +0.163 HD
ENDBRANCH  10  13
BRANCH   6  24
ATOM     24  C   UNL     1      -3.734  -3.975  -0.855  0.00  0.00    -0.002 A 
ATOM     25  C   UNL     1      -3.818  -3.885  -2.231  0.00  0.00    +0.011 A 
ATOM     26  C   UNL     1      -4.600  -4.777  -2.938  0.00  0.00    +0.046 A 
ATOM     27  C   UNL     1      -5.304  -5.768  -2.267  0.00  0.00    +0.124 A 
ATOM     28  C   UNL     1      -5.222  -5.860  -0.887  0.00  0.00    +0.091 A 
ATOM     29  C   UNL     1      -4.431  -4.967  -0.180  0.00  0.00    +0.127 A 
BRANCH  29  30
ATOM     30  O   UNL     1      -4.344  -5.059   1.173  0.00  0.00    -0.495 OA
ATOM     31  C   UNL     1      -5.089  -6.104   1.802  0.00  0.00    +0.277 C 
ENDBRANCH  29  30
BRANCH  27  32
ATOM     32  O   UNL     1      -6.073  -6.645  -2.963  0.00  0.00    -0.495 OA
ATOM     33  C   UNL     1      -6.112  -6.490  -4.383  0.00  0.00    +0.277 C 
ENDBRANCH  27  32
ENDBRANCH   6  24
TORSDOF 4
