REMARK  Name = ZINC05257322
REMARK  8 active torsions:
REMARK  status: ('A' for Active; 'I' for Inactive)
REMARK    1  A    between atoms: C_1  and  C_2
REMARK    2  A    between atoms: C_4  and  C_26
REMARK    3  A    between atoms: C_6  and  N_8
REMARK    4  A    between atoms: C_9  and  C_11
REMARK    5  A    between atoms: C_11  and  S_12
REMARK    6  A    between atoms: S_12  and  C_13
REMARK    7  A    between atoms: C_16  and  C_19
REMARK    8  A    between atoms: N_17  and  N_18
REMARK                            x       y       z     vdW  Elec       q    Type
REMARK                         _______ _______ _______ _____ _____    ______ ____
ROOT
ATOM      1  C   UNL     1      -4.021   1.434  -0.147  0.00  0.00    +0.209 A 
ATOM      2  N   UNL     1      -4.052   2.728   0.078  0.00  0.00    -0.121 NA
ATOM      3  N   UNL     1      -5.269   3.135   0.147  0.00  0.00    -0.127 NA
ATOM      4  C   UNL     1      -6.090   2.123  -0.022  0.00  0.00    +0.182 A 
ATOM      5  N   UNL     1      -5.315   1.003  -0.215  0.00  0.00    -0.224 N 
ENDROOT
BRANCH   4   6
ATOM      6  C   UNL     1      -7.567   2.179  -0.006  0.00  0.00    +0.021 A 
ATOM      7  C   UNL     1      -8.224   3.402  -0.149  0.00  0.00    +0.013 A 
ATOM      8  C   UNL     1      -9.602   3.446  -0.140  0.00  0.00    +0.021 A 
ATOM      9  C   UNL     1     -10.334   2.282   0.022  0.00  0.00    +0.041 A 
ATOM     10  C   UNL     1      -9.688   1.066   0.170  0.00  0.00    +0.021 A 
ATOM     11  C   UNL     1      -8.310   1.008   0.157  0.00  0.00    +0.013 A 
ATOM     12 CL   UNL     1     -12.069   2.346   0.041  0.00  0.00    -0.084 Cl
ENDBRANCH   4   6
BRANCH   5  13
ATOM     13  N   UNL     1      -5.750  -0.274  -0.431  0.00  0.00    -0.295 N 
ATOM     14  H   UNL     1      -5.951  -0.739   0.442  0.00  0.00    +0.163 HD
ATOM     15  H   UNL     1      -6.554  -0.284  -1.040  0.00  0.00    +0.163 HD
ENDBRANCH   5  13
BRANCH   1  16
ATOM     16  S   UNL     1      -2.577   0.438  -0.322  0.00  0.00    -0.075 S 
BRANCH  16  17
ATOM     17  C   UNL     1      -1.297   1.701  -0.113  0.00  0.00    +0.173 C 
BRANCH  17  19
ATOM     18  N   UNL     1       1.174   1.815  -0.109  0.00  0.00    -0.285 N 
ATOM     19  C   UNL     1       0.062   1.061  -0.227  0.00  0.00    +0.227 C 
ATOM     20  O   UNL     1       0.157  -0.131  -0.429  0.00  0.00    -0.275 OA
ATOM     21  H   UNL     1       1.099   2.778  -0.023  0.00  0.00    +0.155 HD
BRANCH  18  27
ATOM     22  C   UNL     1       6.000   2.085  -1.007  0.00  0.00    +0.044 C 
ATOM     23  C   UNL     1       4.791   1.315  -0.541  0.00  0.00    -0.048 A 
ATOM     24  C   UNL     1       4.927   0.007  -0.114  0.00  0.00    +0.006 A 
ATOM     25  C   UNL     1       3.820  -0.703   0.314  0.00  0.00    -0.048 A 
ATOM     26  C   UNL     1       2.575  -0.106   0.317  0.00  0.00    +0.026 A 
ATOM     27  C   UNL     1       2.434   1.207  -0.111  0.00  0.00    +0.034 A 
ATOM     28  C   UNL     1       3.547   1.915  -0.546  0.00  0.00    +0.026 A 
ATOM     29  C   UNL     1       3.973  -2.128   0.778  0.00  0.00    +0.044 C 
ENDBRANCH  18  27
ENDBRANCH  17  19
ENDBRANCH  16  17
ENDBRANCH   1  16
TORSDOF 6
