REMARK  Name = ZINC44766674
REMARK  5 active torsions:
REMARK  status: ('A' for Active; 'I' for Inactive)
REMARK    1  A    between atoms: C_1  and  C_2
REMARK    2  A    between atoms: C_2  and  C_4
REMARK    3  A    between atoms: C_2  and  N_11
REMARK    4  A    between atoms: C_12  and  C_14
REMARK    5  A    between atoms: C_14  and  C_21
REMARK                            x       y       z     vdW  Elec       q    Type
REMARK                         _______ _______ _______ _____ _____    ______ ____
ROOT
ATOM      1  N   UNL     1      -1.372  -0.511   0.012  0.00  0.00    -0.307 N 
ATOM      2  C   UNL     1      -2.051  -0.643  -1.145  0.00  0.00    +0.234 C 
ATOM      3  O   UNL     1      -1.524  -0.341  -2.194  0.00  0.00    -0.274 OA
ATOM      4  H   UNL     1      -1.794  -0.752   0.852  0.00  0.00    +0.149 HD
ENDROOT
BRANCH   2   5
ATOM      5  C   UNL     1      -3.465  -1.164  -1.134  0.00  0.00    +0.133 C 
ATOM      6  C   UNL     1      -3.480  -2.551  -0.459  0.00  0.00    +0.031 C 
ATOM      7  C   UNL     1      -4.881  -2.838   0.010  0.00  0.00    +0.002 C 
ATOM      8  C   UNL     1      -5.692  -3.648  -1.020  0.00  0.00    +0.000 C 
ATOM      9  C   UNL     1      -5.468  -3.169  -2.467  0.00  0.00    +0.000 C 
ATOM     10  C   UNL     1      -5.431  -1.669  -2.578  0.00  0.00    +0.002 C 
ATOM     11  C   UNL     1      -3.961  -1.208  -2.501  0.00  0.00    +0.031 C 
BRANCH   5  12
ATOM     12  C   UNL     1      -4.306  -0.245  -0.350  0.00  0.00    +0.079 C 
ATOM     13  N   UNL     1      -4.954   0.465   0.255  0.00  0.00    -0.195 NA
ENDBRANCH   5  12
ENDBRANCH   2   5
BRANCH   1  15
ATOM     14  C   UNL     1      -0.019   1.526   0.010  0.00  0.00    +0.033 C 
ATOM     15  C   UNL     1       0.002  -0.004   0.002  0.00  0.00    +0.100 C 
BRANCH  15  16
ATOM     16  C   UNL     1       0.731  -0.503   1.223  0.00  0.00    -0.027 A 
ATOM     17  C   UNL     1       0.081  -0.558   2.442  0.00  0.00    +0.006 A 
ATOM     18  C   UNL     1       0.749  -1.017   3.562  0.00  0.00    +0.015 A 
ATOM     19  C   UNL     1       2.068  -1.420   3.463  0.00  0.00    +0.018 A 
ATOM     20  C   UNL     1       2.718  -1.365   2.243  0.00  0.00    +0.015 A 
ATOM     21  C   UNL     1       2.048  -0.911   1.123  0.00  0.00    +0.006 A 
ATOM     22 BR   UNL     1       2.983  -2.046   4.995  0.00  0.00    -0.050 Br
ENDBRANCH  15  16
ENDBRANCH   1  15
TORSDOF 4
