REMARK  Name = ZINC58482084
REMARK  7 active torsions:
REMARK  status: ('A' for Active; 'I' for Inactive)
REMARK    1  A    between atoms: C_1  and  C_2
REMARK    2  A    between atoms: C_8  and  C_10
REMARK    3  A    between atoms: C_16  and  C_18
REMARK    4  A    between atoms: C_25  and  C_28
REMARK    5  A    between atoms: C_28  and  C_29
REMARK    6  A    between atoms: C_28  and  C_30
REMARK    7  A    between atoms: C_28  and  C_31
REMARK                            x       y       z     vdW  Elec       q    Type
REMARK                         _______ _______ _______ _____ _____    ______ ____
ROOT
ATOM      1  C   UNL     1      -3.689  -3.633  -1.442  0.00  0.00    +0.078 C 
ATOM      2  C   UNL     1      -3.424  -4.925  -2.219  0.00  0.00    +0.032 C 
ATOM      3  C   UNL     1      -4.186  -6.078  -1.559  0.00  0.00    +0.109 C 
ATOM      4  N   UNL     1      -5.606  -5.713  -1.463  0.00  0.00    -0.297 N 
ATOM      5  C   UNL     1      -5.966  -4.444  -0.814  0.00  0.00    +0.109 C 
ATOM      6  C   UNL     1      -5.184  -3.309  -1.482  0.00  0.00    +0.032 C 
ATOM      7  C   UNL     1      -6.559  -6.525  -1.960  0.00  0.00    +0.253 C 
ATOM      8  O   UNL     1      -6.245  -7.512  -2.599  0.00  0.00    -0.269 OA
ENDROOT
BRANCH   1  16
ATOM      9  C   UNL     1      -0.519   1.765  -4.388  0.00  0.00    +0.089 C 
ATOM     10  C   UNL     1      -0.386   0.417  -3.727  0.00  0.00    +0.136 A 
ATOM     11  C   UNL     1      -1.399  -0.339  -3.268  0.00  0.00    +0.091 A 
ATOM     12  C   UNL     1      -0.851  -1.522  -2.723  0.00  0.00    +0.168 A 
ATOM     13  N   UNL     1       0.449  -1.462  -2.858  0.00  0.00    -0.063 NA
ATOM     14  O   UNL     1       0.762  -0.238  -3.499  0.00  0.00    -0.358 OA
ATOM     15  N   UNL     1      -1.569  -2.568  -2.143  0.00  0.00    -0.267 N 
ATOM     16  C   UNL     1      -2.913  -2.502  -2.068  0.00  0.00    +0.222 C 
ATOM     17  O   UNL     1      -3.499  -1.534  -2.503  0.00  0.00    -0.275 OA
ATOM     18  H   UNL     1      -1.101  -3.343  -1.795  0.00  0.00    +0.156 HD
ENDBRANCH   1  16
BRANCH   7  19
ATOM     19  C   UNL     1      -7.975  -6.220  -1.731  0.00  0.00    +0.075 A 
ATOM     20  C   UNL     1      -9.084  -6.646  -2.438  0.00  0.00    +0.024 A 
ATOM     21  C   UNL     1     -10.319  -6.197  -1.995  0.00  0.00    -0.036 A 
ATOM     22  C   UNL     1     -10.318  -5.378  -0.905  0.00  0.00    -0.006 A 
ATOM     23  S   UNL     1      -8.716  -5.207  -0.465  0.00  0.00    -0.088 S 
ATOM     24  C   UNL     1     -11.516  -4.765  -0.242  0.00  0.00    +0.043 C 
ATOM     25  C   UNL     1     -12.714  -4.889  -1.193  0.00  0.00    +0.009 C 
ATOM     26  C   UNL     1     -12.784  -6.328  -1.712  0.00  0.00    -0.001 C 
ATOM     27  C   UNL     1     -11.628  -6.589  -2.677  0.00  0.00    +0.040 C 
BRANCH  26  28
ATOM     28  C   UNL     1     -14.112  -6.542  -2.442  0.00  0.00    -0.035 C 
ATOM     29  C   UNL     1     -14.209  -5.569  -3.619  0.00  0.00    +0.011 C 
ATOM     30  C   UNL     1     -14.183  -7.979  -2.961  0.00  0.00    +0.011 C 
ATOM     31  C   UNL     1     -15.271  -6.290  -1.476  0.00  0.00    +0.011 C 
ENDBRANCH  26  28
ENDBRANCH   7  19
TORSDOF 3
