REMARK  Name = ZINC05297301
REMARK  6 active torsions:
REMARK  status: ('A' for Active; 'I' for Inactive)
REMARK    1  A    between atoms: C_1  and  S_2
REMARK    2  A    between atoms: S_2  and  C_3
REMARK    3  A    between atoms: C_6  and  C_9
REMARK    4  A    between atoms: N_10  and  N_11
REMARK    5  A    between atoms: C_12  and  C_14
REMARK    6  A    between atoms: C_16  and  C_20
REMARK                            x       y       z     vdW  Elec       q    Type
REMARK                         _______ _______ _______ _____ _____    ______ ____
ROOT
ATOM      1  N   UNL     1       3.450   2.498  -0.018  0.00  0.00    -0.202 N 
ATOM      2  C   UNL     1       2.495   1.546  -0.014  0.00  0.00    +0.281 C 
ATOM      3  O   UNL     1       2.808   0.370  -0.024  0.00  0.00    -0.267 OA
ATOM      4  H   UNL     1       3.200   3.435  -0.010  0.00  0.00    +0.178 HD
ENDROOT
BRANCH   2   5
ATOM      5  C   UNL     1       1.075   1.929   0.002  0.00  0.00    +0.122 A 
ATOM      6  C   UNL     1      -0.013   1.076   0.008  0.00  0.00    +0.062 A 
ATOM      7  C   UNL     1      -1.142   1.914   0.017  0.00  0.00    +0.093 A 
ATOM      8  N   UNL     1      -0.714   3.159   0.026  0.00  0.00    -0.173 NA
ATOM      9  N   UNL     1       0.570   3.199   0.014  0.00  0.00    -0.272 N 
ATOM     10  H   UNL     1       1.118   4.036   0.013  0.00  0.00    +0.189 HD
BRANCH   7  11
ATOM     11  C   UNL     1      -2.560   1.475   0.019  0.00  0.00    +0.002 A 
ATOM     12  C   UNL     1      -2.871   0.117   0.007  0.00  0.00    +0.011 A 
ATOM     13  C   UNL     1      -4.191  -0.287   0.015  0.00  0.00    +0.020 A 
ATOM     14  C   UNL     1      -5.205   0.655   0.024  0.00  0.00    +0.041 A 
ATOM     15  C   UNL     1      -4.901   2.006   0.031  0.00  0.00    +0.020 A 
ATOM     16  C   UNL     1      -3.584   2.419   0.029  0.00  0.00    +0.011 A 
ATOM     17 CL   UNL     1      -6.863   0.141   0.027  0.00  0.00    -0.084 Cl
ENDBRANCH   7  11
ENDBRANCH   2   5
BRANCH   1  19
ATOM     18  C   UNL     1       5.722   3.050  -0.037  0.00  0.00    +0.138 C 
ATOM     19  N   UNL     1       4.802   2.133  -0.033  0.00  0.00    -0.187 NA
BRANCH  18  23
ATOM     20  C   UNL     1       9.821   1.944  -0.083  0.00  0.00    +0.008 A 
ATOM     21  C   UNL     1       9.464   3.290  -0.072  0.00  0.00    +0.015 A 
ATOM     22  C   UNL     1       8.136   3.652  -0.057  0.00  0.00    +0.010 A 
ATOM     23  C   UNL     1       7.145   2.666  -0.053  0.00  0.00    -0.005 A 
ATOM     24  C   UNL     1       7.506   1.315  -0.058  0.00  0.00    +0.010 A 
ATOM     25  C   UNL     1       8.836   0.961  -0.078  0.00  0.00    +0.015 A 
BRANCH  20  27
ATOM     26  C   UNL     1      11.487  -0.328  -0.111  0.00  0.00    +0.090 C 
ATOM     27  S   UNL     1      11.522   1.486  -0.102  0.00  0.00    -0.129 S 
ENDBRANCH  20  27
ENDBRANCH  18  23
ENDBRANCH   1  19
TORSDOF 5
