REMARK  Name = ZINC67066600
REMARK  6 active torsions:
REMARK  status: ('A' for Active; 'I' for Inactive)
REMARK    1  A    between atoms: C_1  and  C_2
REMARK    2  A    between atoms: C_2  and  N_3
REMARK    3  A    between atoms: C_11  and  C_12
REMARK    4  A    between atoms: C_12  and  C_14
REMARK    5  A    between atoms: C_12  and  N_15
REMARK    6  A    between atoms: C_22  and  C_25
REMARK                            x       y       z     vdW  Elec       q    Type
REMARK                         _______ _______ _______ _____ _____    ______ ____
ROOT
ATOM      1  N   UNL     1      -1.448   0.023   4.035  0.00  0.00    -0.290 N 
ATOM      2  C   UNL     1      -2.575   0.702   4.329  0.00  0.00    +0.303 C 
ATOM      3  O   UNL     1      -3.435   0.848   3.481  0.00  0.00    -0.253 OA
ATOM      4  N   UNL     1      -2.750   1.219   5.561  0.00  0.00    -0.281 N 
ATOM      5  C   UNL     1      -4.017   1.863   5.940  0.00  0.00    +0.137 C 
ATOM      6  C   UNL     1      -4.490   1.257   7.266  0.00  0.00    +0.179 C 
ATOM      7  O   UNL     1      -3.429   1.331   8.222  0.00  0.00    -0.369 OA
ATOM      8  C   UNL     1      -2.264   0.584   7.863  0.00  0.00    +0.166 C 
ATOM      9  C   UNL     1      -1.680   1.151   6.569  0.00  0.00    +0.145 C 
ATOM     10  H   UNL     1      -0.731  -0.030   4.686  0.00  0.00    +0.151 HD
ENDROOT
BRANCH   8  11
ATOM     11  C   UNL     1      -1.243   0.683   8.966  0.00  0.00    -0.015 A 
ATOM     12  C   UNL     1      -1.124   1.853   9.694  0.00  0.00    +0.006 A 
ATOM     13  C   UNL     1      -0.187   1.945  10.707  0.00  0.00    +0.003 A 
ATOM     14  C   UNL     1       0.632   0.869  10.992  0.00  0.00    +0.038 A 
ATOM     15  C   UNL     1       0.514  -0.302  10.263  0.00  0.00    +0.124 A 
ATOM     16  C   UNL     1      -0.429  -0.396   9.253  0.00  0.00    +0.044 A 
ATOM     17  F   UNL     1       1.314  -1.354  10.541  0.00  0.00    -0.205 F 
ENDBRANCH   8  11
BRANCH   1  18
ATOM     18  C   UNL     1      -1.306  -0.634   2.734  0.00  0.00    +0.138 C 
ATOM     19  C   UNL     1      -1.952  -2.020   2.789  0.00  0.00    +0.036 C 
BRANCH  18  28
ATOM     20  N   UNL     1       0.709  -0.492   1.188  0.00  0.00    -0.326 N 
ATOM     21  C   UNL     1       2.063  -0.740   1.286  0.00  0.00    +0.069 A 
ATOM     22  C   UNL     1       3.131  -0.638   0.406  0.00  0.00    +0.028 A 
ATOM     23  C   UNL     1       4.400  -0.974   0.830  0.00  0.00    +0.002 A 
ATOM     24  C   UNL     1       4.614  -1.413   2.128  0.00  0.00    +0.002 A 
ATOM     25  C   UNL     1       3.575  -1.520   3.008  0.00  0.00    +0.030 A 
ATOM     26  C   UNL     1       2.281  -1.185   2.602  0.00  0.00    +0.089 A 
ATOM     27  N   UNL     1       1.074  -1.184   3.224  0.00  0.00    -0.230 NA
ATOM     28  C   UNL     1       0.156  -0.773   2.398  0.00  0.00    +0.131 A 
BRANCH  20  30
ATOM     29  C   UNL     1      -0.023   1.521   0.007  0.00  0.00    +0.027 C 
ATOM     30  C   UNL     1      -0.001  -0.008   0.001  0.00  0.00    +0.120 C 
ENDBRANCH  20  30
ENDBRANCH  18  28
ENDBRANCH   1  18
TORSDOF 4
