REMARK  Name = ZINC34749059
REMARK  11 active torsions:
REMARK  status: ('A' for Active; 'I' for Inactive)
REMARK    1  A    between atoms: C_1  and  C_2
REMARK    2  A    between atoms: C_2  and  C_3
REMARK    3  A    between atoms: C_3  and  C_4
REMARK    4  A    between atoms: C_4  and  N_5
REMARK    5  A    between atoms: C_15  and  C_19
REMARK    6  A    between atoms: C_16  and  C_18
REMARK    7  A    between atoms: C_19  and  C_20
REMARK    8  A    between atoms: N_23  and  C_24
REMARK    9  A    between atoms: C_24  and  C_25
REMARK   10  A    between atoms: N_27  and  C_28
REMARK   11  A    between atoms: C_31  and  C_34
REMARK                            x       y       z     vdW  Elec       q    Type
REMARK                         _______ _______ _______ _____ _____    ______ ____
ROOT
ATOM      1  N   UNL     1       1.938  -1.661   3.167  0.00  0.00    +0.382 N 
ATOM      2  C   UNL     1       2.821  -1.797   4.332  0.00  0.00    -0.060 C 
ATOM      3  C   UNL     1       3.098  -3.281   4.591  0.00  0.00    +0.089 C 
ATOM      4  N   UNL     1       1.810  -3.980   4.721  0.00  0.00    -0.304 N 
ATOM      5  C   UNL     1       0.799  -3.769   3.675  0.00  0.00    +0.089 C 
ATOM      6  C   UNL     1       0.630  -2.262   3.458  0.00  0.00    -0.060 C 
ATOM      7  C   UNL     1       1.560  -4.806   5.789  0.00  0.00    +0.202 A 
ATOM      8  N   UNL     1       1.110  -4.293   6.915  0.00  0.00    -0.208 NA
ATOM      9  C   UNL     1       0.859  -5.068   7.964  0.00  0.00    +0.117 A 
ATOM     10  C   UNL     1       1.057  -6.461   7.929  0.00  0.00    +0.076 A 
ATOM     11  C   UNL     1       0.733  -7.157   9.162  0.00  0.00    -0.023 A 
ATOM     12  C   UNL     1       0.283  -6.455  10.212  0.00  0.00    -0.007 A 
ATOM     13  S   UNL     1       0.262  -4.777   9.610  0.00  0.00    -0.073 S 
ATOM     14  C   UNL     1      -0.111  -6.963  11.575  0.00  0.00    +0.052 C 
ATOM     15  C   UNL     1       1.547  -6.988   6.692  0.00  0.00    +0.264 A 
ATOM     16  O   UNL     1       1.749  -8.183   6.568  0.00  0.00    -0.267 OA
ATOM     17  N   UNL     1       1.776  -6.147   5.667  0.00  0.00    -0.271 N 
ATOM     18  H   UNL     1       2.353  -2.130   2.376  0.00  0.00    -0.082 HD
ENDROOT
BRANCH  11  19
ATOM     19  C   UNL     1       0.899  -8.652   9.259  0.00  0.00    +0.033 C 
ATOM     20  C   UNL     1       2.311  -8.977   9.751  0.00  0.00    +0.009 C 
ENDBRANCH  11  19
BRANCH   1  21
ATOM     21  C   UNL     1       1.761  -0.237   2.852  0.00  0.00    -0.079 C 
BRANCH  21  22
ATOM     22  C   UNL     1       3.103   0.362   2.428  0.00  0.00    -0.019 C 
BRANCH  22  24
ATOM     23  C   UNL     1       4.262   2.444   1.675  0.00  0.00    +0.004 C 
ATOM     24  C   UNL     1       2.919   1.845   2.099  0.00  0.00    -0.005 C 
ENDBRANCH  22  24
ENDBRANCH  21  22
ENDBRANCH   1  21
BRANCH  17  25
ATOM     25  C   UNL     1       2.271  -6.682   4.396  0.00  0.00    +0.224 C 
BRANCH  25  26
ATOM     26  C   UNL     1       3.772  -6.806   4.454  0.00  0.00    +0.237 C 
ATOM     27  O   UNL     1       4.369  -6.480   5.458  0.00  0.00    -0.274 OA
ATOM     28  N   UNL     1       4.450  -7.280   3.390  0.00  0.00    -0.284 N 
ATOM     29  H   UNL     1       3.985  -7.461   2.559  0.00  0.00    +0.155 HD
BRANCH  28  30
ATOM     30  C   UNL     1       5.827  -7.510   3.485  0.00  0.00    +0.033 A 
ATOM     31  C   UNL     1       6.621  -7.462   2.346  0.00  0.00    +0.023 A 
ATOM     32  C   UNL     1       7.980  -7.689   2.443  0.00  0.00    +0.005 A 
ATOM     33  C   UNL     1       8.550  -7.964   3.672  0.00  0.00    -0.050 A 
ATOM     34  C   UNL     1       7.763  -8.013   4.808  0.00  0.00    +0.005 A 
ATOM     35  C   UNL     1       6.405  -7.781   4.719  0.00  0.00    +0.023 A 
ATOM     36  C   UNL     1      10.033  -8.212   3.774  0.00  0.00    +0.044 C 
ENDBRANCH  28  30
ENDBRANCH  25  26
ENDBRANCH  17  25
TORSDOF 7
