REMARK  Name = ZINC14461138
REMARK  6 active torsions:
REMARK  status: ('A' for Active; 'I' for Inactive)
REMARK    1  A    between atoms: C_1  and  C_2
REMARK    2  A    between atoms: C_2  and  C_3
REMARK    3  A    between atoms: C_2  and  O_4
REMARK    4  A    between atoms: O_4  and  C_5
REMARK    5  A    between atoms: C_18  and  C_21
REMARK    6  A    between atoms: C_26  and  O_27
REMARK                            x       y       z     vdW  Elec       q    Type
REMARK                         _______ _______ _______ _____ _____    ______ ____
ROOT
ATOM      1  C   UNL     1      -5.257   4.240  -1.962  0.00  0.00    +0.121 A 
ATOM      2  C   UNL     1      -4.560   5.155  -2.739  0.00  0.00    +0.047 A 
ATOM      3  C   UNL     1      -3.193   5.025  -2.885  0.00  0.00    +0.027 A 
ATOM      4  C   UNL     1      -2.521   3.985  -2.256  0.00  0.00    +0.032 A 
ATOM      5  C   UNL     1      -3.211   3.066  -1.481  0.00  0.00    -0.016 A 
ATOM      6  C   UNL     1      -4.585   3.204  -1.338  0.00  0.00    +0.051 A 
ATOM      7  C   UNL     1      -2.529   1.929  -0.790  0.00  0.00    +0.049 C 
ATOM      8  C   UNL     1      -2.402   2.179   0.694  0.00  0.00    -0.023 C 
ATOM      9  C   UNL     1      -1.264   1.696   1.143  0.00  0.00    -0.030 C 
ATOM     10  C   UNL     1      -0.484   1.054   0.012  0.00  0.00    +0.033 C 
ATOM     11  C   UNL     1      -1.078   1.719  -1.264  0.00  0.00    +0.029 C 
ATOM     12  C   UNL     1      -0.384   3.074  -1.436  0.00  0.00    +0.108 C 
ATOM     13  N   UNL     1      -1.133   3.870  -2.414  0.00  0.00    -0.336 N 
ATOM     14  H   UNL     1      -0.678   4.307  -3.151  0.00  0.00    +0.147 HD
ENDROOT
BRANCH  12  15
ATOM     15  C   UNL     1      -0.354   3.796  -0.114  0.00  0.00    +0.015 A 
ATOM     16  C   UNL     1      -1.402   4.621   0.247  0.00  0.00    +0.024 A 
ATOM     17  C   UNL     1      -1.375   5.285   1.461  0.00  0.00    +0.018 A 
ATOM     18  C   UNL     1      -0.298   5.124   2.315  0.00  0.00    +0.019 A 
ATOM     19  C   UNL     1       0.751   4.300   1.958  0.00  0.00    +0.047 A 
ATOM     20  C   UNL     1       0.723   3.630   0.744  0.00  0.00    +0.122 A 
ATOM     21 BR   UNL     1      -2.811   6.412   1.953  0.00  0.00    -0.050 Br
BRANCH  20  22
ATOM     22  O   UNL     1       1.752   2.814   0.393  0.00  0.00    -0.506 OA
ATOM     23  H   UNL     1       2.461   3.260  -0.091  0.00  0.00    +0.292 HD
ENDBRANCH  20  22
ENDBRANCH  12  15
BRANCH   1  24
ATOM     24  O   UNL     1      -6.603   4.363  -1.815  0.00  0.00    -0.489 OA
BRANCH  24  26
ATOM     25  C   UNL     1      -8.718   5.008  -2.791  0.00  0.00    +0.051 C 
ATOM     26  C   UNL     1      -7.249   5.383  -2.580  0.00  0.00    +0.167 C 
ATOM     27  C   UNL     1      -7.165   6.714  -1.830  0.00  0.00    +0.051 C 
ENDBRANCH  24  26
ENDBRANCH   1  24
TORSDOF 4
