REMARK  Name = ZINC08894408
REMARK  6 active torsions:
REMARK  status: ('A' for Active; 'I' for Inactive)
REMARK    1  A    between atoms: C_1  and  C_2
REMARK    2  A    between atoms: C_2  and  C_4
REMARK    3  A    between atoms: C_2  and  N_15
REMARK    4  A    between atoms: N_6  and  C_7
REMARK    5  A    between atoms: C_22  and  C_25
REMARK    6  A    between atoms: C_29  and  N_31
REMARK                            x       y       z     vdW  Elec       q    Type
REMARK                         _______ _______ _______ _____ _____    ______ ____
ROOT
ATOM      1  N   UNL     1      -2.433   6.438  -2.714  0.00  0.00    -0.287 N 
ATOM      2  C   UNL     1      -2.313   7.778  -2.531  0.00  0.00    +0.204 A 
ATOM      3  N   UNL     1      -1.534   8.266  -1.604  0.00  0.00    -0.230 NA
ATOM      4  C   UNL     1      -0.831   7.465  -0.808  0.00  0.00    +0.116 A 
ATOM      5  C   UNL     1      -0.890   6.066  -0.923  0.00  0.00    +0.080 A 
ATOM      6  C   UNL     1      -1.754   5.564  -1.948  0.00  0.00    +0.263 A 
ATOM      7  O   UNL     1      -1.872   4.364  -2.125  0.00  0.00    -0.267 OA
ATOM      8  C   UNL     1      -0.059   5.332   0.024  0.00  0.00    +0.004 A 
ATOM      9  C   UNL     1       0.681   6.031   0.918  0.00  0.00    +0.056 A 
ATOM     10  S   UNL     1       0.306   7.729   0.528  0.00  0.00    -0.076 S 
ENDROOT
BRANCH   8  11
ATOM     11  C   UNL     1      -0.029   3.850   0.012  0.00  0.00    -0.014 A 
ATOM     12  C   UNL     1      -1.220   3.126   0.019  0.00  0.00    +0.009 A 
ATOM     13  C   UNL     1      -1.186   1.747   0.003  0.00  0.00    +0.003 A 
ATOM     14  C   UNL     1       0.028   1.082  -0.009  0.00  0.00    +0.033 A 
ATOM     15  C   UNL     1       1.213   1.796  -0.016  0.00  0.00    +0.127 A 
ATOM     16  C   UNL     1       1.191   3.175  -0.006  0.00  0.00    +0.041 A 
BRANCH  15  17
ATOM     17  N   UNL     1       2.507   1.077  -0.035  0.00  0.00    +0.056 N 
ATOM     18  O   UNL     1       2.527  -0.140  -0.045  0.00  0.00    -0.126 OA
ATOM     19  O   UNL     1       3.551   1.704  -0.041  0.00  0.00    -0.126 OA
ENDBRANCH  15  17
ENDBRANCH   8  11
BRANCH   1  21
ATOM     20  C   UNL     1      -4.749   6.408  -3.501  0.00  0.00    +0.041 C 
ATOM     21  C   UNL     1      -3.319   5.933  -3.766  0.00  0.00    +0.174 C 
BRANCH  21  22
ATOM     22  C   UNL     1      -2.857   6.452  -5.104  0.00  0.00    +0.240 C 
ATOM     23  O   UNL     1      -1.884   7.173  -5.171  0.00  0.00    -0.273 OA
ATOM     24  N   UNL     1      -3.525   6.115  -6.225  0.00  0.00    -0.284 N 
ATOM     25  H   UNL     1      -4.262   5.486  -6.179  0.00  0.00    +0.155 HD
BRANCH  24  26
ATOM     26  C   UNL     1      -3.157   6.674  -7.453  0.00  0.00    +0.036 A 
ATOM     27  C   UNL     1      -4.125   6.958  -8.407  0.00  0.00    +0.043 A 
ATOM     28  C   UNL     1      -3.759   7.515  -9.618  0.00  0.00    +0.044 A 
ATOM     29  C   UNL     1      -2.427   7.779  -9.885  0.00  0.00    +0.040 A 
ATOM     30  C   UNL     1      -1.459   7.491  -8.939  0.00  0.00    +0.044 A 
ATOM     31  C   UNL     1      -1.821   6.939  -7.724  0.00  0.00    +0.043 A 
ATOM     32 CL   UNL     1       0.211   7.823  -9.278  0.00  0.00    -0.083 Cl
ATOM     33 CL   UNL     1      -4.970   7.877 -10.808  0.00  0.00    -0.083 Cl
ENDBRANCH  24  26
ENDBRANCH  21  22
ENDBRANCH   1  21
TORSDOF 5
