REMARK  Name = ZINC07218211
REMARK  6 active torsions:
REMARK  status: ('A' for Active; 'I' for Inactive)
REMARK    1  A    between atoms: C_1  and  C_2
REMARK    2  A    between atoms: C_5  and  S_8
REMARK    3  A    between atoms: S_8  and  N_11
REMARK    4  A    between atoms: N_11  and  C_12
REMARK    5  A    between atoms: N_11  and  C_13
REMARK    6  A    between atoms: C_13  and  C_14
REMARK                            x       y       z     vdW  Elec       q    Type
REMARK                         _______ _______ _______ _____ _____    ______ ____
ROOT
ATOM      1  S   UNL     1       2.586   4.483   2.122  0.00  0.00    +0.061 S 
ATOM      2  O   UNL     1       2.379   4.360   3.522  0.00  0.00    -0.153 OA
ATOM      3  O   UNL     1       3.609   3.772   1.437  0.00  0.00    -0.153 OA
ENDROOT
BRANCH   1   8
ATOM      4  C   UNL     1       3.532  10.341   1.026  0.00  0.00    +0.044 C 
ATOM      5  C   UNL     1       3.296   8.878   1.300  0.00  0.00    -0.050 A 
ATOM      6  C   UNL     1       2.596   8.489   2.427  0.00  0.00    +0.005 A 
ATOM      7  C   UNL     1       2.380   7.147   2.678  0.00  0.00    +0.029 A 
ATOM      8  C   UNL     1       2.862   6.194   1.802  0.00  0.00    +0.105 A 
ATOM      9  C   UNL     1       3.566   6.582   0.677  0.00  0.00    +0.029 A 
ATOM     10  C   UNL     1       3.779   7.924   0.424  0.00  0.00    +0.005 A 
ENDBRANCH   1   8
BRANCH   1  11
ATOM     11  N   UNL     1       1.156   4.073   1.394  0.00  0.00    -0.175 NA
ATOM     12  C   UNL     1      -0.102   4.192   2.134  0.00  0.00    +0.132 C 
BRANCH  11  13
ATOM     13  C   UNL     1       1.150   3.592   0.010  0.00  0.00    +0.144 C 
BRANCH  13  14
ATOM     14  C   UNL     1       1.171   2.086   0.002  0.00  0.00    -0.032 A 
ATOM     15  C   UNL     1      -0.017   1.378   0.010  0.00  0.00    +0.006 A 
ATOM     16  C   UNL     1       0.002  -0.004   0.002  0.00  0.00    +0.015 A 
ATOM     17  C   UNL     1       1.209  -0.679  -0.013  0.00  0.00    +0.018 A 
ATOM     18  C   UNL     1       2.397   0.029  -0.021  0.00  0.00    +0.015 A 
ATOM     19  C   UNL     1       2.378   1.411  -0.013  0.00  0.00    +0.006 A 
ATOM     20 BR   UNL     1       1.236  -2.570  -0.023  0.00  0.00    -0.050 Br
ENDBRANCH  13  14
ENDBRANCH  11  13
ENDBRANCH   1  11
TORSDOF 4
