REMARK  Name = ZINC38659856
REMARK  13 active torsions:
REMARK  status: ('A' for Active; 'I' for Inactive)
REMARK    1  A    between atoms: C_1  and  C_2
REMARK    2  A    between atoms: C_2  and  C_4
REMARK    3  A    between atoms: C_2  and  O_31
REMARK    4  A    between atoms: C_4  and  O_6
REMARK    5  A    between atoms: O_6  and  C_7
REMARK    6  A    between atoms: C_14  and  N_30
REMARK    7  A    between atoms: C_15  and  C_28
REMARK    8  A    between atoms: C_16  and  C_18
REMARK    9  A    between atoms: C_20  and  O_26
REMARK   10  A    between atoms: C_23  and  O_24
REMARK   11  A    between atoms: O_24  and  C_25
REMARK   12  A    between atoms: O_26  and  C_27
REMARK   13  A    between atoms: O_31  and  C_32
REMARK                            x       y       z     vdW  Elec       q    Type
REMARK                         _______ _______ _______ _____ _____    ______ ____
ROOT
ATOM      1  C   UNL     1      -3.662  -0.573   0.866  0.00  0.00    +0.135 A 
ATOM      2  C   UNL     1      -4.012  -1.397  -0.195  0.00  0.00    +0.047 A 
ATOM      3  C   UNL     1      -5.301  -1.879  -0.297  0.00  0.00    +0.012 A 
ATOM      4  C   UNL     1      -6.249  -1.545   0.654  0.00  0.00    +0.008 A 
ATOM      5  C   UNL     1      -5.905  -0.723   1.715  0.00  0.00    +0.138 A 
ATOM      6  C   UNL     1      -4.607  -0.241   1.823  0.00  0.00    +0.093 A 
ATOM      7  O   UNL     1      -6.820  -0.384   2.657  0.00  0.00    -0.441 OA
ATOM      8  C   UNL     1      -8.131  -0.505   2.392  0.00  0.00    +0.199 C 
ATOM      9  C   UNL     1      -8.590  -1.295   1.393  0.00  0.00    +0.098 C 
ATOM     10  C   UNL     1      -7.650  -2.082   0.524  0.00  0.00    +0.102 C 
ENDROOT
BRANCH  10  11
ATOM     11  C   UNL     1      -7.671  -3.528   0.946  0.00  0.00    +0.010 A 
ATOM     12  C   UNL     1      -7.300  -3.878   2.230  0.00  0.00    +0.053 A 
ATOM     13  C   UNL     1      -7.321  -5.210   2.619  0.00  0.00    +0.121 A 
ATOM     14  C   UNL     1      -7.713  -6.189   1.719  0.00  0.00    +0.049 A 
ATOM     15  C   UNL     1      -8.084  -5.839   0.435  0.00  0.00    +0.049 A 
ATOM     16  C   UNL     1      -8.069  -4.507   0.048  0.00  0.00    +0.124 A 
BRANCH  16  17
ATOM     17  O   UNL     1      -8.439  -4.162  -1.214  0.00  0.00    -0.495 OA
ATOM     18  C   UNL     1      -8.837  -5.221  -2.087  0.00  0.00    +0.277 C 
ENDBRANCH  16  17
BRANCH  13  19
ATOM     19  O   UNL     1      -6.955  -5.554   3.882  0.00  0.00    -0.495 OA
ATOM     20  C   UNL     1      -7.000  -6.944   4.214  0.00  0.00    +0.277 C 
ENDBRANCH  13  19
ENDBRANCH  10  11
BRANCH   8  21
ATOM     21  N   UNL     1      -9.033   0.191   3.158  0.00  0.00    -0.328 N 
ATOM     22  H   UNL     1      -8.719   0.761   3.878  0.00  0.00    +0.145 HD
ATOM     23  H   UNL     1      -9.983   0.114   2.979  0.00  0.00    +0.145 HD
ENDBRANCH   8  21
BRANCH   9  24
ATOM     24  C   UNL     1     -10.000  -1.383   1.160  0.00  0.00    +0.101 C 
ATOM     25  N   UNL     1     -11.119  -1.453   0.975  0.00  0.00    -0.191 NA
ENDBRANCH   9  24
BRANCH   1  26
ATOM     26  O   UNL     1      -2.393  -0.097   0.969  0.00  0.00    -0.423 OA
BRANCH  26  27
ATOM     27  C   UNL     1      -2.026   0.901   0.149  0.00  0.00    +0.353 C 
ATOM     28  O   UNL     1      -2.840   1.411  -0.584  0.00  0.00    -0.246 OA
BRANCH  27  30
ATOM     29  C   UNL     1      -0.267   2.010   1.500  0.00  0.00    +0.064 C 
ATOM     30  C   UNL     1      -0.599   1.385   0.143  0.00  0.00    +0.279 C 
BRANCH  30  31
ATOM     31  O   UNL     1      -0.432   2.363  -0.885  0.00  0.00    -0.478 OA
BRANCH  31  32
ATOM     32  C   UNL     1       0.822   2.525  -1.385  0.00  0.00    +0.122 A 
ATOM     33  C   UNL     1       1.887   1.838  -0.823  0.00  0.00    +0.048 A 
ATOM     34  C   UNL     1       3.161   2.004  -1.332  0.00  0.00    +0.042 A 
ATOM     35  C   UNL     1       3.374   2.856  -2.402  0.00  0.00    +0.124 A 
ATOM     36  C   UNL     1       2.312   3.543  -2.963  0.00  0.00    +0.042 A 
ATOM     37  C   UNL     1       1.036   3.374  -2.461  0.00  0.00    +0.048 A 
ATOM     38  F   UNL     1       4.620   3.017  -2.898  0.00  0.00    -0.205 F 
ENDBRANCH  31  32
ENDBRANCH  30  31
ENDBRANCH  27  30
ENDBRANCH  26  27
ENDBRANCH   1  26
TORSDOF 10
