REMARK  Name = ZINC36302758
REMARK  7 active torsions:
REMARK  status: ('A' for Active; 'I' for Inactive)
REMARK    1  A    between atoms: C_1  and  C_2
REMARK    2  A    between atoms: C_5  and  C_30
REMARK    3  A    between atoms: N_8  and  C_10
REMARK    4  A    between atoms: C_10  and  C_11
REMARK    5  A    between atoms: C_15  and  C_17
REMARK    6  A    between atoms: N_25  and  C_26
REMARK    7  A    between atoms: C_26  and  C_27
REMARK                            x       y       z     vdW  Elec       q    Type
REMARK                         _______ _______ _______ _____ _____    ______ ____
ROOT
ATOM      1  C   UNL     1       2.992  -2.085   2.350  0.00  0.00    -0.063 A 
ATOM      2  C   UNL     1       3.866  -2.867   1.615  0.00  0.00    +0.002 A 
ATOM      3  C   UNL     1       5.163  -2.442   1.392  0.00  0.00    +0.001 A 
ATOM      4  C   UNL     1       5.594  -1.235   1.902  0.00  0.00    +0.011 A 
ATOM      5  C   UNL     1       4.719  -0.441   2.643  0.00  0.00    +0.018 A 
ATOM      6  C   UNL     1       3.409  -0.873   2.860  0.00  0.00    +0.013 A 
ENDROOT
BRANCH   5   7
ATOM      7  C   UNL     1       5.174   0.854   3.193  0.00  0.00    +0.142 A 
ATOM      8  N   UNL     1       4.392   1.859   3.500  0.00  0.00    -0.228 NA
ATOM      9  C   UNL     1       5.136   2.887   3.977  0.00  0.00    +0.090 A 
ATOM     10  C   UNL     1       4.821   4.168   4.440  0.00  0.00    +0.030 A 
ATOM     11  C   UNL     1       5.816   5.001   4.868  0.00  0.00    +0.002 A 
ATOM     12  C   UNL     1       7.141   4.590   4.848  0.00  0.00    +0.002 A 
ATOM     13  C   UNL     1       7.476   3.332   4.395  0.00  0.00    +0.028 A 
ATOM     14  C   UNL     1       6.479   2.470   3.957  0.00  0.00    +0.070 A 
ATOM     15  N   UNL     1       6.476   1.181   3.463  0.00  0.00    -0.313 N 
BRANCH  15  16
ATOM     16  C   UNL     1       7.647   0.323   3.262  0.00  0.00    +0.248 C 
BRANCH  16  17
ATOM     17  C   UNL     1       8.273   0.634   1.927  0.00  0.00    +0.375 C 
ATOM     18  O   UNL     1       7.787   1.492   1.210  0.00  0.00    -0.244 OA
ATOM     19  O   UNL     1       9.267   0.027   1.564  0.00  0.00    -0.244 OA
ENDBRANCH  16  17
ENDBRANCH  15  16
ENDBRANCH   5   7
BRANCH   1  20
ATOM     20  C   UNL     1       1.581  -2.555   2.589  0.00  0.00    -0.043 C 
BRANCH  20  26
ATOM     21  C   UNL     1      -0.242   1.422   0.392  0.00  0.00    +0.005 C 
ATOM     22  C   UNL     1      -0.179  -0.107   0.355  0.00  0.00    -0.031 C 
ATOM     23  C   UNL     1      -1.596  -0.679   0.456  0.00  0.00    +0.003 C 
ATOM     24  C   UNL     1      -1.516  -2.208   0.497  0.00  0.00    -0.031 C 
ATOM     25  C   UNL     1      -0.632  -2.636   1.671  0.00  0.00    -0.075 C 
ATOM     26  N   UNL     1       0.715  -2.079   1.502  0.00  0.00    +0.383 N 
ATOM     27  C   UNL     1       0.656  -0.612   1.533  0.00  0.00    -0.075 C 
ATOM     28  C   UNL     1      -0.914  -2.724  -0.811  0.00  0.00    +0.005 C 
ATOM     29  H   UNL     1       1.094  -2.380   0.616  0.00  0.00    -0.081 HD
ENDBRANCH  20  26
ENDBRANCH   1  20
TORSDOF 5
