REMARK  Name = ZINC52522885
REMARK  10 active torsions:
REMARK  status: ('A' for Active; 'I' for Inactive)
REMARK    1  A    between atoms: C_1  and  C_2
REMARK    2  A    between atoms: C_7  and  C_9
REMARK    3  A    between atoms: C_7  and  N_25
REMARK    4  A    between atoms: C_9  and  N_10
REMARK    5  A    between atoms: N_13  and  C_14
REMARK    6  A    between atoms: C_20  and  C_22
REMARK    7  A    between atoms: C_22  and  C_23
REMARK    8  A    between atoms: C_22  and  C_24
REMARK    9  A    between atoms: N_25  and  C_26
REMARK   10  A    between atoms: N_25  and  C_27
REMARK                            x       y       z     vdW  Elec       q    Type
REMARK                         _______ _______ _______ _____ _____    ______ ____
ROOT
ATOM      1  N   UNL     1       0.065  -4.572   1.984  0.00  0.00    -0.301 N 
ATOM      2  C   UNL     1      -1.116  -5.098   1.605  0.00  0.00    +0.300 C 
ATOM      3  O   UNL     1      -2.056  -4.367   1.359  0.00  0.00    -0.253 OA
ATOM      4  N   UNL     1      -1.255  -6.434   1.499  0.00  0.00    -0.296 N 
ATOM      5  H   UNL     1       0.815  -5.155   2.181  0.00  0.00    +0.150 HD
ATOM      6  H   UNL     1      -0.505  -7.017   1.695  0.00  0.00    +0.151 HD
ENDROOT
BRANCH   4   7
ATOM      7  C   UNL     1      -2.539  -7.007   1.087  0.00  0.00    +0.077 C 
ATOM      8  C   UNL     1      -3.447  -7.155   2.309  0.00  0.00    +0.041 C 
ATOM      9  C   UNL     1      -4.801  -7.721   1.869  0.00  0.00    +0.109 C 
ATOM     10  N   UNL     1      -4.574  -8.971   1.131  0.00  0.00    -0.301 N 
ATOM     11  C   UNL     1      -3.646  -8.960  -0.008  0.00  0.00    +0.109 C 
ATOM     12  C   UNL     1      -2.305  -8.380   0.453  0.00  0.00    +0.041 C 
ATOM     13  C   UNL     1      -5.204 -10.107   1.493  0.00  0.00    +0.218 C 
ATOM     14  O   UNL     1      -5.918 -10.117   2.473  0.00  0.00    -0.275 OA
BRANCH  13  15
ATOM     15  C   UNL     1      -5.019 -11.362   0.681  0.00  0.00    +0.069 C 
ATOM     16  C   UNL     1      -5.699 -12.534   1.392  0.00  0.00    +0.017 C 
ATOM     17  C   UNL     1      -5.646 -11.172  -0.702  0.00  0.00    +0.017 C 
ENDBRANCH  13  15
ENDBRANCH   4   7
BRANCH   1  18
ATOM     18  C   UNL     1       0.217  -3.119   2.099  0.00  0.00    +0.094 C 
BRANCH  18  24
ATOM     19  C   UNL     1       1.516   0.982   1.631  0.00  0.00    +0.007 C 
ATOM     20  C   UNL     1       1.380  -0.524   1.397  0.00  0.00    -0.015 C 
ATOM     21  C   UNL     1       2.273  -0.940   0.226  0.00  0.00    +0.003 C 
ATOM     22  C   UNL     1       2.138  -2.446  -0.008  0.00  0.00    -0.001 C 
ATOM     23  C   UNL     1       2.566  -3.199   1.254  0.00  0.00    -0.010 C 
ATOM     24  C   UNL     1       1.673  -2.782   2.424  0.00  0.00    -0.050 C 
ATOM     25  C   UNL     1       1.809  -1.276   2.658  0.00  0.00    -0.007 C 
BRANCH  24  26
ATOM     26  N   UNL     1       2.085  -3.505   3.635  0.00  0.00    +0.381 N 
ATOM     27  C   UNL     1       3.456  -3.119   3.993  0.00  0.00    -0.096 C 
ATOM     28  C   UNL     1       1.177  -3.167   4.739  0.00  0.00    -0.096 C 
ATOM     29  H   UNL     1       2.049  -4.498   3.463  0.00  0.00    -0.082 HD
ENDBRANCH  24  26
ENDBRANCH  18  24
ENDBRANCH   1  18
TORSDOF 5
