REMARK  Name = ZINC14544544
REMARK  6 active torsions:
REMARK  status: ('A' for Active; 'I' for Inactive)
REMARK    1  A    between atoms: C_1  and  N_2
REMARK    2  A    between atoms: N_2  and  C_3
REMARK    3  A    between atoms: C_9  and  C_11
REMARK    4  A    between atoms: C_24  and  C_27
REMARK    5  A    between atoms: C_36  and  O_37
REMARK    6  A    between atoms: O_37  and  C_38
REMARK                            x       y       z     vdW  Elec       q    Type
REMARK                         _______ _______ _______ _____ _____    ______ ____
ROOT
ATOM      1  C   UNL     1       1.704   2.483   4.655  0.00  0.00    +0.038 A 
ATOM      2  C   UNL     1       0.321   2.277   4.620  0.00  0.00    +0.015 A 
ATOM      3  C   UNL     1      -0.348   2.309   3.420  0.00  0.00    +0.024 A 
ATOM      4  C   UNL     1       0.340   2.545   2.231  0.00  0.00    +0.031 A 
ATOM      5  C   UNL     1       1.729   2.739   2.267  0.00  0.00    -0.019 A 
ATOM      6  C   UNL     1       2.399   2.713   3.465  0.00  0.00    +0.019 A 
ATOM      7  C   UNL     1       2.419   2.966   0.978  0.00  0.00    +0.049 C 
ATOM      8  C   UNL     1       3.692   3.727   0.892  0.00  0.00    -0.023 C 
ATOM      9  C   UNL     1       3.737   4.347  -0.281  0.00  0.00    -0.030 C 
ATOM     10  C   UNL     1       2.456   4.067  -1.070  0.00  0.00    +0.033 C 
ATOM     11  C   UNL     1       1.457   3.776   0.058  0.00  0.00    +0.029 C 
ATOM     12  C   UNL     1       0.310   2.833  -0.256  0.00  0.00    +0.109 C 
ATOM     13  N   UNL     1      -0.372   2.591   1.033  0.00  0.00    -0.336 N 
ATOM     14  H   UNL     1      -1.333   2.462   1.046  0.00  0.00    +0.147 HD
ENDROOT
BRANCH  12  15
ATOM     15  C   UNL     1      -0.638   3.474  -1.237  0.00  0.00    +0.022 A 
ATOM     16  C   UNL     1      -0.674   3.040  -2.572  0.00  0.00    -0.009 A 
ATOM     17  C   UNL     1       0.164   2.006  -3.025  0.00  0.00    +0.009 A 
ATOM     18  C   UNL     1       0.102   1.609  -4.325  0.00  0.00    +0.001 A 
ATOM     19  C   UNL     1      -0.781   2.214  -5.218  0.00  0.00    +0.001 A 
ATOM     20  C   UNL     1      -1.607   3.217  -4.816  0.00  0.00    +0.008 A 
ATOM     21  C   UNL     1      -1.571   3.654  -3.481  0.00  0.00    -0.017 A 
ATOM     22  C   UNL     1      -2.411   4.688  -3.030  0.00  0.00    +0.012 A 
ATOM     23  C   UNL     1      -2.352   5.087  -1.731  0.00  0.00    +0.046 A 
ATOM     24  C   UNL     1      -1.470   4.478  -0.831  0.00  0.00    +0.126 A 
BRANCH  24  25
ATOM     25  O   UNL     1      -1.439   4.894   0.462  0.00  0.00    -0.495 OA
ATOM     26  C   UNL     1      -2.333   5.947   0.827  0.00  0.00    +0.277 C 
ENDBRANCH  24  25
ENDBRANCH  12  15
BRANCH   1  29
ATOM     27  C   UNL     1       0.390   3.227   7.037  0.00  0.00    +0.138 C 
ATOM     28  N   UNL     1       1.811   2.873   7.067  0.00  0.00    -0.271 N 
ATOM     29  C   UNL     1       2.425   2.457   5.942  0.00  0.00    +0.251 C 
ATOM     30  O   UNL     1       3.573   2.059   5.987  0.00  0.00    -0.270 OA
BRANCH  28  31
ATOM     31  C   UNL     1       2.531   2.968   8.262  0.00  0.00    +0.036 A 
ATOM     32  C   UNL     1       3.908   2.787   8.261  0.00  0.00    +0.023 A 
ATOM     33  C   UNL     1       4.617   2.887   9.443  0.00  0.00    +0.002 A 
ATOM     34  C   UNL     1       3.955   3.156  10.627  0.00  0.00    +0.000 A 
ATOM     35  C   UNL     1       2.583   3.332  10.632  0.00  0.00    +0.002 A 
ATOM     36  C   UNL     1       1.870   3.239   9.453  0.00  0.00    +0.023 A 
ENDBRANCH  28  31
ENDBRANCH   1  29
TORSDOF 4
