REMARK  Name = ZINC44822088
REMARK  10 active torsions:
REMARK  status: ('A' for Active; 'I' for Inactive)
REMARK    1  A    between atoms: C_1  and  C_2
REMARK    2  A    between atoms: C_2  and  O_3
REMARK    3  A    between atoms: O_3  and  C_4
REMARK    4  A    between atoms: C_7  and  C_10
REMARK    5  A    between atoms: C_11  and  C_12
REMARK    6  A    between atoms: N_14  and  C_15
REMARK    7  A    between atoms: C_15  and  N_17
REMARK    8  A    between atoms: N_17  and  C_18
REMARK    9  A    between atoms: C_18  and  C_19
REMARK   10  A    between atoms: C_22  and  C_25
REMARK                            x       y       z     vdW  Elec       q    Type
REMARK                         _______ _______ _______ _____ _____    ______ ____
ROOT
ATOM      1  C   UNL     1       1.847  -7.955  -3.104  0.00  0.00    +0.242 C 
ATOM      2  O   UNL     1       1.379  -8.707  -2.270  0.00  0.00    -0.270 OA
ATOM      3  N   UNL     1       2.471  -8.455  -4.188  0.00  0.00    -0.264 N 
ATOM      4  H   UNL     1       2.845  -7.856  -4.853  0.00  0.00    +0.157 HD
ENDROOT
BRANCH   1   6
ATOM      5  C   UNL     1       1.107  -6.006  -1.843  0.00  0.00    +0.013 C 
ATOM      6  C   UNL     1       1.733  -6.508  -2.929  0.00  0.00    +0.068 C 
BRANCH   5  10
ATOM      7  C   UNL     1       0.777  -1.808  -1.336  0.00  0.00    +0.121 A 
ATOM      8  C   UNL     1       0.240  -2.666  -0.382  0.00  0.00    +0.046 A 
ATOM      9  C   UNL     1       0.345  -4.029  -0.542  0.00  0.00    +0.011 A 
ATOM     10  C   UNL     1       0.992  -4.552  -1.667  0.00  0.00    -0.025 A 
ATOM     11  C   UNL     1       1.531  -3.684  -2.625  0.00  0.00    +0.011 A 
ATOM     12  C   UNL     1       1.416  -2.322  -2.458  0.00  0.00    +0.046 A 
BRANCH   7  13
ATOM     13  O   UNL     1       0.671  -0.465  -1.174  0.00  0.00    -0.492 OA
BRANCH  13  15
ATOM     14  C   UNL     1      -0.019   1.526   0.010  0.00  0.00    +0.048 C 
ATOM     15  C   UNL     1       0.002  -0.004   0.002  0.00  0.00    +0.225 C 
ENDBRANCH  13  15
ENDBRANCH   7  13
ENDBRANCH   5  10
ENDBRANCH   1   6
BRANCH   3  16
ATOM     16  C   UNL     1       2.576  -9.789  -4.349  0.00  0.00    +0.137 C 
ATOM     17  S   UNL     1       1.917 -10.848  -3.176  0.00  0.00    -0.018 S 
BRANCH  16  18
ATOM     18  N   UNL     1       3.200 -10.290  -5.434  0.00  0.00    -0.322 N 
ATOM     19  H   UNL     1       3.574  -9.690  -6.098  0.00  0.00    +0.148 HD
BRANCH  18  20
ATOM     20  C   UNL     1       3.315 -11.740  -5.609  0.00  0.00    +0.138 C 
BRANCH  20  21
ATOM     21  C   UNL     1       4.050 -12.035  -6.891  0.00  0.00    -0.030 A 
ATOM     22  C   UNL     1       3.348 -12.175  -8.073  0.00  0.00    +0.005 A 
ATOM     23  C   UNL     1       4.022 -12.445  -9.249  0.00  0.00    +0.003 A 
ATOM     24  C   UNL     1       5.398 -12.575  -9.243  0.00  0.00    -0.050 A 
ATOM     25  C   UNL     1       6.100 -12.434  -8.061  0.00  0.00    +0.003 A 
ATOM     26  C   UNL     1       5.427 -12.160  -6.885  0.00  0.00    +0.005 A 
ATOM     27  C   UNL     1       6.133 -12.871 -10.525  0.00  0.00    +0.044 C 
ENDBRANCH  20  21
ENDBRANCH  18  20
ENDBRANCH  16  18
ENDBRANCH   3  16
TORSDOF 8
