REMARK  Name = ZINC00718506
REMARK  10 active torsions:
REMARK  status: ('A' for Active; 'I' for Inactive)
REMARK    1  A    between atoms: C_1  and  C_2
REMARK    2  A    between atoms: C_2  and  O_3
REMARK    3  A    between atoms: O_3  and  C_4
REMARK    4  A    between atoms: C_7  and  C_13
REMARK    5  A    between atoms: C_8  and  O_10
REMARK    6  A    between atoms: O_10  and  C_11
REMARK    7  A    between atoms: C_11  and  C_12
REMARK    8  A    between atoms: C_20  and  N_34
REMARK    9  A    between atoms: C_21  and  C_32
REMARK   10  A    between atoms: C_22  and  C_24
REMARK                            x       y       z     vdW  Elec       q    Type
REMARK                         _______ _______ _______ _____ _____    ______ ____
ROOT
ATOM      1  C   UNL     1       0.982  -6.466  -1.993  0.00  0.00    +0.104 A 
ATOM      2  C   UNL     1       0.613  -7.249  -0.894  0.00  0.00    +0.054 A 
ATOM      3  C   UNL     1       0.840  -8.556  -1.213  0.00  0.00    +0.223 A 
ATOM      4  N   UNL     1       1.331  -8.594  -2.468  0.00  0.00    -0.246 N 
ATOM      5  H   UNL     1       1.583  -9.393  -2.958  0.00  0.00    +0.192 HD
ATOM      6  N   UNL     1       1.409  -7.276  -2.943  0.00  0.00    -0.170 NA
ATOM      7  O   UNL     1       0.586  -9.574  -0.352  0.00  0.00    -0.423 OA
ATOM      8  C   UNL     1       0.358  -9.258   0.939  0.00  0.00    +0.200 C 
ATOM      9  C   UNL     1       0.109  -8.002   1.373  0.00  0.00    +0.098 C 
ATOM     10  C   UNL     1       0.058  -6.819   0.439  0.00  0.00    +0.106 C 
ENDROOT
BRANCH  10  11
ATOM     11  C   UNL     1      -1.369  -6.364   0.273  0.00  0.00    +0.019 A 
ATOM     12  C   UNL     1      -2.298  -7.200  -0.322  0.00  0.00    +0.129 A 
ATOM     13  C   UNL     1      -3.609  -6.781  -0.474  0.00  0.00    +0.039 A 
ATOM     14  C   UNL     1      -3.989  -5.527  -0.033  0.00  0.00    +0.004 A 
ATOM     15  C   UNL     1      -3.061  -4.692   0.560  0.00  0.00    +0.020 A 
ATOM     16  C   UNL     1      -1.752  -5.112   0.719  0.00  0.00    +0.048 A 
ATOM     17 CL   UNL     1      -0.589  -4.065   1.470  0.00  0.00    -0.083 Cl
ATOM     18  F   UNL     1      -1.927  -8.425  -0.753  0.00  0.00    -0.205 F 
ENDBRANCH  10  11
BRANCH   1  22
ATOM     19  C   UNL     1       0.751  -2.222  -2.236  0.00  0.00    +0.124 A 
ATOM     20  C   UNL     1       1.338  -2.825  -1.131  0.00  0.00    +0.046 A 
ATOM     21  C   UNL     1       1.414  -4.199  -1.050  0.00  0.00    +0.017 A 
ATOM     22  C   UNL     1       0.900  -4.987  -2.078  0.00  0.00    +0.044 A 
ATOM     23  C   UNL     1       0.309  -4.380  -3.190  0.00  0.00    +0.133 A 
ATOM     24  C   UNL     1       0.232  -2.999  -3.261  0.00  0.00    +0.092 A 
BRANCH  19  25
ATOM     25  O   UNL     1       0.679  -0.867  -2.310  0.00  0.00    -0.492 OA
BRANCH  25  27
ATOM     26  C   UNL     1       1.060   1.371  -1.481  0.00  0.00    +0.048 C 
ATOM     27  C   UNL     1       1.233  -0.127  -1.220  0.00  0.00    +0.225 C 
ENDBRANCH  25  27
ENDBRANCH  19  25
BRANCH  23  28
ATOM     28  O   UNL     1      -0.193  -5.143  -4.195  0.00  0.00    -0.491 OA
BRANCH  28  29
ATOM     29  C   UNL     1      -0.783  -4.454  -5.300  0.00  0.00    +0.226 C 
ATOM     30  C   UNL     1      -1.289  -5.471  -6.324  0.00  0.00    +0.048 C 
ENDBRANCH  28  29
ENDBRANCH  23  28
ENDBRANCH   1  22
BRANCH   8  31
ATOM     31  N   UNL     1       0.380 -10.270   1.866  0.00  0.00    -0.328 N 
ATOM     32  H   UNL     1       0.555 -11.181   1.585  0.00  0.00    +0.145 HD
ATOM     33  H   UNL     1       0.219 -10.074   2.802  0.00  0.00    +0.145 HD
ENDBRANCH   8  31
BRANCH   9  34
ATOM     34  C   UNL     1      -0.116  -7.788   2.771  0.00  0.00    +0.101 C 
ATOM     35  N   UNL     1      -0.293  -7.617   3.880  0.00  0.00    -0.191 NA
ENDBRANCH   9  34
TORSDOF 8
