REMARK  Name = ZINC41026637
REMARK  6 active torsions:
REMARK  status: ('A' for Active; 'I' for Inactive)
REMARK    1  A    between atoms: C_1  and  O_2
REMARK    2  A    between atoms: O_2  and  C_3
REMARK    3  A    between atoms: C_6  and  O_9
REMARK    4  A    between atoms: O_9  and  C_10
REMARK    5  A    between atoms: N_22  and  C_25
REMARK    6  A    between atoms: C_25  and  C_26
REMARK                            x       y       z     vdW  Elec       q    Type
REMARK                         _______ _______ _______ _____ _____    ______ ____
ROOT
ATOM      1  C   UNL     1      -4.948  -3.920   0.045  0.00  0.00    +0.210 A 
ATOM      2  C   UNL     1      -3.837  -4.680   0.120  0.00  0.00    +0.245 A 
ATOM      3  O   UNL     1      -3.877  -6.018   0.174  0.00  0.00    -0.459 OA
ATOM      4  C   UNL     1      -5.035  -6.708   0.155  0.00  0.00    +0.147 A 
ATOM      5  C   UNL     1      -6.258  -6.018   0.080  0.00  0.00    +0.068 A 
ATOM      6  C   UNL     1      -6.227  -4.546   0.027  0.00  0.00    +0.235 A 
ATOM      7  O   UNL     1      -7.254  -3.891  -0.035  0.00  0.00    -0.283 OA
ATOM      8  C   UNL     1      -7.462  -6.722   0.061  0.00  0.00    +0.019 A 
ATOM      9  C   UNL     1      -7.447  -8.086   0.115  0.00  0.00    +0.047 A 
ATOM     10  C   UNL     1      -6.239  -8.781   0.188  0.00  0.00    +0.130 A 
ATOM     11  C   UNL     1      -5.038  -8.096   0.206  0.00  0.00    +0.051 A 
ATOM     12  C   UNL     1      -3.727  -8.836   0.276  0.00  0.00    +0.130 C 
ATOM     13  N   UNL     1      -3.961 -10.213   0.731  0.00  0.00    -0.264 NA
ATOM     14  C   UNL     1      -5.047 -10.827  -0.050  0.00  0.00    +0.318 C 
ATOM     15  O   UNL     1      -6.265 -10.139   0.242  0.00  0.00    -0.476 OA
ENDROOT
BRANCH   1  16
ATOM     16  O   UNL     1      -4.848  -2.564  -0.008  0.00  0.00    -0.449 OA
BRANCH  16  20
ATOM     17  C   UNL     1      -6.006  -0.669  -3.488  0.00  0.00    +0.120 A 
ATOM     18  C   UNL     1      -5.981  -2.054  -3.428  0.00  0.00    +0.049 A 
ATOM     19  C   UNL     1      -5.593  -2.688  -2.264  0.00  0.00    +0.050 A 
ATOM     20  C   UNL     1      -5.229  -1.940  -1.154  0.00  0.00    +0.129 A 
ATOM     21  C   UNL     1      -5.253  -0.554  -1.214  0.00  0.00    +0.050 A 
ATOM     22  C   UNL     1      -5.636   0.080  -2.380  0.00  0.00    +0.049 A 
BRANCH  17  24
ATOM     23  C   UNL     1      -6.754  -0.878  -5.735  0.00  0.00    +0.277 C 
ATOM     24  O   UNL     1      -6.387  -0.044  -4.634  0.00  0.00    -0.495 OA
ENDBRANCH  17  24
ENDBRANCH  16  20
ENDBRANCH   1  16
BRANCH  13  25
ATOM     25  C   UNL     1      -2.732 -11.013   0.642  0.00  0.00    +0.119 C 
BRANCH  25  26
ATOM     26  C   UNL     1      -1.789 -10.628   1.784  0.00  0.00    +0.132 C 
ATOM     27  C   UNL     1      -0.495 -11.466   1.699  0.00  0.00    +0.035 C 
ATOM     28  C   UNL     1      -0.201 -11.770   3.194  0.00  0.00    +0.031 C 
ATOM     29  C   UNL     1      -1.639 -11.895   3.756  0.00  0.00    +0.160 C 
ATOM     30  O   UNL     1      -2.409 -10.912   3.043  0.00  0.00    -0.375 OA
ENDBRANCH  25  26
ENDBRANCH  13  25
TORSDOF 5
