REMARK  Name = ZINC01209956
REMARK  9 active torsions:
REMARK  status: ('A' for Active; 'I' for Inactive)
REMARK    1  A    between atoms: C_1  and  C_2
REMARK    2  A    between atoms: C_3  and  N_15
REMARK    3  A    between atoms: N_6  and  C_9
REMARK    4  A    between atoms: N_7  and  C_8
REMARK    5  A    between atoms: C_16  and  C_17
REMARK    6  A    between atoms: C_20  and  O_24
REMARK    7  A    between atoms: C_22  and  O_23
REMARK    8  A    between atoms: O_24  and  C_25
REMARK    9  A    between atoms: C_25  and  C_27
REMARK                            x       y       z     vdW  Elec       q    Type
REMARK                         _______ _______ _______ _____ _____    ______ ____
ROOT
ATOM      1  C   UNL     1       0.352  -0.674  -4.728  0.00  0.00    +0.035 A 
ATOM      2  C   UNL     1       0.593  -1.542  -5.798  0.00  0.00    +0.016 A 
ATOM      3  C   UNL     1       0.635  -1.051  -7.084  0.00  0.00    +0.047 A 
ATOM      4  C   UNL     1       0.439   0.304  -7.323  0.00  0.00    +0.135 A 
ATOM      5  C   UNL     1       0.200   1.174  -6.269  0.00  0.00    +0.092 A 
ATOM      6  C   UNL     1       0.149   0.693  -4.972  0.00  0.00    +0.129 A 
ENDROOT
BRANCH   1   8
ATOM      7  N   UNL     1       0.076  -0.383  -2.358  0.00  0.00    -0.248 NA
ATOM      8  C   UNL     1       0.306  -1.193  -3.353  0.00  0.00    +0.123 C 
BRANCH   7  11
ATOM      9  C   UNL     1      -0.447   1.342   0.117  0.00  0.00    +0.067 C 
ATOM     10  C   UNL     1      -0.196  -0.142   0.056  0.00  0.00    +0.064 A 
ATOM     11  C   UNL     1       0.033  -0.866  -1.078  0.00  0.00    +0.150 A 
ATOM     12  C   UNL     1       0.225  -2.263  -0.662  0.00  0.00    +0.298 A 
ATOM     13  O   UNL     1       0.452  -3.212  -1.390  0.00  0.00    -0.264 OA
ATOM     14  N   UNL     1       0.100  -2.290   0.681  0.00  0.00    -0.215 N 
ATOM     15  N   UNL     1      -0.153  -0.988   1.125  0.00  0.00    -0.282 N 
ATOM     16  C   UNL     1      -0.345  -0.593   2.523  0.00  0.00    +0.171 C 
BRANCH  14  17
ATOM     17  C   UNL     1       0.210  -3.424   1.490  0.00  0.00    +0.067 A 
ATOM     18  C   UNL     1      -0.758  -3.691   2.450  0.00  0.00    +0.028 A 
ATOM     19  C   UNL     1      -0.647  -4.812   3.248  0.00  0.00    +0.002 A 
ATOM     20  C   UNL     1       0.428  -5.669   3.093  0.00  0.00    +0.000 A 
ATOM     21  C   UNL     1       1.393  -5.407   2.139  0.00  0.00    +0.002 A 
ATOM     22  C   UNL     1       1.284  -4.290   1.333  0.00  0.00    +0.028 A 
ENDBRANCH  14  17
ENDBRANCH   7  11
ENDBRANCH   1   8
BRANCH   6  23
ATOM     23  O   UNL     1      -0.090   1.542  -3.940  0.00  0.00    -0.506 OA
ATOM     24  H   UNL     1       0.708   1.932  -3.558  0.00  0.00    +0.292 HD
ENDBRANCH   6  23
BRANCH   4  25
ATOM     25  O   UNL     1       0.482   0.780  -8.595  0.00  0.00    -0.422 OA
BRANCH  25  26
ATOM     26  C   UNL     1      -0.595   0.585  -9.380  0.00  0.00    +0.346 C 
ATOM     27  O   UNL     1      -1.530  -0.077  -8.975  0.00  0.00    -0.244 OA
BRANCH  26  28
ATOM     28  C   UNL     1      -0.640   1.175 -10.733  0.00  0.00    +0.073 A 
ATOM     29  C   UNL     1       0.436   1.932 -11.204  0.00  0.00    +0.016 A 
ATOM     30  C   UNL     1       0.388   2.481 -12.468  0.00  0.00    +0.001 A 
ATOM     31  C   UNL     1      -0.723   2.283 -13.271  0.00  0.00    +0.001 A 
ATOM     32  C   UNL     1      -1.792   1.535 -12.812  0.00  0.00    +0.016 A 
ATOM     33  C   UNL     1      -1.755   0.975 -11.550  0.00  0.00    +0.032 A 
ATOM     34 BR   UNL     1      -3.214  -0.054 -10.927  0.00  0.00    -0.049 Br
ENDBRANCH  26  28
ENDBRANCH  25  26
ENDBRANCH   4  25
TORSDOF 7
