REMARK  Name = ZINC44774667
REMARK  4 active torsions:
REMARK  status: ('A' for Active; 'I' for Inactive)
REMARK    1  A    between atoms: C_5  and  N_8
REMARK    2  A    between atoms: C_9  and  C_11
REMARK    3  A    between atoms: C_11  and  C_16
REMARK    4  A    between atoms: C_16  and  N_18
REMARK                            x       y       z     vdW  Elec       q    Type
REMARK                         _______ _______ _______ _____ _____    ______ ____
ROOT
ATOM      1  N   UNL     1       1.170  -2.035   0.036  0.00  0.00    -0.282 N 
ATOM      2  C   UNL     1       0.113  -2.770   0.435  0.00  0.00    +0.230 C 
ATOM      3  O   UNL     1      -0.921  -2.222   0.752  0.00  0.00    -0.274 OA
ATOM      4  H   UNL     1       1.979  -2.475  -0.269  0.00  0.00    +0.155 HD
ENDROOT
BRANCH   1   9
ATOM      5  C   UNL     1       1.541   1.486  -0.969  0.00  0.00    +0.042 A 
ATOM      6  C   UNL     1       0.963   2.129   0.111  0.00  0.00    +0.044 A 
ATOM      7  C   UNL     1       0.454   1.393   1.166  0.00  0.00    +0.042 A 
ATOM      8  C   UNL     1       0.521   0.012   1.144  0.00  0.00    +0.065 A 
ATOM      9  C   UNL     1       1.100  -0.636   0.061  0.00  0.00    +0.071 A 
ATOM     10  C   UNL     1       1.611   0.105  -0.997  0.00  0.00    +0.065 A 
ATOM     11 CL   UNL     1       2.336  -0.701  -2.353  0.00  0.00    -0.082 Cl
ATOM     12 CL   UNL     1      -0.118  -0.910   2.469  0.00  0.00    -0.082 Cl
ATOM     13 CL   UNL     1       0.877   3.862   0.142  0.00  0.00    -0.083 Cl
ENDBRANCH   1   9
BRANCH   2  14
ATOM     14  C   UNL     1       0.216  -4.272   0.486  0.00  0.00    +0.091 C 
ATOM     15  C   UNL     1       0.623  -4.820  -0.894  0.00  0.00    +0.023 C 
ATOM     16  C   UNL     1      -0.521  -5.747  -1.355  0.00  0.00    +0.001 C 
ATOM     17  C   UNL     1      -1.757  -5.244  -0.569  0.00  0.00    +0.001 C 
ATOM     18  C   UNL     1      -1.161  -4.886   0.815  0.00  0.00    +0.023 C 
BRANCH  14  19
ATOM     19  C   UNL     1       1.227  -4.685   1.525  0.00  0.00    +0.061 C 
ATOM     20  S   UNL     1       0.751  -5.464   2.837  0.00  0.00    -0.040 S 
BRANCH  19  21
ATOM     21  N   UNL     1       2.531  -4.398   1.347  0.00  0.00    -0.355 N 
ATOM     22  H   UNL     1       2.812  -3.866   0.586  0.00  0.00    +0.143 HD
ATOM     23  H   UNL     1       3.190  -4.723   1.981  0.00  0.00    +0.143 HD
ENDBRANCH  19  21
ENDBRANCH  14  19
ENDBRANCH   2  14
TORSDOF 4
