REMARK  Name = ZINC18013426
REMARK  6 active torsions:
REMARK  status: ('A' for Active; 'I' for Inactive)
REMARK    1  A    between atoms: C_1  and  N_2
REMARK    2  A    between atoms: N_2  and  S_3
REMARK    3  A    between atoms: S_3  and  C_6
REMARK    4  A    between atoms: C_9  and  C_12
REMARK    5  A    between atoms: N_17  and  S_20
REMARK    6  A    between atoms: S_20  and  C_23
REMARK                            x       y       z     vdW  Elec       q    Type
REMARK                         _______ _______ _______ _____ _____    ______ ____
ROOT
ATOM      1  C   UNL     1       0.002  -0.004   0.002  0.00  0.00    +0.247 C 
ATOM      2  O   UNL     1       1.007  -0.558  -0.399  0.00  0.00    -0.270 OA
ATOM      3  N   UNL     1       0.040   1.301   0.337  0.00  0.00    -0.295 N 
ATOM      4  C   UNL     1      -1.185   2.006   0.738  0.00  0.00    +0.125 C 
ATOM      5  C   UNL     1      -0.950   2.639   2.120  0.00  0.00    +0.128 C 
ATOM      6  N   UNL     1       0.316   3.384   2.085  0.00  0.00    -0.174 NA
ATOM      7  C   UNL     1       1.541   2.679   1.679  0.00  0.00    +0.128 C 
ATOM      8  C   UNL     1       1.307   2.045   0.303  0.00  0.00    +0.125 C 
ENDROOT
BRANCH   1  12
ATOM      9  C   UNL     1      -3.630  -2.179   0.345  0.00  0.00    +0.105 A 
ATOM     10  C   UNL     1      -3.608  -0.980  -0.343  0.00  0.00    +0.029 A 
ATOM     11  C   UNL     1      -2.432  -0.268  -0.458  0.00  0.00    +0.015 A 
ATOM     12  C   UNL     1      -1.262  -0.761   0.122  0.00  0.00    +0.037 A 
ATOM     13  C   UNL     1      -1.290  -1.975   0.810  0.00  0.00    +0.015 A 
ATOM     14  C   UNL     1      -2.474  -2.674   0.922  0.00  0.00    +0.029 A 
BRANCH   9  15
ATOM     15  S   UNL     1      -5.137  -3.082   0.488  0.00  0.00    +0.058 S 
ATOM     16  O   UNL     1      -5.013  -3.899   1.644  0.00  0.00    -0.153 OA
ATOM     17  O   UNL     1      -6.190  -2.141   0.331  0.00  0.00    -0.153 OA
BRANCH  15  19
ATOM     18  C   UNL     1      -4.240  -5.187  -0.954  0.00  0.00    +0.127 C 
ATOM     19  N   UNL     1      -5.219  -4.106  -0.810  0.00  0.00    -0.193 NA
ATOM     20  H   UNL     1      -5.916  -3.991  -1.475  0.00  0.00    +0.148 HD
ENDBRANCH  15  19
ENDBRANCH   9  15
ENDBRANCH   1  12
BRANCH   6  21
ATOM     21  S   UNL     1       0.363   4.987   2.496  0.00  0.00    +0.061 S 
ATOM     22  O   UNL     1      -0.756   5.223   3.339  0.00  0.00    -0.153 OA
ATOM     23  O   UNL     1       1.696   5.263   2.905  0.00  0.00    -0.153 OA
BRANCH  21  24
ATOM     24  C   UNL     1       0.087   5.911   1.022  0.00  0.00    +0.109 A 
ATOM     25  C   UNL     1       1.160   6.296   0.239  0.00  0.00    +0.032 A 
ATOM     26  C   UNL     1       0.950   7.018  -0.923  0.00  0.00    +0.051 A 
ATOM     27  C   UNL     1      -0.339   7.362  -1.294  0.00  0.00    +0.162 A 
ATOM     28  C   UNL     1      -1.415   6.980  -0.506  0.00  0.00    +0.164 A 
ATOM     29  C   UNL     1      -1.202   6.254   0.654  0.00  0.00    +0.078 A 
ATOM     30  O   UNL     1      -2.681   7.323  -0.881  0.00  0.00    -0.488 OA
ATOM     31  C   UNL     1      -2.995   8.716  -0.819  0.00  0.00    +0.232 C 
ATOM     32  C   UNL     1      -2.546   9.427  -2.086  0.00  0.00    +0.082 C 
ATOM     33  C   UNL     1      -1.035   9.412  -2.254  0.00  0.00    +0.232 C 
ATOM     34  O   UNL     1      -0.559   8.076  -2.436  0.00  0.00    -0.488 OA
ENDBRANCH  21  24
ENDBRANCH   6  21
TORSDOF 5
