REMARK  Name = ZINC38686658
REMARK  10 active torsions:
REMARK  status: ('A' for Active; 'I' for Inactive)
REMARK    1  A    between atoms: C_1  and  C_2
REMARK    2  A    between atoms: C_5  and  C_8
REMARK    3  A    between atoms: C_8  and  O_9
REMARK    4  A    between atoms: O_9  and  C_10
REMARK    5  A    between atoms: C_14  and  C_16
REMARK    6  A    between atoms: C_21  and  O_30
REMARK    7  A    between atoms: C_25  and  N_29
REMARK    8  A    between atoms: C_26  and  C_27
REMARK    9  A    between atoms: O_30  and  C_31
REMARK   10  A    between atoms: C_31  and  C_33
REMARK                            x       y       z     vdW  Elec       q    Type
REMARK                         _______ _______ _______ _____ _____    ______ ____
ROOT
ATOM      1  C   UNL     1       4.526  -8.473  -0.030  0.00  0.00    +0.098 C 
ATOM      2  C   UNL     1       4.718  -9.333   1.191  0.00  0.00    +0.008 A 
ATOM      3  C   UNL     1       5.018  -8.736   2.403  0.00  0.00    +0.012 A 
ATOM      4  C   UNL     1       5.198  -9.508   3.533  0.00  0.00    +0.047 A 
ATOM      5  C   UNL     1       5.078 -10.889   3.457  0.00  0.00    +0.136 A 
ATOM      6  C   UNL     1       4.777 -11.489   2.245  0.00  0.00    +0.093 A 
ATOM      7  C   UNL     1       4.596 -10.711   1.109  0.00  0.00    +0.138 A 
ATOM      8  O   UNL     1       4.303 -11.314  -0.070  0.00  0.00    -0.441 OA
ATOM      9  C   UNL     1       4.503 -10.659  -1.225  0.00  0.00    +0.199 C 
ATOM     10  C   UNL     1       4.616  -9.314  -1.273  0.00  0.00    +0.098 C 
ENDROOT
BRANCH   1  15
ATOM     11  C   UNL     1       1.827  -5.832   0.100  0.00  0.00    +0.121 A 
ATOM     12  C   UNL     1       0.680  -6.613   0.142  0.00  0.00    +0.045 A 
ATOM     13  C   UNL     1       0.784  -7.990   0.128  0.00  0.00    +0.004 A 
ATOM     14  C   UNL     1       2.028  -8.591   0.072  0.00  0.00    +0.005 A 
ATOM     15  C   UNL     1       3.171  -7.815   0.030  0.00  0.00    -0.031 A 
ATOM     16  C   UNL     1       3.073  -6.437   0.038  0.00  0.00    +0.050 A 
BRANCH  11  17
ATOM     17  O   UNL     1       1.728  -4.477   0.113  0.00  0.00    -0.487 OA
BRANCH  17  18
ATOM     18  C   UNL     1       0.412  -3.923   0.177  0.00  0.00    +0.264 C 
BRANCH  18  23
ATOM     19  C   UNL     1       0.746   1.846   0.197  0.00  0.00    +0.044 C 
ATOM     20  C   UNL     1       0.659   0.342   0.192  0.00  0.00    -0.050 A 
ATOM     21  C   UNL     1       0.565  -0.341  -1.006  0.00  0.00    +0.004 A 
ATOM     22  C   UNL     1       0.485  -1.721  -1.011  0.00  0.00    +0.007 A 
ATOM     23  C   UNL     1       0.500  -2.419   0.182  0.00  0.00    -0.010 A 
ATOM     24  C   UNL     1       0.595  -1.736   1.380  0.00  0.00    +0.007 A 
ATOM     25  C   UNL     1       0.679  -0.356   1.385  0.00  0.00    +0.004 A 
ENDBRANCH  18  23
ENDBRANCH  17  18
ENDBRANCH  11  17
ENDBRANCH   1  15
BRANCH   9  26
ATOM     26  N   UNL     1       4.593 -11.379  -2.391  0.00  0.00    -0.328 N 
ATOM     27  H   UNL     1       4.514 -12.345  -2.372  0.00  0.00    +0.145 HD
ATOM     28  H   UNL     1       4.738 -10.920  -3.234  0.00  0.00    +0.145 HD
ENDBRANCH   9  26
BRANCH  10  29
ATOM     29  C   UNL     1       4.827  -8.677  -2.537  0.00  0.00    +0.101 C 
ATOM     30  N   UNL     1       4.995  -8.171  -3.541  0.00  0.00    -0.191 NA
ENDBRANCH  10  29
BRANCH   5  31
ATOM     31  O   UNL     1       5.255 -11.650   4.568  0.00  0.00    -0.420 OA
BRANCH  31  32
ATOM     32  C   UNL     1       4.325 -11.576   5.542  0.00  0.00    +0.380 C 
ATOM     33  O   UNL     1       3.312 -10.926   5.367  0.00  0.00    -0.241 OA
BRANCH  32  34
ATOM     34  C   UNL     1       4.534 -12.279   6.810  0.00  0.00    +0.212 A 
ATOM     35  C   UNL     1       3.675 -12.292   7.872  0.00  0.00    +0.056 A 
ATOM     36  C   UNL     1       4.273 -13.084   8.865  0.00  0.00    +0.042 A 
ATOM     37  C   UNL     1       5.456 -13.514   8.372  0.00  0.00    +0.196 A 
ATOM     38  O   UNL     1       5.607 -13.032   7.132  0.00  0.00    -0.456 OA
ENDBRANCH  32  34
ENDBRANCH  31  32
ENDBRANCH   5  31
TORSDOF 9
