REMARK  Name = ZINC07448186
REMARK  7 active torsions:
REMARK  status: ('A' for Active; 'I' for Inactive)
REMARK    1  A    between atoms: C_1  and  C_2
REMARK    2  A    between atoms: C_2  and  C_4
REMARK    3  A    between atoms: C_2  and  N_60
REMARK    4  A    between atoms: N_6  and  C_7
REMARK    5  A    between atoms: C_17  and  C_18
REMARK    6  A    between atoms: C_17  and  C_24
REMARK    7  A    between atoms: C_17  and  N_60
REMARK                            x       y       z     vdW  Elec       q    Type
REMARK                         _______ _______ _______ _____ _____    ______ ____
ROOT
ATOM      1  C   UNL     1      -2.848   7.752   0.309  0.00  0.00    -0.004 C 
ATOM      2  C   UNL     1      -2.132   7.259  -0.950  0.00  0.00    +0.014 C 
ENDROOT
BRANCH   2   3
ATOM      3  C   UNL     1      -2.112   5.752  -0.958  0.00  0.00    +0.199 C 
ATOM      4  O   UNL     1      -2.637   5.143  -1.866  0.00  0.00    -0.278 OA
ATOM      5  N   UNL     1      -1.510   5.081   0.044  0.00  0.00    -0.311 N 
ATOM      6  H   UNL     1      -1.089   5.567   0.770  0.00  0.00    +0.149 HD
BRANCH   5   7
ATOM      7  C   UNL     1      -1.490   3.616   0.036  0.00  0.00    +0.035 C 
ATOM      8  C   UNL     1      -0.773   3.123  -1.223  0.00  0.00    +0.029 C 
ATOM      9  C   UNL     1      -0.753   1.593  -1.232  0.00  0.00    -0.008 C 
ATOM     10  C   UNL     1      -0.013   1.086   0.008  0.00  0.00    +0.007 C 
ATOM     11  C   UNL     1      -0.729   1.579   1.267  0.00  0.00    -0.008 C 
ATOM     12  C   UNL     1      -0.750   3.109   1.275  0.00  0.00    +0.029 C 
ATOM     13  C   UNL     1      -2.164   1.050   1.278  0.00  0.00    +0.007 C 
ATOM     14  C   UNL     1      -2.904   1.556   0.038  0.00  0.00    -0.008 C 
ATOM     15  C   UNL     1      -2.188   1.063  -1.221  0.00  0.00    +0.007 C 
ATOM     16  C   UNL     1      -2.925   3.086   0.047  0.00  0.00    +0.029 C 
ENDBRANCH   5   7
ENDBRANCH   2   3
BRANCH   2  17
ATOM     17  N   UNL     1      -2.850   7.740  -2.145  0.00  0.00    +0.394 N 
ATOM     18  H   UNL     1      -3.858   7.754  -1.952  0.00  0.00    -0.083 HD
ATOM     19  H   UNL     1      -2.661   7.107  -2.931  0.00  0.00    -0.083 HD
BRANCH  17  20
ATOM     20  C   UNL     1      -2.404   9.101  -2.497  0.00  0.00    -0.009 C 
BRANCH  20  21
ATOM     21  C   UNL     1      -1.164   9.018  -3.350  0.00  0.00    -0.057 A 
ATOM     22  C   UNL     1      -1.054   8.037  -4.317  0.00  0.00    +0.002 A 
ATOM     23  C   UNL     1       0.080   7.964  -5.104  0.00  0.00    +0.000 A 
ATOM     24  C   UNL     1       1.110   8.867  -4.915  0.00  0.00    +0.000 A 
ATOM     25  C   UNL     1       1.003   9.845  -3.945  0.00  0.00    +0.000 A 
ATOM     26  C   UNL     1      -0.134   9.921  -3.162  0.00  0.00    +0.002 A 
ENDBRANCH  20  21
BRANCH  20  27
ATOM     27  C   UNL     1      -3.497   9.797  -3.266  0.00  0.00    -0.057 A 
ATOM     28  C   UNL     1      -4.229   9.101  -4.210  0.00  0.00    +0.002 A 
ATOM     29  C   UNL     1      -5.235   9.738  -4.912  0.00  0.00    +0.000 A 
ATOM     30  C   UNL     1      -5.503  11.073  -4.676  0.00  0.00    +0.000 A 
ATOM     31  C   UNL     1      -4.768  11.771  -3.736  0.00  0.00    +0.000 A 
ATOM     32  C   UNL     1      -3.765  11.132  -3.031  0.00  0.00    +0.002 A 
ENDBRANCH  20  27
ENDBRANCH  17  20
ENDBRANCH   2  17
TORSDOF 6
